MODEL 1
REMARK VINA RESULT:      -5.6      0.000      0.000
REMARK  8 active torsions:
REMARK  status: ('A' for Active; 'I' for Inactive)
REMARK    1  A    between atoms: N_2  and  C_9 
REMARK    2  A    between atoms: N_2  and  C_11 
REMARK    3  A    between atoms: N_2  and  C_12 
REMARK    4  A    between atoms: N_3  and  C_8 
REMARK    5  A    between atoms: N_3  and  C_13 
REMARK    6  A    between atoms: C_6  and  C_7 
REMARK    7  A    between atoms: C_6  and  C_8 
REMARK    8  A    between atoms: C_7  and  C_9 
ROOT
HETATM    1 Cl   UNK N   1      26.933  31.009  -2.999  0.00  0.00    -0.084 Cl
HETATM    2  N   UNK N   1      28.000  28.461  -7.303  0.00  0.00    -0.365 N 
ATOM      3  HN  UNK N   1      28.649  29.216  -7.525  1.00  0.00     0.165 HD
HETATM    4  C   UNK N   1      26.237  26.409  -6.707  0.00  0.00     0.042 A 
HETATM    5  C   UNK N   1      26.374  27.489  -5.825  0.00  0.00     0.017 A 
HETATM    6  C   UNK N   1      26.998  26.370  -7.877  0.00  0.00     0.047 A 
HETATM    7  C   UNK N   1      27.282  28.521  -6.151  0.00  0.00     0.046 A 
HETATM    8  C   UNK N   1      25.656  27.547  -4.624  0.00  0.00     0.018 A 
HETATM    9  C   UNK N   1      27.873  27.417  -8.167  0.00  0.00     0.090 A 
HETATM   10  C   UNK N   1      27.452  29.597  -5.275  0.00  0.00     0.054 A 
HETATM   11  C   UNK N   1      25.831  28.629  -3.756  0.00  0.00     0.025 A 
HETATM   12  C   UNK N   1      26.727  29.651  -4.083  0.00  0.00     0.036 A 
ENDROOT
BRANCH   4  13
HETATM   13  N   UNK N   1      25.421  25.312  -6.372  0.00  0.00    -0.385 N 
HETATM   14  H   UNK N   1      24.440  25.362  -6.439  0.00  0.00     0.160 HD
BRANCH  13  15
HETATM   15  C   UNK N   1      26.080  24.119  -5.928  0.00  0.00     0.077 C 
HETATM   16  C   UNK N   1      25.744  22.881  -6.744  0.00  0.00     0.032 C 
BRANCH  15  17
HETATM   17  C   UNK N   1      26.222  24.041  -4.410  0.00  0.00     0.026 C 
BRANCH  17  18
HETATM   18  C   UNK N   1      27.607  24.360  -3.883  0.00  0.00     0.032 C 
BRANCH  18  19
HETATM   19  C   UNK N   1      28.712  24.202  -4.935  0.00  0.00     0.272 C 
BRANCH  19  20
HETATM   20  N   UNK N   1      29.236  22.830  -4.980  0.00  0.00     0.087 N 
BRANCH  20  21
HETATM   21  C   UNK N   1      30.283  22.674  -3.961  0.00  0.00     0.268 C 
HETATM   22  C   UNK N   1      30.474  21.212  -3.606  0.00  0.00     0.037 C 
ENDBRANCH  20  21
BRANCH  20  23
HETATM   23  C   UNK N   1      29.701  22.599  -6.356  0.00  0.00     0.268 C 
HETATM   24  C   UNK N   1      29.182  21.330  -7.023  0.00  0.00     0.037 C 
ENDBRANCH  20  23
ENDBRANCH  19  20
ENDBRANCH  18  19
ENDBRANCH  17  18
ENDBRANCH  15  17
ENDBRANCH  13  15
ENDBRANCH   4  13
TORSDOF 8
ENDMDL
MODEL 2
REMARK VINA RESULT:      -5.3     18.812     23.202
REMARK  8 active torsions:
REMARK  status: ('A' for Active; 'I' for Inactive)
REMARK    1  A    between atoms: N_2  and  C_9 
REMARK    2  A    between atoms: N_2  and  C_11 
REMARK    3  A    between atoms: N_2  and  C_12 
REMARK    4  A    between atoms: N_3  and  C_8 
REMARK    5  A    between atoms: N_3  and  C_13 
REMARK    6  A    between atoms: C_6  and  C_7 
REMARK    7  A    between atoms: C_6  and  C_8 
REMARK    8  A    between atoms: C_7  and  C_9 
ROOT
HETATM    1 Cl   UNK N   1      35.081  13.554  18.491  0.00  0.00    -0.084 Cl
HETATM    2  N   UNK N   1      34.317  11.427  13.904  0.00  0.00    -0.365 N 
ATOM      3  HN  UNK N   1      33.587  10.867  14.344  1.00  0.00     0.165 HD
HETATM    4  C   UNK N   1      36.299  12.943  12.701  0.00  0.00     0.042 A 
HETATM    5  C   UNK N   1      36.040  13.094  14.069  0.00  0.00     0.017 A 
HETATM    6  C   UNK N   1      35.549  12.034  11.950  0.00  0.00     0.047 A 
HETATM    7  C   UNK N   1      35.021  12.312  14.658  0.00  0.00     0.046 A 
HETATM    8  C   UNK N   1      36.744  14.020  14.848  0.00  0.00     0.018 A 
HETATM    9  C   UNK N   1      34.562  11.272  12.573  0.00  0.00     0.090 A 
HETATM   10  C   UNK N   1      34.729  12.462  16.016  0.00  0.00     0.054 A 
HETATM   11  C   UNK N   1      36.446  14.162  16.206  0.00  0.00     0.025 A 
HETATM   12  C   UNK N   1      35.441  13.382  16.788  0.00  0.00     0.036 A 
ENDROOT
BRANCH   4  13
HETATM   13  N   UNK N   1      37.233  13.774  12.054  0.00  0.00    -0.385 N 
HETATM   14  H   UNK N   1      38.046  14.088  12.514  0.00  0.00     0.160 HD
BRANCH  13  15
HETATM   15  C   UNK N   1      36.951  14.143  10.698  0.00  0.00     0.077 C 
HETATM   16  C   UNK N   1      38.036  13.755   9.708  0.00  0.00     0.032 C 
BRANCH  15  17
HETATM   17  C   UNK N   1      36.226  15.482  10.580  0.00  0.00     0.026 C 
BRANCH  17  18
HETATM   18  C   UNK N   1      34.860  15.411   9.927  0.00  0.00     0.032 C 
BRANCH  18  19
HETATM   19  C   UNK N   1      34.920  15.338   8.395  0.00  0.00     0.272 C 
BRANCH  19  20
HETATM   20  N   UNK N   1      33.761  15.990   7.769  0.00  0.00     0.087 N 
BRANCH  20  21
HETATM   21  C   UNK N   1      34.197  17.226   7.105  0.00  0.00     0.268 C 
HETATM   22  C   UNK N   1      34.294  18.366   8.100  0.00  0.00     0.037 C 
ENDBRANCH  20  21
BRANCH  20  23
HETATM   23  C   UNK N   1      32.767  16.202   8.833  0.00  0.00     0.268 C 
HETATM   24  C   UNK N   1      31.351  16.510   8.360  0.00  0.00     0.037 C 
ENDBRANCH  20  23
ENDBRANCH  19  20
ENDBRANCH  18  19
ENDBRANCH  17  18
ENDBRANCH  15  17
ENDBRANCH  13  15
ENDBRANCH   4  13
TORSDOF 8
ENDMDL
MODEL 3
REMARK VINA RESULT:      -5.1     15.272     19.007
REMARK  8 active torsions:
REMARK  status: ('A' for Active; 'I' for Inactive)
REMARK    1  A    between atoms: N_2  and  C_9 
REMARK    2  A    between atoms: N_2  and  C_11 
REMARK    3  A    between atoms: N_2  and  C_12 
REMARK    4  A    between atoms: N_3  and  C_8 
REMARK    5  A    between atoms: N_3  and  C_13 
REMARK    6  A    between atoms: C_6  and  C_7 
REMARK    7  A    between atoms: C_6  and  C_8 
REMARK    8  A    between atoms: C_7  and  C_9 
ROOT
HETATM    1 Cl   UNK N   1      27.514  17.727   6.337  0.00  0.00    -0.084 Cl
HETATM    2  N   UNK N   1      32.457  17.099   5.188  0.00  0.00    -0.365 N 
ATOM      3  HN  UNK N   1      32.177  17.118   4.208  1.00  0.00     0.165 HD
HETATM    4  C   UNK N   1      33.227  17.046   7.849  0.00  0.00     0.042 A 
HETATM    5  C   UNK N   1      31.874  17.193   7.517  0.00  0.00     0.017 A 
HETATM    6  C   UNK N   1      34.180  16.936   6.834  0.00  0.00     0.047 A 
HETATM    7  C   UNK N   1      31.508  17.221   6.153  0.00  0.00     0.046 A 
HETATM    8  C   UNK N   1      30.891  17.344   8.504  0.00  0.00     0.018 A 
HETATM    9  C   UNK N   1      33.775  16.954   5.500  0.00  0.00     0.090 A 
HETATM   10  C   UNK N   1      30.167  17.390   5.798  0.00  0.00     0.054 A 
HETATM   11  C   UNK N   1      29.553  17.510   8.139  0.00  0.00     0.025 A 
HETATM   12  C   UNK N   1      29.192  17.532   6.788  0.00  0.00     0.036 A 
ENDROOT
BRANCH   4  13
HETATM   13  N   UNK N   1      33.645  17.116   9.191  0.00  0.00    -0.385 N 
HETATM   14  H   UNK N   1      33.549  17.943   9.717  0.00  0.00     0.160 HD
BRANCH  13  15
HETATM   15  C   UNK N   1      34.218  15.930   9.760  0.00  0.00     0.077 C 
HETATM   16  C   UNK N   1      33.281  14.734   9.779  0.00  0.00     0.032 C 
BRANCH  15  17
HETATM   17  C   UNK N   1      35.144  16.218  10.939  0.00  0.00     0.026 C 
BRANCH  17  18
HETATM   18  C   UNK N   1      36.477  15.499  10.891  0.00  0.00     0.032 C 
BRANCH  18  19
HETATM   19  C   UNK N   1      36.451  14.120  11.562  0.00  0.00     0.272 C 
BRANCH  19  20
HETATM   20  N   UNK N   1      35.612  14.112  12.769  0.00  0.00     0.087 N 
BRANCH  20  21
HETATM   21  C   UNK N   1      36.430  14.469  13.935  0.00  0.00     0.268 C 
HETATM   22  C   UNK N   1      36.668  13.259  14.816  0.00  0.00     0.037 C 
ENDBRANCH  20  21
BRANCH  20  23
HETATM   23  C   UNK N   1      35.003  12.775  12.853  0.00  0.00     0.268 C 
HETATM   24  C   UNK N   1      35.046  11.950  11.571  0.00  0.00     0.037 C 
ENDBRANCH  20  23
ENDBRANCH  19  20
ENDBRANCH  18  19
ENDBRANCH  17  18
ENDBRANCH  15  17
ENDBRANCH  13  15
ENDBRANCH   4  13
TORSDOF 8
ENDMDL
MODEL 4
REMARK VINA RESULT:      -4.9     13.367     16.125
REMARK  8 active torsions:
REMARK  status: ('A' for Active; 'I' for Inactive)
REMARK    1  A    between atoms: N_2  and  C_9 
REMARK    2  A    between atoms: N_2  and  C_11 
REMARK    3  A    between atoms: N_2  and  C_12 
REMARK    4  A    between atoms: N_3  and  C_8 
REMARK    5  A    between atoms: N_3  and  C_13 
REMARK    6  A    between atoms: C_6  and  C_7 
REMARK    7  A    between atoms: C_6  and  C_8 
REMARK    8  A    between atoms: C_7  and  C_9 
ROOT
HETATM    1 Cl   UNK N   1      26.837  19.581   3.607  0.00  0.00    -0.084 Cl
HETATM    2  N   UNK N   1      27.776  18.740   8.563  0.00  0.00    -0.365 N 
ATOM      3  HN  UNK N   1      26.936  19.284   8.759  1.00  0.00     0.165 HD
HETATM    4  C   UNK N   1      30.060  17.263   8.037  0.00  0.00     0.042 A 
HETATM    5  C   UNK N   1      29.325  17.811   6.978  0.00  0.00     0.017 A 
HETATM    6  C   UNK N   1      29.631  17.457   9.352  0.00  0.00     0.047 A 
HETATM    7  C   UNK N   1      28.162  18.557   7.273  0.00  0.00     0.046 A 
HETATM    8  C   UNK N   1      29.702  17.608   5.644  0.00  0.00     0.018 A 
HETATM    9  C   UNK N   1      28.485  18.212   9.599  0.00  0.00     0.090 A 
HETATM   10  C   UNK N   1      27.400  19.094   6.232  0.00  0.00     0.054 A 
HETATM   11  C   UNK N   1      28.934  18.151   4.610  0.00  0.00     0.025 A 
HETATM   12  C   UNK N   1      27.787  18.893   4.904  0.00  0.00     0.036 A 
ENDROOT
BRANCH   4  13
HETATM   13  N   UNK N   1      31.165  16.429   7.783  0.00  0.00    -0.385 N 
HETATM   14  H   UNK N   1      31.118  15.699   7.124  0.00  0.00     0.160 HD
BRANCH  13  15
HETATM   15  C   UNK N   1      32.364  16.688   8.526  0.00  0.00     0.077 C 
HETATM   16  C   UNK N   1      33.125  17.921   8.069  0.00  0.00     0.032 C 
BRANCH  15  17
HETATM   17  C   UNK N   1      33.105  15.417   8.932  0.00  0.00     0.026 C 
BRANCH  17  18
HETATM   18  C   UNK N   1      33.160  14.343   7.862  0.00  0.00     0.032 C 
BRANCH  18  19
HETATM   19  C   UNK N   1      34.451  14.372   7.035  0.00  0.00     0.272 C 
BRANCH  19  20
HETATM   20  N   UNK N   1      34.203  14.065   5.619  0.00  0.00     0.087 N 
BRANCH  20  21
HETATM   21  C   UNK N   1      35.433  14.293   4.848  0.00  0.00     0.268 C 
HETATM   22  C   UNK N   1      36.653  14.215   5.745  0.00  0.00     0.037 C 
ENDBRANCH  20  21
BRANCH  20  23
HETATM   23  C   UNK N   1      33.069  14.900   5.196  0.00  0.00     0.268 C 
HETATM   24  C   UNK N   1      33.429  16.285   4.672  0.00  0.00     0.037 C 
ENDBRANCH  20  23
ENDBRANCH  19  20
ENDBRANCH  18  19
ENDBRANCH  17  18
ENDBRANCH  15  17
ENDBRANCH  13  15
ENDBRANCH   4  13
TORSDOF 8
ENDMDL
MODEL 5
REMARK VINA RESULT:      -4.9     13.439     15.908
REMARK  8 active torsions:
REMARK  status: ('A' for Active; 'I' for Inactive)
REMARK    1  A    between atoms: N_2  and  C_9 
REMARK    2  A    between atoms: N_2  and  C_11 
REMARK    3  A    between atoms: N_2  and  C_12 
REMARK    4  A    between atoms: N_3  and  C_8 
REMARK    5  A    between atoms: N_3  and  C_13 
REMARK    6  A    between atoms: C_6  and  C_7 
REMARK    7  A    between atoms: C_6  and  C_8 
REMARK    8  A    between atoms: C_7  and  C_9 
ROOT
HETATM    1 Cl   UNK N   1      27.880  17.265   9.031  0.00  0.00    -0.084 Cl
HETATM    2  N   UNK N   1      32.984  17.063   9.267  0.00  0.00    -0.365 N 
ATOM      3  HN  UNK N   1      32.879  16.930  10.272  1.00  0.00     0.165 HD
HETATM    4  C   UNK N   1      33.277  17.425   6.536  0.00  0.00     0.042 A 
HETATM    5  C   UNK N   1      31.997  17.405   7.103  0.00  0.00     0.017 A 
HETATM    6  C   UNK N   1      34.398  17.253   7.351  0.00  0.00     0.047 A 
HETATM    7  C   UNK N   1      31.874  17.215   8.498  0.00  0.00     0.046 A 
HETATM    8  C   UNK N   1      30.846  17.537   6.315  0.00  0.00     0.018 A 
HETATM    9  C   UNK N   1      34.233  17.082   8.725  0.00  0.00     0.090 A 
HETATM   10  C   UNK N   1      30.606  17.169   9.082  0.00  0.00     0.054 A 
HETATM   11  C   UNK N   1      29.582  17.491   6.909  0.00  0.00     0.025 A 
HETATM   12  C   UNK N   1      29.464  17.309   8.290  0.00  0.00     0.036 A 
ENDROOT
BRANCH   4  13
HETATM   13  N   UNK N   1      33.440  17.509   5.140  0.00  0.00    -0.385 N 
HETATM   14  H   UNK N   1      33.732  18.343   4.706  0.00  0.00     0.160 HD
BRANCH  13  15
HETATM   15  C   UNK N   1      33.161  16.326   4.378  0.00  0.00     0.077 C 
HETATM   16  C   UNK N   1      34.134  15.184   4.623  0.00  0.00     0.032 C 
BRANCH  15  17
HETATM   17  C   UNK N   1      32.645  16.626   2.973  0.00  0.00     0.026 C 
BRANCH  17  18
HETATM   18  C   UNK N   1      31.137  16.570   2.824  0.00  0.00     0.032 C 
BRANCH  18  19
HETATM   19  C   UNK N   1      30.558  15.162   3.012  0.00  0.00     0.272 C 
BRANCH  19  20
HETATM   20  N   UNK N   1      29.146  15.198   3.418  0.00  0.00     0.087 N 
BRANCH  20  21
HETATM   21  C   UNK N   1      28.662  16.584   3.377  0.00  0.00     0.268 C 
HETATM   22  C   UNK N   1      27.148  16.628   3.454  0.00  0.00     0.037 C 
ENDBRANCH  20  21
BRANCH  20  23
HETATM   23  C   UNK N   1      29.073  14.578   4.751  0.00  0.00     0.268 C 
HETATM   24  C   UNK N   1      30.382  14.011   5.286  0.00  0.00     0.037 C 
ENDBRANCH  20  23
ENDBRANCH  19  20
ENDBRANCH  18  19
ENDBRANCH  17  18
ENDBRANCH  15  17
ENDBRANCH  13  15
ENDBRANCH   4  13
TORSDOF 8
ENDMDL
MODEL 6
REMARK VINA RESULT:      -4.9     21.530     25.288
REMARK  8 active torsions:
REMARK  status: ('A' for Active; 'I' for Inactive)
REMARK    1  A    between atoms: N_2  and  C_9 
REMARK    2  A    between atoms: N_2  and  C_11 
REMARK    3  A    between atoms: N_2  and  C_12 
REMARK    4  A    between atoms: N_3  and  C_8 
REMARK    5  A    between atoms: N_3  and  C_13 
REMARK    6  A    between atoms: C_6  and  C_7 
REMARK    7  A    between atoms: C_6  and  C_8 
REMARK    8  A    between atoms: C_7  and  C_9 
ROOT
HETATM    1 Cl   UNK N   1      34.581   9.490  17.809  0.00  0.00    -0.084 Cl
HETATM    2  N   UNK N   1      36.633  13.672  15.700  0.00  0.00    -0.365 N 
ATOM      3  HN  UNK N   1      37.153  13.790  16.569  1.00  0.00     0.165 HD
HETATM    4  C   UNK N   1      35.224  13.358  13.336  0.00  0.00     0.042 A 
HETATM    5  C   UNK N   1      35.045  12.442  14.381  0.00  0.00     0.017 A 
HETATM    6  C   UNK N   1      36.119  14.419  13.490  0.00  0.00     0.047 A 
HETATM    7  C   UNK N   1      35.779  12.622  15.575  0.00  0.00     0.046 A 
HETATM    8  C   UNK N   1      34.185  11.344  14.251  0.00  0.00     0.018 A 
HETATM    9  C   UNK N   1      36.812  14.568  14.690  0.00  0.00     0.090 A 
HETATM   10  C   UNK N   1      35.634  11.709  16.622  0.00  0.00     0.054 A 
HETATM   11  C   UNK N   1      34.046  10.437  15.305  0.00  0.00     0.025 A 
HETATM   12  C   UNK N   1      34.768  10.621  16.488  0.00  0.00     0.036 A 
ENDROOT
BRANCH   4  13
HETATM   13  N   UNK N   1      34.591  13.157  12.094  0.00  0.00    -0.385 N 
HETATM   14  H   UNK N   1      33.820  12.552  12.002  0.00  0.00     0.160 HD
BRANCH  13  15
HETATM   15  C   UNK N   1      35.118  13.874  10.969  0.00  0.00     0.077 C 
HETATM   16  C   UNK N   1      34.188  14.943  10.420  0.00  0.00     0.032 C 
BRANCH  15  17
HETATM   17  C   UNK N   1      35.940  12.994  10.030  0.00  0.00     0.026 C 
BRANCH  17  18
HETATM   18  C   UNK N   1      35.902  11.513  10.349  0.00  0.00     0.032 C 
BRANCH  18  19
HETATM   19  C   UNK N   1      37.166  11.008  11.056  0.00  0.00     0.272 C 
BRANCH  19  20
HETATM   20  N   UNK N   1      36.851  10.292  12.301  0.00  0.00     0.087 N 
BRANCH  20  21
HETATM   21  C   UNK N   1      37.937  10.495  13.269  0.00  0.00     0.268 C 
HETATM   22  C   UNK N   1      37.762   9.587  14.471  0.00  0.00     0.037 C 
ENDBRANCH  20  21
BRANCH  20  23
HETATM   23  C   UNK N   1      36.631   8.884  11.934  0.00  0.00     0.268 C 
HETATM   24  C   UNK N   1      35.219   8.356  12.165  0.00  0.00     0.037 C 
ENDBRANCH  20  23
ENDBRANCH  19  20
ENDBRANCH  18  19
ENDBRANCH  17  18
ENDBRANCH  15  17
ENDBRANCH  13  15
ENDBRANCH   4  13
TORSDOF 8
ENDMDL
MODEL 7
REMARK VINA RESULT:      -4.8      2.977      4.822
REMARK  8 active torsions:
REMARK  status: ('A' for Active; 'I' for Inactive)
REMARK    1  A    between atoms: N_2  and  C_9 
REMARK    2  A    between atoms: N_2  and  C_11 
REMARK    3  A    between atoms: N_2  and  C_12 
REMARK    4  A    between atoms: N_3  and  C_8 
REMARK    5  A    between atoms: N_3  and  C_13 
REMARK    6  A    between atoms: C_6  and  C_7 
REMARK    7  A    between atoms: C_6  and  C_8 
REMARK    8  A    between atoms: C_7  and  C_9 
ROOT
HETATM    1 Cl   UNK N   1      24.247  27.308  -5.630  0.00  0.00    -0.084 Cl
HETATM    2  N   UNK N   1      27.410  29.253  -2.114  0.00  0.00    -0.365 N 
ATOM      3  HN  UNK N   1      26.604  29.295  -1.490  1.00  0.00     0.165 HD
HETATM    4  C   UNK N   1      29.602  29.144  -3.803  0.00  0.00     0.042 A 
HETATM    5  C   UNK N   1      28.348  28.719  -4.260  0.00  0.00     0.017 A 
HETATM    6  C   UNK N   1      29.741  29.612  -2.494  0.00  0.00     0.047 A 
HETATM    7  C   UNK N   1      27.247  28.782  -3.378  0.00  0.00     0.046 A 
HETATM    8  C   UNK N   1      28.176  28.209  -5.553  0.00  0.00     0.018 A 
HETATM    9  C   UNK N   1      28.625  29.670  -1.661  0.00  0.00     0.090 A 
HETATM   10  C   UNK N   1      25.991  28.342  -3.804  0.00  0.00     0.054 A 
HETATM   11  C   UNK N   1      26.915  27.774  -5.971  0.00  0.00     0.025 A 
HETATM   12  C   UNK N   1      25.825  27.842  -5.098  0.00  0.00     0.036 A 
ENDROOT
BRANCH   4  13
HETATM   13  N   UNK N   1      30.744  29.002  -4.615  0.00  0.00    -0.385 N 
HETATM   14  H   UNK N   1      30.832  29.488  -5.467  0.00  0.00     0.160 HD
BRANCH  13  15
HETATM   15  C   UNK N   1      31.774  28.121  -4.146  0.00  0.00     0.077 C 
HETATM   16  C   UNK N   1      33.176  28.699  -4.234  0.00  0.00     0.032 C 
BRANCH  15  17
HETATM   17  C   UNK N   1      31.508  26.656  -4.485  0.00  0.00     0.026 C 
BRANCH  17  18
HETATM   18  C   UNK N   1      30.638  25.919  -3.486  0.00  0.00     0.032 C 
BRANCH  18  19
HETATM   19  C   UNK N   1      30.709  24.393  -3.624  0.00  0.00     0.272 C 
BRANCH  19  20
HETATM   20  N   UNK N   1      29.414  23.815  -4.009  0.00  0.00     0.087 N 
BRANCH  20  21
HETATM   21  C   UNK N   1      29.537  23.176  -5.326  0.00  0.00     0.268 C 
HETATM   22  C   UNK N   1      30.044  21.753  -5.188  0.00  0.00     0.037 C 
ENDBRANCH  20  21
BRANCH  20  23
HETATM   23  C   UNK N   1      28.432  24.909  -3.964  0.00  0.00     0.268 C 
HETATM   24  C   UNK N   1      27.060  24.541  -3.411  0.00  0.00     0.037 C 
ENDBRANCH  20  23
ENDBRANCH  19  20
ENDBRANCH  18  19
ENDBRANCH  17  18
ENDBRANCH  15  17
ENDBRANCH  13  15
ENDBRANCH   4  13
TORSDOF 8
ENDMDL
MODEL 8
REMARK VINA RESULT:      -4.8     16.050     18.700
REMARK  8 active torsions:
REMARK  status: ('A' for Active; 'I' for Inactive)
REMARK    1  A    between atoms: N_2  and  C_9 
REMARK    2  A    between atoms: N_2  and  C_11 
REMARK    3  A    between atoms: N_2  and  C_12 
REMARK    4  A    between atoms: N_3  and  C_8 
REMARK    5  A    between atoms: N_3  and  C_13 
REMARK    6  A    between atoms: C_6  and  C_7 
REMARK    7  A    between atoms: C_6  and  C_8 
REMARK    8  A    between atoms: C_7  and  C_9 
ROOT
HETATM    1 Cl   UNK N   1      23.102  11.653  13.057  0.00  0.00    -0.084 Cl
HETATM    2  N   UNK N   1      24.581  13.397   8.483  0.00  0.00    -0.365 N 
ATOM      3  HN  UNK N   1      25.540  13.264   8.802  1.00  0.00     0.165 HD
HETATM    4  C   UNK N   1      21.977  13.764   7.611  0.00  0.00     0.042 A 
HETATM    5  C   UNK N   1      22.218  13.279   8.902  0.00  0.00     0.017 A 
HETATM    6  C   UNK N   1      23.053  14.051   6.767  0.00  0.00     0.047 A 
HETATM    7  C   UNK N   1      23.555  13.097   9.322  0.00  0.00     0.046 A 
HETATM    8  C   UNK N   1      21.166  12.944   9.765  0.00  0.00     0.018 A 
HETATM    9  C   UNK N   1      24.357  13.870   7.226  0.00  0.00     0.090 A 
HETATM   10  C   UNK N   1      23.819  12.593  10.598  0.00  0.00     0.054 A 
HETATM   11  C   UNK N   1      21.441  12.443  11.040  0.00  0.00     0.025 A 
HETATM   12  C   UNK N   1      22.764  12.269  11.455  0.00  0.00     0.036 A 
ENDROOT
BRANCH   4  13
HETATM   13  N   UNK N   1      20.662  13.862   7.117  0.00  0.00    -0.385 N 
HETATM   14  H   UNK N   1      20.037  13.103   7.167  0.00  0.00     0.160 HD
BRANCH  13  15
HETATM   15  C   UNK N   1      20.273  15.116   6.540  0.00  0.00     0.077 C 
HETATM   16  C   UNK N   1      19.938  16.193   7.558  0.00  0.00     0.032 C 
BRANCH  15  17
HETATM   17  C   UNK N   1      19.446  14.958   5.267  0.00  0.00     0.026 C 
BRANCH  17  18
HETATM   18  C   UNK N   1      19.326  16.214   4.426  0.00  0.00     0.032 C 
BRANCH  18  19
HETATM   19  C   UNK N   1      20.349  16.285   3.286  0.00  0.00     0.272 C 
BRANCH  19  20
HETATM   20  N   UNK N   1      21.731  16.223   3.783  0.00  0.00     0.087 N 
BRANCH  20  21
HETATM   21  C   UNK N   1      22.259  17.587   3.927  0.00  0.00     0.268 C 
HETATM   22  C   UNK N   1      23.144  17.694   5.154  0.00  0.00     0.037 C 
ENDBRANCH  20  21
BRANCH  20  23
HETATM   23  C   UNK N   1      22.485  15.388   2.835  0.00  0.00     0.268 C 
HETATM   24  C   UNK N   1      22.337  13.882   3.022  0.00  0.00     0.037 C 
ENDBRANCH  20  23
ENDBRANCH  19  20
ENDBRANCH  18  19
ENDBRANCH  17  18
ENDBRANCH  15  17
ENDBRANCH  13  15
ENDBRANCH   4  13
TORSDOF 8
ENDMDL
MODEL 9
REMARK VINA RESULT:      -4.8     14.686     17.426
REMARK  8 active torsions:
REMARK  status: ('A' for Active; 'I' for Inactive)
REMARK    1  A    between atoms: N_2  and  C_9 
REMARK    2  A    between atoms: N_2  and  C_11 
REMARK    3  A    between atoms: N_2  and  C_12 
REMARK    4  A    between atoms: N_3  and  C_8 
REMARK    5  A    between atoms: N_3  and  C_13 
REMARK    6  A    between atoms: C_6  and  C_7 
REMARK    7  A    between atoms: C_6  and  C_8 
REMARK    8  A    between atoms: C_7  and  C_9 
ROOT
HETATM    1 Cl   UNK N   1      21.287  11.942  12.042  0.00  0.00    -0.084 Cl
HETATM    2  N   UNK N   1      24.878  13.197   8.625  0.00  0.00    -0.365 N 
ATOM      3  HN  UNK N   1      25.534  12.671   9.201  1.00  0.00     0.165 HD
HETATM    4  C   UNK N   1      23.101  14.630   7.056  0.00  0.00     0.042 A 
HETATM    5  C   UNK N   1      22.654  14.017   8.233  0.00  0.00     0.017 A 
HETATM    6  C   UNK N   1      24.439  14.507   6.676  0.00  0.00     0.047 A 
HETATM    7  C   UNK N   1      23.579  13.289   9.014  0.00  0.00     0.046 A 
HETATM    8  C   UNK N   1      21.312  14.087   8.629  0.00  0.00     0.018 A 
HETATM    9  C   UNK N   1      25.322  13.791   7.483  0.00  0.00     0.090 A 
HETATM   10  C   UNK N   1      23.151  12.650  10.180  0.00  0.00     0.054 A 
HETATM   11  C   UNK N   1      20.894  13.446   9.798  0.00  0.00     0.025 A 
HETATM   12  C   UNK N   1      21.812  12.731  10.573  0.00  0.00     0.036 A 
ENDROOT
BRANCH   4  13
HETATM   13  N   UNK N   1      22.192  15.277   6.197  0.00  0.00    -0.385 N 
HETATM   14  H   UNK N   1      21.525  14.771   5.679  0.00  0.00     0.160 HD
BRANCH  13  15
HETATM   15  C   UNK N   1      22.279  16.706   6.111  0.00  0.00     0.077 C 
HETATM   16  C   UNK N   1      21.086  17.440   6.700  0.00  0.00     0.032 C 
BRANCH  15  17
HETATM   17  C   UNK N   1      22.935  17.189   4.820  0.00  0.00     0.026 C 
BRANCH  17  18
HETATM   18  C   UNK N   1      23.906  18.341   4.991  0.00  0.00     0.032 C 
BRANCH  18  19
HETATM   19  C   UNK N   1      25.305  18.046   4.435  0.00  0.00     0.272 C 
BRANCH  19  20
HETATM   20  N   UNK N   1      26.126  19.262   4.340  0.00  0.00     0.087 N 
BRANCH  20  21
HETATM   21  C   UNK N   1      26.768  19.520   5.636  0.00  0.00     0.268 C 
HETATM   22  C   UNK N   1      27.665  20.740   5.558  0.00  0.00     0.037 C 
ENDBRANCH  20  21
BRANCH  20  23
HETATM   23  C   UNK N   1      25.233  20.341   3.890  0.00  0.00     0.268 C 
HETATM   24  C   UNK N   1      25.138  20.532   2.381  0.00  0.00     0.037 C 
ENDBRANCH  20  23
ENDBRANCH  19  20
ENDBRANCH  18  19
ENDBRANCH  17  18
ENDBRANCH  15  17
ENDBRANCH  13  15
ENDBRANCH   4  13
TORSDOF 8
ENDMDL
