MODEL 1
REMARK VINA RESULT:      -6.1      0.000      0.000
REMARK  9 active torsions:
REMARK  status: ('A' for Active; 'I' for Inactive)
REMARK    1  A    between atoms: C_4  and  C_3 
REMARK    2  A    between atoms: O_15  and  C_3 
REMARK    3  A    between atoms: C_6  and  O_16 
REMARK    4  A    between atoms: C_7  and  O_22 
REMARK    5  A    between atoms: C_8  and  N_14 
REMARK    6  A    between atoms: O_17  and  C_9 
REMARK    7  A    between atoms: P_23  and  O_18 
REMARK    8  A    between atoms: P_23  and  O_19 
REMARK    9  A    between atoms: P_23  and  O_22 
ROOT
HETATM    1  C   UNK N   1      31.893  15.808   6.821  0.00  0.00     0.180 C 
HETATM    2  C   UNK N   1      31.418  17.608   8.160  0.00  0.00     0.199 C 
HETATM    3  C   UNK N   1      32.245  16.337   8.213  0.00  0.00     0.197 C 
HETATM    4  C   UNK N   1      30.130  17.018   7.578  0.00  0.00     0.262 C 
HETATM    5  O   UNK N   1      30.543  16.143   6.546  0.00  0.00    -0.353 OA
ENDROOT
BRANCH   4   6
HETATM    6  N   UNK N   1      29.086  17.949   7.077  0.00  0.00    -0.293 N 
HETATM    7  C   UNK N   1      28.988  18.036   5.717  0.00  0.00     0.101 A 
HETATM    8  C   UNK N   1      28.047  18.859   5.110  0.00  0.00     0.065 A 
HETATM    9  C   UNK N   1      27.195  19.595   5.917  0.00  0.00     0.102 A 
HETATM   10  N   UNK N   1      26.314  20.356   5.392  0.00  0.00    -0.385 N 
HETATM   11  N   UNK N   1      27.296  19.500   7.264  0.00  0.00    -0.308 N 
HETATM   12  H   UNK N   1      25.680  20.852   5.960  0.00  0.00     0.157 HD
ATOM     13  HN  UNK N   1      26.265  20.452   4.378  1.00  0.00     0.157 HD
HETATM   14  C   UNK N   1      28.221  18.695   7.856  0.00  0.00     0.227 A 
ATOM     15  HN  UNK N   1      26.664  20.046   7.851  1.00  0.00     0.171 HD
BRANCH  14  16
HETATM   16  O   UNK N   1      28.252  18.644   9.195  0.00  0.00    -0.332 OA
HETATM   17  H   UNK N   1      27.919  17.893   9.645  0.00  0.00     0.221 HD
ENDBRANCH  14  16
ENDBRANCH   4   6
BRANCH   2  18
HETATM   18  O   UNK N   1      31.210  18.175   9.422  0.00  0.00    -0.388 OA
HETATM   19  H   UNK N   1      31.117  19.001   9.921  0.00  0.00     0.210 HD
ENDBRANCH   2  18
BRANCH   3  20
HETATM   20  O   UNK N   1      33.661  16.357   8.374  0.00  0.00    -0.286 OA
BRANCH  20  21
HETATM   21  P   UNK N   1      34.279  15.796   9.921  0.00  0.00     0.391 P 
HETATM   22  O   UNK N   1      35.336  14.685   9.681  0.00  0.00    -0.632 OA
BRANCH  21  23
HETATM   23  O   UNK N   1      34.986  17.044  10.899  0.00  0.00    -0.307 OA
HETATM   24  H   UNK N   1      34.941  17.908  11.338  0.00  0.00     0.222 HD
ENDBRANCH  21  23
BRANCH  21  25
HETATM   25  O   UNK N   1      32.997  15.027  10.800  0.00  0.00    -0.307 OA
HETATM   26  H   UNK N   1      33.149  14.442  11.559  0.00  0.00     0.222 HD
ENDBRANCH  21  25
ENDBRANCH  20  21
ENDBRANCH   3  20
BRANCH   1  27
HETATM   27  C   UNK N   1      32.117  14.305   6.688  0.00  0.00     0.198 C 
BRANCH  27  28
HETATM   28  O   UNK N   1      32.247  13.713   7.945  0.00  0.00    -0.398 OA
HETATM   29  H   UNK N   1      32.120  12.950   8.530  0.00  0.00     0.209 HD
ENDBRANCH  27  28
ENDBRANCH   1  27
TORSDOF 9
ENDMDL
MODEL 2
REMARK VINA RESULT:      -5.9      6.192      8.884
REMARK  9 active torsions:
REMARK  status: ('A' for Active; 'I' for Inactive)
REMARK    1  A    between atoms: C_4  and  C_3 
REMARK    2  A    between atoms: O_15  and  C_3 
REMARK    3  A    between atoms: C_6  and  O_16 
REMARK    4  A    between atoms: C_7  and  O_22 
REMARK    5  A    between atoms: C_8  and  N_14 
REMARK    6  A    between atoms: O_17  and  C_9 
REMARK    7  A    between atoms: P_23  and  O_18 
REMARK    8  A    between atoms: P_23  and  O_19 
REMARK    9  A    between atoms: P_23  and  O_22 
ROOT
HETATM    1  C   UNK N   1      33.771  14.999  10.317  0.00  0.00     0.180 C 
HETATM    2  C   UNK N   1      35.933  15.362  10.992  0.00  0.00     0.199 C 
HETATM    3  C   UNK N   1      34.959  15.893   9.957  0.00  0.00     0.197 C 
HETATM    4  C   UNK N   1      35.675  13.864  10.799  0.00  0.00     0.262 C 
HETATM    5  O   UNK N   1      34.270  13.728  10.698  0.00  0.00    -0.353 OA
ENDROOT
BRANCH   4   6
HETATM    6  N   UNK N   1      36.213  12.916  11.808  0.00  0.00    -0.293 N 
HETATM    7  C   UNK N   1      37.410  12.341  11.488  0.00  0.00     0.101 A 
HETATM    8  C   UNK N   1      38.036  11.444  12.345  0.00  0.00     0.065 A 
HETATM    9  C   UNK N   1      37.420  11.143  13.549  0.00  0.00     0.102 A 
HETATM   10  N   UNK N   1      37.971  10.328  14.364  0.00  0.00    -0.385 N 
HETATM   11  N   UNK N   1      36.236  11.719  13.861  0.00  0.00    -0.308 N 
HETATM   12  H   UNK N   1      37.558  10.139  15.237  0.00  0.00     0.157 HD
ATOM     13  HN  UNK N   1      38.846   9.868  14.108  1.00  0.00     0.157 HD
HETATM   14  C   UNK N   1      35.624  12.596  13.018  0.00  0.00     0.227 A 
ATOM     15  HN  UNK N   1      35.790  11.491  14.750  1.00  0.00     0.171 HD
BRANCH  14  16
HETATM   16  O   UNK N   1      34.458  13.136  13.402  0.00  0.00    -0.332 OA
HETATM   17  H   UNK N   1      33.809  13.354  12.763  0.00  0.00     0.221 HD
ENDBRANCH  14  16
ENDBRANCH   4   6
BRANCH   2  18
HETATM   18  O   UNK N   1      37.260  15.704  10.717  0.00  0.00    -0.388 OA
HETATM   19  H   UNK N   1      38.136  15.371  10.466  0.00  0.00     0.210 HD
ENDBRANCH   2  18
BRANCH   3  20
HETATM   20  O   UNK N   1      34.543  17.257   9.934  0.00  0.00    -0.286 OA
BRANCH  20  21
HETATM   21  P   UNK N   1      34.343  17.985   8.347  0.00  0.00     0.391 P 
HETATM   22  O   UNK N   1      35.145  19.312   8.284  0.00  0.00    -0.632 OA
BRANCH  21  23
HETATM   23  O   UNK N   1      34.833  16.967   7.030  0.00  0.00    -0.307 OA
HETATM   24  H   UNK N   1      35.290  16.184   6.685  0.00  0.00     0.222 HD
ENDBRANCH  21  23
BRANCH  21  25
HETATM   25  O   UNK N   1      32.683  18.444   8.138  0.00  0.00    -0.307 OA
HETATM   26  H   UNK N   1      32.378  19.365   8.161  0.00  0.00     0.222 HD
ENDBRANCH  21  25
ENDBRANCH  20  21
ENDBRANCH   3  20
BRANCH   1  27
HETATM   27  C   UNK N   1      32.765  14.867   9.178  0.00  0.00     0.198 C 
BRANCH  27  28
HETATM   28  O   UNK N   1      31.735  15.798   9.322  0.00  0.00    -0.398 OA
HETATM   29  H   UNK N   1      31.163  16.333   9.894  0.00  0.00     0.209 HD
ENDBRANCH  27  28
ENDBRANCH   1  27
TORSDOF 9
ENDMDL
MODEL 3
REMARK VINA RESULT:      -5.8      6.738      8.675
REMARK  9 active torsions:
REMARK  status: ('A' for Active; 'I' for Inactive)
REMARK    1  A    between atoms: C_4  and  C_3 
REMARK    2  A    between atoms: O_15  and  C_3 
REMARK    3  A    between atoms: C_6  and  O_16 
REMARK    4  A    between atoms: C_7  and  O_22 
REMARK    5  A    between atoms: C_8  and  N_14 
REMARK    6  A    between atoms: O_17  and  C_9 
REMARK    7  A    between atoms: P_23  and  O_18 
REMARK    8  A    between atoms: P_23  and  O_19 
REMARK    9  A    between atoms: P_23  and  O_22 
ROOT
HETATM    1  C   UNK N   1      36.232  13.903   9.426  0.00  0.00     0.180 C 
HETATM    2  C   UNK N   1      35.081  15.204  10.924  0.00  0.00     0.199 C 
HETATM    3  C   UNK N   1      35.750  15.348   9.570  0.00  0.00     0.197 C 
HETATM    4  C   UNK N   1      36.179  14.409  11.637  0.00  0.00     0.262 C 
HETATM    5  O   UNK N   1      36.605  13.429  10.709  0.00  0.00    -0.353 OA
ENDROOT
BRANCH   4   6
HETATM    6  N   UNK N   1      35.863  13.777  12.944  0.00  0.00    -0.293 N 
HETATM    7  C   UNK N   1      36.491  14.329  14.024  0.00  0.00     0.101 A 
HETATM    8  C   UNK N   1      36.278  13.846  15.310  0.00  0.00     0.065 A 
HETATM    9  C   UNK N   1      35.403  12.786  15.481  0.00  0.00     0.102 A 
HETATM   10  N   UNK N   1      35.179  12.322  16.650  0.00  0.00    -0.385 N 
HETATM   11  N   UNK N   1      34.782  12.247  14.405  0.00  0.00    -0.308 N 
HETATM   12  H   UNK N   1      34.530  11.595  16.782  0.00  0.00     0.157 HD
ATOM     13  HN  UNK N   1      35.677  12.708  17.453  1.00  0.00     0.157 HD
HETATM   14  C   UNK N   1      34.994  12.721  13.147  0.00  0.00     0.227 A 
ATOM     15  HN  UNK N   1      34.139  11.466  14.541  1.00  0.00     0.171 HD
BRANCH  14  16
HETATM   16  O   UNK N   1      34.334  12.143  12.133  0.00  0.00    -0.332 OA
HETATM   17  H   UNK N   1      34.716  12.117  11.278  0.00  0.00     0.221 HD
ENDBRANCH  14  16
ENDBRANCH   4   6
BRANCH   2  18
HETATM   18  O   UNK N   1      34.839  16.433  11.545  0.00  0.00    -0.388 OA
HETATM   19  H   UNK N   1      35.136  17.351  11.642  0.00  0.00     0.210 HD
ENDBRANCH   2  18
BRANCH   3  20
HETATM   20  O   UNK N   1      35.028  15.732   8.402  0.00  0.00    -0.286 OA
BRANCH  20  21
HETATM   21  P   UNK N   1      34.421  17.380   8.364  0.00  0.00     0.391 P 
HETATM   22  O   UNK N   1      35.332  18.285   9.235  0.00  0.00    -0.632 OA
BRANCH  21  23
HETATM   23  O   UNK N   1      34.309  18.060   6.771  0.00  0.00    -0.307 OA
HETATM   24  H   UNK N   1      34.448  18.007   5.812  0.00  0.00     0.222 HD
ENDBRANCH  21  23
BRANCH  21  25
HETATM   25  O   UNK N   1      32.864  17.430   9.126  0.00  0.00    -0.307 OA
HETATM   26  H   UNK N   1      32.737  17.638  10.066  0.00  0.00     0.222 HD
ENDBRANCH  21  25
ENDBRANCH  20  21
ENDBRANCH   3  20
BRANCH   1  27
HETATM   27  C   UNK N   1      37.386  13.762   8.439  0.00  0.00     0.198 C 
BRANCH  27  28
HETATM   28  O   UNK N   1      36.942  13.968   7.131  0.00  0.00    -0.398 OA
HETATM   29  H   UNK N   1      36.358  14.426   6.507  0.00  0.00     0.209 HD
ENDBRANCH  27  28
ENDBRANCH   1  27
TORSDOF 9
ENDMDL
MODEL 4
REMARK VINA RESULT:      -5.8      4.914      7.822
REMARK  9 active torsions:
REMARK  status: ('A' for Active; 'I' for Inactive)
REMARK    1  A    between atoms: C_4  and  C_3 
REMARK    2  A    between atoms: O_15  and  C_3 
REMARK    3  A    between atoms: C_6  and  O_16 
REMARK    4  A    between atoms: C_7  and  O_22 
REMARK    5  A    between atoms: C_8  and  N_14 
REMARK    6  A    between atoms: O_17  and  C_9 
REMARK    7  A    between atoms: P_23  and  O_18 
REMARK    8  A    between atoms: P_23  and  O_19 
REMARK    9  A    between atoms: P_23  and  O_22 
ROOT
HETATM    1  C   UNK N   1      33.812  17.031   8.158  0.00  0.00     0.180 C 
HETATM    2  C   UNK N   1      32.948  15.420   9.544  0.00  0.00     0.199 C 
HETATM    3  C   UNK N   1      32.537  16.759   8.959  0.00  0.00     0.197 C 
HETATM    4  C   UNK N   1      34.373  15.786   9.969  0.00  0.00     0.262 C 
HETATM    5  O   UNK N   1      34.914  16.528   8.893  0.00  0.00    -0.353 OA
ENDROOT
BRANCH   4   6
HETATM    6  N   UNK N   1      35.300  14.692  10.358  0.00  0.00    -0.293 N 
HETATM    7  C   UNK N   1      34.772  13.434  10.302  0.00  0.00     0.101 A 
HETATM    8  C   UNK N   1      35.530  12.315  10.627  0.00  0.00     0.065 A 
HETATM    9  C   UNK N   1      36.848  12.499  11.008  0.00  0.00     0.102 A 
HETATM   10  N   UNK N   1      37.575  11.491  11.306  0.00  0.00    -0.385 N 
HETATM   11  N   UNK N   1      37.366  13.749  11.058  0.00  0.00    -0.308 N 
HETATM   12  H   UNK N   1      38.523  11.612  11.541  0.00  0.00     0.157 HD
ATOM     13  HN  UNK N   1      37.170  10.555  11.302  1.00  0.00     0.157 HD
HETATM   14  C   UNK N   1      36.620  14.843  10.742  0.00  0.00     0.227 A 
ATOM     15  HN  UNK N   1      38.338  13.874  11.340  1.00  0.00     0.171 HD
BRANCH  14  16
HETATM   16  O   UNK N   1      37.205  16.048  10.803  0.00  0.00    -0.332 OA
HETATM   17  H   UNK N   1      37.507  16.382  11.624  0.00  0.00     0.221 HD
ENDBRANCH  14  16
ENDBRANCH   4   6
BRANCH   2  18
HETATM   18  O   UNK N   1      32.159  15.037  10.632  0.00  0.00    -0.388 OA
HETATM   19  H   UNK N   1      31.426  15.289  11.215  0.00  0.00     0.210 HD
ENDBRANCH   2  18
BRANCH   3  20
HETATM   20  O   UNK N   1      31.399  16.902   8.112  0.00  0.00    -0.286 OA
BRANCH  20  21
HETATM   21  P   UNK N   1      29.951  17.564   8.854  0.00  0.00     0.391 P 
HETATM   22  O   UNK N   1      30.172  19.068   9.166  0.00  0.00    -0.632 OA
BRANCH  21  23
HETATM   23  O   UNK N   1      28.517  17.394   7.890  0.00  0.00    -0.307 OA
HETATM   24  H   UNK N   1      27.572  17.194   7.800  0.00  0.00     0.222 HD
ENDBRANCH  21  23
BRANCH  21  25
HETATM   25  O   UNK N   1      29.705  16.807  10.396  0.00  0.00    -0.307 OA
HETATM   26  H   UNK N   1      29.947  15.886  10.581  0.00  0.00     0.222 HD
ENDBRANCH  21  25
ENDBRANCH  20  21
ENDBRANCH   3  20
BRANCH   1  27
HETATM   27  C   UNK N   1      34.003  18.510   7.837  0.00  0.00     0.198 C 
BRANCH  27  28
HETATM   28  O   UNK N   1      35.168  18.996   8.433  0.00  0.00    -0.398 OA
HETATM   29  H   UNK N   1      35.610  19.641   9.007  0.00  0.00     0.209 HD
ENDBRANCH  27  28
ENDBRANCH   1  27
TORSDOF 9
ENDMDL
MODEL 5
REMARK VINA RESULT:      -5.8      1.944      2.696
REMARK  9 active torsions:
REMARK  status: ('A' for Active; 'I' for Inactive)
REMARK    1  A    between atoms: C_4  and  C_3 
REMARK    2  A    between atoms: O_15  and  C_3 
REMARK    3  A    between atoms: C_6  and  O_16 
REMARK    4  A    between atoms: C_7  and  O_22 
REMARK    5  A    between atoms: C_8  and  N_14 
REMARK    6  A    between atoms: O_17  and  C_9 
REMARK    7  A    between atoms: P_23  and  O_18 
REMARK    8  A    between atoms: P_23  and  O_19 
REMARK    9  A    between atoms: P_23  and  O_22 
ROOT
HETATM    1  C   UNK N   1      33.232  14.451   7.536  0.00  0.00     0.180 C 
HETATM    2  C   UNK N   1      33.006  16.701   7.921  0.00  0.00     0.199 C 
HETATM    3  C   UNK N   1      33.624  15.488   8.591  0.00  0.00     0.197 C 
HETATM    4  C   UNK N   1      31.659  16.085   7.532  0.00  0.00     0.262 C 
HETATM    5  O   UNK N   1      31.960  14.801   7.020  0.00  0.00    -0.353 OA
ENDROOT
BRANCH   4   6
HETATM    6  N   UNK N   1      30.787  16.827   6.585  0.00  0.00    -0.293 N 
HETATM    7  C   UNK N   1      29.639  17.333   7.124  0.00  0.00     0.101 A 
HETATM    8  C   UNK N   1      28.737  18.060   6.356  0.00  0.00     0.065 A 
HETATM    9  C   UNK N   1      29.027  18.269   5.018  0.00  0.00     0.102 A 
HETATM   10  N   UNK N   1      28.223  18.938   4.285  0.00  0.00    -0.385 N 
HETATM   11  N   UNK N   1      30.169  17.766   4.491  0.00  0.00    -0.308 N 
HETATM   12  H   UNK N   1      28.442  19.123   3.344  0.00  0.00     0.157 HD
ATOM     13  HN  UNK N   1      27.347  19.283   4.677  1.00  0.00     0.157 HD
HETATM   14  C   UNK N   1      31.050  17.054   5.246  0.00  0.00     0.227 A 
ATOM     15  HN  UNK N   1      30.374  17.926   3.505  1.00  0.00     0.171 HD
BRANCH  14  16
HETATM   16  O   UNK N   1      32.165  16.598   4.657  0.00  0.00    -0.332 OA
HETATM   17  H   UNK N   1      32.180  15.742   4.278  0.00  0.00     0.221 HD
ENDBRANCH  14  16
ENDBRANCH   4   6
BRANCH   2  18
HETATM   18  O   UNK N   1      32.855  17.785   8.791  0.00  0.00    -0.388 OA
HETATM   19  H   UNK N   1      33.258  18.294   9.511  0.00  0.00     0.210 HD
ENDBRANCH   2  18
BRANCH   3  20
HETATM   20  O   UNK N   1      35.021  15.396   8.859  0.00  0.00    -0.286 OA
BRANCH  20  21
HETATM   21  P   UNK N   1      35.527  15.754  10.503  0.00  0.00     0.391 P 
HETATM   22  O   UNK N   1      34.869  14.742  11.478  0.00  0.00    -0.632 OA
BRANCH  21  23
HETATM   23  O   UNK N   1      37.247  15.728  10.740  0.00  0.00    -0.307 OA
HETATM   24  H   UNK N   1      38.120  16.145  10.676  0.00  0.00     0.222 HD
ENDBRANCH  21  23
BRANCH  21  25
HETATM   25  O   UNK N   1      34.903  17.306  10.964  0.00  0.00    -0.307 OA
HETATM   26  H   UNK N   1      34.611  17.516  11.866  0.00  0.00     0.222 HD
ENDBRANCH  21  25
ENDBRANCH  20  21
ENDBRANCH   3  20
BRANCH   1  27
HETATM   27  C   UNK N   1      33.224  13.027   8.083  0.00  0.00     0.198 C 
BRANCH  27  28
HETATM   28  O   UNK N   1      33.169  13.036   9.478  0.00  0.00    -0.398 OA
HETATM   29  H   UNK N   1      33.404  13.451  10.322  0.00  0.00     0.209 HD
ENDBRANCH  27  28
ENDBRANCH   1  27
TORSDOF 9
ENDMDL
MODEL 6
REMARK VINA RESULT:      -5.7      3.913      6.742
REMARK  9 active torsions:
REMARK  status: ('A' for Active; 'I' for Inactive)
REMARK    1  A    between atoms: C_4  and  C_3 
REMARK    2  A    between atoms: O_15  and  C_3 
REMARK    3  A    between atoms: C_6  and  O_16 
REMARK    4  A    between atoms: C_7  and  O_22 
REMARK    5  A    between atoms: C_8  and  N_14 
REMARK    6  A    between atoms: O_17  and  C_9 
REMARK    7  A    between atoms: P_23  and  O_18 
REMARK    8  A    between atoms: P_23  and  O_19 
REMARK    9  A    between atoms: P_23  and  O_22 
ROOT
HETATM    1  C   UNK N   1      31.479  16.441   5.964  0.00  0.00     0.180 C 
HETATM    2  C   UNK N   1      31.065  17.060   8.134  0.00  0.00     0.199 C 
HETATM    3  C   UNK N   1      30.446  17.242   6.760  0.00  0.00     0.197 C 
HETATM    4  C   UNK N   1      32.525  17.341   7.764  0.00  0.00     0.262 C 
HETATM    5  O   UNK N   1      32.752  16.649   6.551  0.00  0.00    -0.353 OA
ENDROOT
BRANCH   4   6
HETATM    6  N   UNK N   1      33.583  17.009   8.753  0.00  0.00    -0.293 N 
HETATM    7  C   UNK N   1      33.430  15.811   9.390  0.00  0.00     0.101 A 
HETATM    8  C   UNK N   1      34.352  15.367  10.330  0.00  0.00     0.065 A 
HETATM    9  C   UNK N   1      35.446  16.168  10.611  0.00  0.00     0.102 A 
HETATM   10  N   UNK N   1      36.316  15.788  11.465  0.00  0.00    -0.385 N 
HETATM   11  N   UNK N   1      35.593  17.354   9.973  0.00  0.00    -0.308 N 
HETATM   12  H   UNK N   1      37.116  16.335  11.641  0.00  0.00     0.157 HD
ATOM     13  HN  UNK N   1      36.182  14.911  11.970  1.00  0.00     0.157 HD
HETATM   14  C   UNK N   1      34.687  17.786   9.054  0.00  0.00     0.227 A 
ATOM     15  HN  UNK N   1      36.402  17.937  10.186  1.00  0.00     0.171 HD
BRANCH  14  16
HETATM   16  O   UNK N   1      34.906  18.966   8.454  0.00  0.00    -0.332 OA
HETATM   17  H   UNK N   1      35.414  19.624   8.886  0.00  0.00     0.221 HD
ENDBRANCH  14  16
ENDBRANCH   4   6
BRANCH   2  18
HETATM   18  O   UNK N   1      30.578  17.973   9.074  0.00  0.00    -0.388 OA
HETATM   19  H   UNK N   1      29.859  18.585   9.296  0.00  0.00     0.210 HD
ENDBRANCH   2  18
BRANCH   3  20
HETATM   20  O   UNK N   1      29.135  16.776   6.449  0.00  0.00    -0.286 OA
BRANCH  20  21
HETATM   21  P   UNK N   1      27.859  17.984   6.442  0.00  0.00     0.391 P 
HETATM   22  O   UNK N   1      28.231  19.122   5.456  0.00  0.00    -0.632 OA
BRANCH  21  23
HETATM   23  O   UNK N   1      26.294  17.361   6.019  0.00  0.00    -0.307 OA
HETATM   24  H   UNK N   1      25.368  17.493   5.762  0.00  0.00     0.222 HD
ENDBRANCH  21  23
BRANCH  21  25
HETATM   25  O   UNK N   1      27.780  18.737   8.003  0.00  0.00    -0.307 OA
HETATM   26  H   UNK N   1      27.718  18.237   8.832  0.00  0.00     0.222 HD
ENDBRANCH  21  25
ENDBRANCH  20  21
ENDBRANCH   3  20
BRANCH   1  27
HETATM   27  C   UNK N   1      31.497  16.807   4.484  0.00  0.00     0.198 C 
BRANCH  27  28
HETATM   28  O   UNK N   1      30.789  17.990   4.262  0.00  0.00    -0.398 OA
HETATM   29  H   UNK N   1      29.983  18.441   3.968  0.00  0.00     0.209 HD
ENDBRANCH  27  28
ENDBRANCH   1  27
TORSDOF 9
ENDMDL
MODEL 7
REMARK VINA RESULT:      -5.7      3.569      5.319
REMARK  9 active torsions:
REMARK  status: ('A' for Active; 'I' for Inactive)
REMARK    1  A    between atoms: C_4  and  C_3 
REMARK    2  A    between atoms: O_15  and  C_3 
REMARK    3  A    between atoms: C_6  and  O_16 
REMARK    4  A    between atoms: C_7  and  O_22 
REMARK    5  A    between atoms: C_8  and  N_14 
REMARK    6  A    between atoms: O_17  and  C_9 
REMARK    7  A    between atoms: P_23  and  O_18 
REMARK    8  A    between atoms: P_23  and  O_19 
REMARK    9  A    between atoms: P_23  and  O_22 
ROOT
HETATM    1  C   UNK N   1      36.399  14.868   9.714  0.00  0.00     0.180 C 
HETATM    2  C   UNK N   1      34.265  15.378  10.384  0.00  0.00     0.199 C 
HETATM    3  C   UNK N   1      35.462  14.597  10.893  0.00  0.00     0.197 C 
HETATM    4  C   UNK N   1      34.269  14.880   8.935  0.00  0.00     0.262 C 
HETATM    5  O   UNK N   1      35.624  14.899   8.528  0.00  0.00    -0.353 OA
ENDROOT
BRANCH   4   6
HETATM    6  N   UNK N   1      33.422  15.588   7.940  0.00  0.00    -0.293 N 
HETATM    7  C   UNK N   1      32.261  14.952   7.605  0.00  0.00     0.101 A 
HETATM    8  C   UNK N   1      31.367  15.505   6.696  0.00  0.00     0.065 A 
HETATM    9  C   UNK N   1      31.675  16.732   6.131  0.00  0.00     0.102 A 
HETATM   10  N   UNK N   1      30.873  17.272   5.297  0.00  0.00    -0.385 N 
HETATM   11  N   UNK N   1      32.827  17.358   6.470  0.00  0.00    -0.308 N 
HETATM   12  H   UNK N   1      31.068  18.161   4.921  0.00  0.00     0.157 HD
ATOM     13  HN  UNK N   1      30.024  16.780   5.017  1.00  0.00     0.157 HD
HETATM   14  C   UNK N   1      33.701  16.812   7.359  0.00  0.00     0.227 A 
ATOM     15  HN  UNK N   1      33.045  18.261   6.049  1.00  0.00     0.171 HD
BRANCH  14  16
HETATM   16  O   UNK N   1      34.815  17.497   7.655  0.00  0.00    -0.332 OA
HETATM   17  H   UNK N   1      34.952  17.820   8.523  0.00  0.00     0.221 HD
ENDBRANCH  14  16
ENDBRANCH   4   6
BRANCH   2  18
HETATM   18  O   UNK N   1      33.079  15.050  11.047  0.00  0.00    -0.388 OA
HETATM   19  H   UNK N   1      32.252  14.544  11.002  0.00  0.00     0.210 HD
ENDBRANCH   2  18
BRANCH   3  20
HETATM   20  O   UNK N   1      36.121  14.925  12.114  0.00  0.00    -0.286 OA
BRANCH  20  21
HETATM   21  P   UNK N   1      36.071  13.708  13.380  0.00  0.00     0.391 P 
HETATM   22  O   UNK N   1      36.426  14.364  14.741  0.00  0.00    -0.632 OA
BRANCH  21  23
HETATM   23  O   UNK N   1      34.544  12.896  13.527  0.00  0.00    -0.307 OA
HETATM   24  H   UNK N   1      33.576  12.885  13.454  0.00  0.00     0.222 HD
ENDBRANCH  21  23
BRANCH  21  25
HETATM   25  O   UNK N   1      37.322  12.540  13.095  0.00  0.00    -0.307 OA
HETATM   26  H   UNK N   1      38.211  12.608  13.477  0.00  0.00     0.222 HD
ENDBRANCH  21  25
ENDBRANCH  20  21
ENDBRANCH   3  20
BRANCH   1  27
HETATM   27  C   UNK N   1      37.521  13.840   9.603  0.00  0.00     0.198 C 
BRANCH  27  28
HETATM   28  O   UNK N   1      38.425  13.984  10.657  0.00  0.00    -0.398 OA
HETATM   29  H   UNK N   1      38.850  14.543  11.325  0.00  0.00     0.209 HD
ENDBRANCH  27  28
ENDBRANCH   1  27
TORSDOF 9
ENDMDL
MODEL 8
REMARK VINA RESULT:      -5.6      8.818     10.763
REMARK  9 active torsions:
REMARK  status: ('A' for Active; 'I' for Inactive)
REMARK    1  A    between atoms: C_4  and  C_3 
REMARK    2  A    between atoms: O_15  and  C_3 
REMARK    3  A    between atoms: C_6  and  O_16 
REMARK    4  A    between atoms: C_7  and  O_22 
REMARK    5  A    between atoms: C_8  and  N_14 
REMARK    6  A    between atoms: O_17  and  C_9 
REMARK    7  A    between atoms: P_23  and  O_18 
REMARK    8  A    between atoms: P_23  and  O_19 
REMARK    9  A    between atoms: P_23  and  O_22 
ROOT
HETATM    1  C   UNK N   1      34.667  12.097  12.929  0.00  0.00     0.180 C 
HETATM    2  C   UNK N   1      35.790  13.754  14.049  0.00  0.00     0.199 C 
HETATM    3  C   UNK N   1      35.710  13.180  12.646  0.00  0.00     0.197 C 
HETATM    4  C   UNK N   1      35.858  12.437  14.829  0.00  0.00     0.262 C 
HETATM    5  O   UNK N   1      34.895  11.590  14.232  0.00  0.00    -0.353 OA
ENDROOT
BRANCH   4   6
HETATM    6  N   UNK N   1      35.669  12.475  16.302  0.00  0.00    -0.293 N 
HETATM    7  C   UNK N   1      35.457  13.717  16.830  0.00  0.00     0.101 A 
HETATM    8  C   UNK N   1      35.252  13.899  18.193  0.00  0.00     0.065 A 
HETATM    9  C   UNK N   1      35.261  12.786  19.017  0.00  0.00     0.102 A 
HETATM   10  N   UNK N   1      35.069  12.917  20.273  0.00  0.00    -0.385 N 
HETATM   11  N   UNK N   1      35.469  11.558  18.485  0.00  0.00    -0.308 N 
HETATM   12  H   UNK N   1      35.036  12.126  20.858  0.00  0.00     0.157 HD
ATOM     13  HN  UNK N   1      34.949  13.848  20.673  1.00  0.00     0.157 HD
HETATM   14  C   UNK N   1      35.671  11.383  17.150  0.00  0.00     0.227 A 
ATOM     15  HN  UNK N   1      35.474  10.744  19.100  1.00  0.00     0.171 HD
BRANCH  14  16
HETATM   16  O   UNK N   1      35.858  10.135  16.696  0.00  0.00    -0.332 OA
HETATM   17  H   UNK N   1      35.745   9.404  17.271  0.00  0.00     0.221 HD
ENDBRANCH  14  16
ENDBRANCH   4   6
BRANCH   2  18
HETATM   18  O   UNK N   1      36.928  14.540  14.250  0.00  0.00    -0.388 OA
HETATM   19  H   UNK N   1      37.885  14.611  14.110  0.00  0.00     0.210 HD
ENDBRANCH   2  18
BRANCH   3  20
HETATM   20  O   UNK N   1      35.298  13.962  11.527  0.00  0.00    -0.286 OA
BRANCH  20  21
HETATM   21  P   UNK N   1      36.567  14.486  10.430  0.00  0.00     0.391 P 
HETATM   22  O   UNK N   1      37.811  13.577  10.610  0.00  0.00    -0.632 OA
BRANCH  21  23
HETATM   23  O   UNK N   1      36.105  14.485   8.757  0.00  0.00    -0.307 OA
HETATM   24  H   UNK N   1      35.476  14.695   8.048  0.00  0.00     0.222 HD
ENDBRANCH  21  23
BRANCH  21  25
HETATM   25  O   UNK N   1      37.091  16.075  10.886  0.00  0.00    -0.307 OA
HETATM   26  H   UNK N   1      37.459  16.716  10.256  0.00  0.00     0.222 HD
ENDBRANCH  21  25
ENDBRANCH  20  21
ENDBRANCH   3  20
BRANCH   1  27
HETATM   27  C   UNK N   1      34.689  10.973  11.897  0.00  0.00     0.198 C 
BRANCH  27  28
HETATM   28  O   UNK N   1      33.982  11.343  10.752  0.00  0.00    -0.398 OA
HETATM   29  H   UNK N   1      33.820  11.976  10.035  0.00  0.00     0.209 HD
ENDBRANCH  27  28
ENDBRANCH   1  27
TORSDOF 9
ENDMDL
MODEL 9
REMARK VINA RESULT:      -5.6     14.799     16.277
REMARK  9 active torsions:
REMARK  status: ('A' for Active; 'I' for Inactive)
REMARK    1  A    between atoms: C_4  and  C_3 
REMARK    2  A    between atoms: O_15  and  C_3 
REMARK    3  A    between atoms: C_6  and  O_16 
REMARK    4  A    between atoms: C_7  and  O_22 
REMARK    5  A    between atoms: C_8  and  N_14 
REMARK    6  A    between atoms: O_17  and  C_9 
REMARK    7  A    between atoms: P_23  and  O_18 
REMARK    8  A    between atoms: P_23  and  O_19 
REMARK    9  A    between atoms: P_23  and  O_22 
ROOT
HETATM    1  C   UNK N   1      25.890  22.738  -7.666  0.00  0.00     0.180 C 
HETATM    2  C   UNK N   1      27.626  23.426  -6.335  0.00  0.00     0.199 C 
HETATM    3  C   UNK N   1      27.199  22.186  -7.098  0.00  0.00     0.197 C 
HETATM    4  C   UNK N   1      26.283  23.767  -5.683  0.00  0.00     0.262 C 
HETATM    5  O   UNK N   1      25.312  23.597  -6.698  0.00  0.00    -0.353 OA
ENDROOT
BRANCH   4   6
HETATM    6  N   UNK N   1      26.125  25.095  -5.036  0.00  0.00    -0.293 N 
HETATM    7  C   UNK N   1      25.565  26.063  -5.821  0.00  0.00     0.101 A 
HETATM    8  C   UNK N   1      25.346  27.348  -5.340  0.00  0.00     0.065 A 
HETATM    9  C   UNK N   1      25.706  27.635  -4.034  0.00  0.00     0.102 A 
HETATM   10  N   UNK N   1      25.513  28.805  -3.559  0.00  0.00    -0.385 N 
HETATM   11  N   UNK N   1      26.258  26.670  -3.261  0.00  0.00    -0.308 N 
HETATM   12  H   UNK N   1      25.731  29.004  -2.620  0.00  0.00     0.157 HD
ATOM     13  HN  UNK N   1      25.130  29.539  -4.156  1.00  0.00     0.157 HD
HETATM   14  C   UNK N   1      26.472  25.412  -3.735  0.00  0.00     0.227 A 
ATOM     15  HN  UNK N   1      26.519  26.890  -2.300  1.00  0.00     0.171 HD
BRANCH  14  16
HETATM   16  O   UNK N   1      27.012  24.506  -2.907  0.00  0.00    -0.332 OA
HETATM   17  H   UNK N   1      26.813  24.530  -1.992  0.00  0.00     0.221 HD
ENDBRANCH  14  16
ENDBRANCH   4   6
BRANCH   2  18
HETATM   18  O   UNK N   1      28.618  23.165  -5.385  0.00  0.00    -0.388 OA
HETATM   19  H   UNK N   1      28.923  22.555  -4.695  0.00  0.00     0.210 HD
ENDBRANCH   2  18
BRANCH   3  20
HETATM   20  O   UNK N   1      27.983  21.633  -8.152  0.00  0.00    -0.286 OA
BRANCH  20  21
HETATM   21  P   UNK N   1      29.259  20.523  -7.676  0.00  0.00     0.391 P 
HETATM   22  O   UNK N   1      30.394  20.558  -8.733  0.00  0.00    -0.632 OA
BRANCH  21  23
HETATM   23  O   UNK N   1      29.937  20.847  -6.111  0.00  0.00    -0.307 OA
HETATM   24  H   UNK N   1      30.335  20.549  -5.278  0.00  0.00     0.222 HD
ENDBRANCH  21  23
BRANCH  21  25
HETATM   25  O   UNK N   1      28.646  18.901  -7.716  0.00  0.00    -0.307 OA
HETATM   26  H   UNK N   1      27.698  18.690  -7.737  0.00  0.00     0.222 HD
ENDBRANCH  21  25
ENDBRANCH  20  21
ENDBRANCH   3  20
BRANCH   1  27
HETATM   27  C   UNK N   1      24.912  21.639  -8.070  0.00  0.00     0.198 C 
BRANCH  27  28
HETATM   28  O   UNK N   1      23.607  22.135  -8.117  0.00  0.00    -0.398 OA
HETATM   29  H   UNK N   1      22.830  22.493  -7.661  0.00  0.00     0.209 HD
ENDBRANCH  27  28
ENDBRANCH   1  27
TORSDOF 9
ENDMDL
