MODEL 1
REMARK VINA RESULT:      -4.0      0.000      0.000
REMARK  1 active torsions:
REMARK  status: ('A' for Active; 'I' for Inactive)
REMARK    1  A    between atoms: C_2  and  N_3 
ROOT
HETATM    1  N   UNK N   1      26.020  25.724  -4.244  0.00  0.00    -0.289 N 
HETATM    2  C   UNK N   1      25.472  25.728  -5.460  0.00  0.00     0.226 A 
HETATM    3  O   UNK N   1      25.407  24.731  -6.164  0.00  0.00    -0.273 OA
HETATM    4  C   UNK N   1      24.948  27.067  -5.870  0.00  0.00     0.112 A 
HETATM    5  C   UNK N   1      25.282  27.943  -4.634  0.00  0.00     0.112 A 
HETATM    6  C   UNK N   1      25.944  26.958  -3.717  0.00  0.00     0.226 A 
HETATM    7  O   UNK N   1      26.366  27.258  -2.611  0.00  0.00    -0.273 OA
ENDROOT
BRANCH   1   8
HETATM    8  C   UNK N   1      26.591  24.515  -3.655  0.00  0.00     0.130 C 
HETATM    9  C   UNK N   1      28.092  24.343  -3.830  0.00  0.00     0.027 C 
ENDBRANCH   1   8
TORSDOF 1
ENDMDL
MODEL 2
REMARK VINA RESULT:      -4.0      0.073      2.455
REMARK  1 active torsions:
REMARK  status: ('A' for Active; 'I' for Inactive)
REMARK    1  A    between atoms: C_2  and  N_3 
ROOT
HETATM    1  N   UNK N   1      26.041  25.738  -4.246  0.00  0.00    -0.289 N 
HETATM    2  C   UNK N   1      25.953  26.964  -3.728  0.00  0.00     0.226 A 
HETATM    3  O   UNK N   1      26.394  27.253  -2.626  0.00  0.00    -0.273 OA
HETATM    4  C   UNK N   1      25.264  27.940  -4.628  0.00  0.00     0.112 A 
HETATM    5  C   UNK N   1      24.921  27.063  -5.861  0.00  0.00     0.112 A 
HETATM    6  C   UNK N   1      25.470  25.726  -5.463  0.00  0.00     0.226 A 
HETATM    7  O   UNK N   1      25.401  24.738  -6.178  0.00  0.00    -0.273 OA
ENDROOT
BRANCH   1   8
HETATM    8  C   UNK N   1      26.678  24.636  -3.528  0.00  0.00     0.130 C 
HETATM    9  C   UNK N   1      28.126  24.359  -3.897  0.00  0.00     0.027 C 
ENDBRANCH   1   8
TORSDOF 1
ENDMDL
MODEL 3
REMARK VINA RESULT:      -4.0     19.327     20.468
REMARK  1 active torsions:
REMARK  status: ('A' for Active; 'I' for Inactive)
REMARK    1  A    between atoms: C_2  and  N_3 
ROOT
HETATM    1  N   UNK N   1      23.256  12.126   9.943  0.00  0.00    -0.289 N 
HETATM    2  C   UNK N   1      21.932  12.262   9.863  0.00  0.00     0.226 A 
HETATM    3  O   UNK N   1      21.338  12.383   8.802  0.00  0.00    -0.273 OA
HETATM    4  C   UNK N   1      21.253  12.251  11.196  0.00  0.00     0.112 A 
HETATM    5  C   UNK N   1      22.447  12.075  12.171  0.00  0.00     0.112 A 
HETATM    6  C   UNK N   1      23.616  12.015  11.233  0.00  0.00     0.226 A 
HETATM    7  O   UNK N   1      24.768  11.878  11.614  0.00  0.00    -0.273 OA
ENDROOT
BRANCH   1   8
HETATM    8  C   UNK N   1      24.107  12.112   8.755  0.00  0.00     0.130 C 
HETATM    9  C   UNK N   1      24.813  13.420   8.435  0.00  0.00     0.027 C 
ENDBRANCH   1   8
TORSDOF 1
ENDMDL
MODEL 4
REMARK VINA RESULT:      -4.0     19.533     20.765
REMARK  1 active torsions:
REMARK  status: ('A' for Active; 'I' for Inactive)
REMARK    1  A    between atoms: C_2  and  N_3 
ROOT
HETATM    1  N   UNK N   1      23.030  12.433  10.177  0.00  0.00    -0.289 N 
HETATM    2  C   UNK N   1      23.561  12.094  11.353  0.00  0.00     0.226 A 
HETATM    3  O   UNK N   1      24.765  12.006  11.539  0.00  0.00    -0.273 OA
HETATM    4  C   UNK N   1      22.537  11.833  12.412  0.00  0.00     0.112 A 
HETATM    5  C   UNK N   1      21.208  12.083  11.652  0.00  0.00     0.112 A 
HETATM    6  C   UNK N   1      21.690  12.446  10.280  0.00  0.00     0.226 A 
HETATM    7  O   UNK N   1      20.935  12.722   9.360  0.00  0.00    -0.273 OA
ENDROOT
BRANCH   1   8
HETATM    8  C   UNK N   1      23.858  12.729   9.010  0.00  0.00     0.130 C 
HETATM    9  C   UNK N   1      23.946  11.626   7.968  0.00  0.00     0.027 C 
ENDBRANCH   1   8
TORSDOF 1
ENDMDL
MODEL 5
REMARK VINA RESULT:      -3.9     14.153     15.595
REMARK  1 active torsions:
REMARK  status: ('A' for Active; 'I' for Inactive)
REMARK    1  A    between atoms: C_2  and  N_3 
ROOT
HETATM    1  N   UNK N   1      32.349  17.084   6.281  0.00  0.00    -0.289 N 
HETATM    2  C   UNK N   1      31.289  17.113   7.091  0.00  0.00     0.226 A 
HETATM    3  O   UNK N   1      30.200  16.657   6.779  0.00  0.00    -0.273 OA
HETATM    4  C   UNK N   1      31.570  17.759   8.411  0.00  0.00     0.112 A 
HETATM    5  C   UNK N   1      33.066  18.146   8.275  0.00  0.00     0.112 A 
HETATM    6  C   UNK N   1      33.397  17.658   6.896  0.00  0.00     0.226 A 
HETATM    7  O   UNK N   1      34.504  17.774   6.396  0.00  0.00    -0.273 OA
ENDROOT
BRANCH   1   8
HETATM    8  C   UNK N   1      32.286  16.497   4.944  0.00  0.00     0.130 C 
HETATM    9  C   UNK N   1      32.168  17.485   3.796  0.00  0.00     0.027 C 
ENDBRANCH   1   8
TORSDOF 1
ENDMDL
MODEL 6
REMARK VINA RESULT:      -3.9     14.156     15.662
REMARK  1 active torsions:
REMARK  status: ('A' for Active; 'I' for Inactive)
REMARK    1  A    between atoms: C_2  and  N_3 
ROOT
HETATM    1  N   UNK N   1      32.384  17.084   6.283  0.00  0.00    -0.289 N 
HETATM    2  C   UNK N   1      33.405  17.665   6.916  0.00  0.00     0.226 A 
HETATM    3  O   UNK N   1      34.514  17.785   6.419  0.00  0.00    -0.273 OA
HETATM    4  C   UNK N   1      33.054  18.151   8.286  0.00  0.00     0.112 A 
HETATM    5  C   UNK N   1      31.560  17.751   8.404  0.00  0.00     0.112 A 
HETATM    6  C   UNK N   1      31.300  17.100   7.078  0.00  0.00     0.226 A 
HETATM    7  O   UNK N   1      30.214  16.637   6.764  0.00  0.00    -0.273 OA
ENDROOT
BRANCH   1   8
HETATM    8  C   UNK N   1      32.517  16.541   4.933  0.00  0.00     0.130 C 
HETATM    9  C   UNK N   1      32.178  17.499   3.802  0.00  0.00     0.027 C 
ENDBRANCH   1   8
TORSDOF 1
ENDMDL
MODEL 7
REMARK VINA RESULT:      -3.8     19.050     20.323
REMARK  1 active torsions:
REMARK  status: ('A' for Active; 'I' for Inactive)
REMARK    1  A    between atoms: C_2  and  N_3 
ROOT
HETATM    1  N   UNK N   1      22.327  12.868   9.946  0.00  0.00    -0.289 N 
HETATM    2  C   UNK N   1      22.027  12.271  11.100  0.00  0.00     0.226 A 
HETATM    3  O   UNK N   1      20.880  12.115  11.490  0.00  0.00    -0.273 OA
HETATM    4  C   UNK N   1      23.231  11.817  11.863  0.00  0.00     0.112 A 
HETATM    5  C   UNK N   1      24.393  12.257  10.934  0.00  0.00     0.112 A 
HETATM    6  C   UNK N   1      23.662  12.893   9.790  0.00  0.00     0.226 A 
HETATM    7  O   UNK N   1      24.229  13.378   8.824  0.00  0.00    -0.273 OA
ENDROOT
BRANCH   1   8
HETATM    8  C   UNK N   1      21.295  13.385   9.050  0.00  0.00     0.130 C 
HETATM    9  C   UNK N   1      20.922  14.846   9.248  0.00  0.00     0.027 C 
ENDBRANCH   1   8
TORSDOF 1
ENDMDL
MODEL 8
REMARK VINA RESULT:      -3.8     26.281     27.640
REMARK  1 active torsions:
REMARK  status: ('A' for Active; 'I' for Inactive)
REMARK    1  A    between atoms: C_2  and  N_3 
ROOT
HETATM    1  N   UNK N   1      35.275  12.731  17.319  0.00  0.00    -0.289 N 
HETATM    2  C   UNK N   1      35.291  11.426  17.595  0.00  0.00     0.226 A 
HETATM    3  O   UNK N   1      35.304  10.563  16.731  0.00  0.00    -0.273 OA
HETATM    4  C   UNK N   1      35.292  11.132  19.062  0.00  0.00     0.112 A 
HETATM    5  C   UNK N   1      35.273  12.553  19.683  0.00  0.00     0.112 A 
HETATM    6  C   UNK N   1      35.264  13.431  18.467  0.00  0.00     0.226 A 
HETATM    7  O   UNK N   1      35.248  14.650  18.525  0.00  0.00    -0.273 OA
ENDROOT
BRANCH   1   8
HETATM    8  C   UNK N   1      35.271  13.232  15.946  0.00  0.00     0.130 C 
HETATM    9  C   UNK N   1      36.628  13.624  15.384  0.00  0.00     0.027 C 
ENDBRANCH   1   8
TORSDOF 1
ENDMDL
MODEL 9
REMARK VINA RESULT:      -3.8      3.942      5.712
REMARK  1 active torsions:
REMARK  status: ('A' for Active; 'I' for Inactive)
REMARK    1  A    between atoms: C_2  and  N_3 
ROOT
HETATM    1  N   UNK N   1      29.589  23.156  -3.654  0.00  0.00    -0.289 N 
HETATM    2  C   UNK N   1      29.698  22.443  -4.776  0.00  0.00     0.226 A 
HETATM    3  O   UNK N   1      29.097  22.722  -5.802  0.00  0.00    -0.273 OA
HETATM    4  C   UNK N   1      30.625  21.277  -4.648  0.00  0.00     0.112 A 
HETATM    5  C   UNK N   1      31.099  21.393  -3.176  0.00  0.00     0.112 A 
HETATM    6  C   UNK N   1      30.364  22.610  -2.701  0.00  0.00     0.226 A 
HETATM    7  O   UNK N   1      30.465  23.050  -1.566  0.00  0.00    -0.273 OA
ENDROOT
BRANCH   1   8
HETATM    8  C   UNK N   1      28.733  24.338  -3.566  0.00  0.00     0.130 C 
HETATM    9  C   UNK N   1      27.302  24.082  -3.119  0.00  0.00     0.027 C 
ENDBRANCH   1   8
TORSDOF 1
ENDMDL
