MODEL 1
REMARK VINA RESULT:      -8.2      0.000      0.000
REMARK  4 active torsions:
REMARK  status: ('A' for Active; 'I' for Inactive)
REMARK    1  A    between atoms: C_7  and  C_8 
REMARK    2  A    between atoms: C_8  and  C_11 
REMARK    3  A    between atoms: C_14  and  C_18 
REMARK    4  A    between atoms: C_18  and  O_19 
ROOT
HETATM    1  C   UNK N   1      28.334  17.735   8.753  0.00  0.00     0.049 C 
HETATM    2  C   UNK N   1      29.333  17.269   7.756  0.00  0.00    -0.054 A 
HETATM    3  C   UNK N   1      30.658  17.398   8.143  0.00  0.00     0.015 A 
HETATM    4  C   UNK N   1      31.710  17.045   7.300  0.00  0.00    -0.043 A 
HETATM    5  C   UNK N   1      31.419  16.520   6.018  0.00  0.00    -0.043 A 
HETATM    6  C   UNK N   1      30.076  16.407   5.612  0.00  0.00     0.017 A 
HETATM    7  C   UNK N   1      29.011  16.761   6.460  0.00  0.00    -0.037 A 
HETATM    8  C   UNK N   1      32.526  16.051   5.087  0.00  0.00    -0.020 C 
HETATM    9  C   UNK N   1      32.204  14.672   4.537  0.00  0.00     0.020 C 
HETATM   10  C   UNK N   1      32.656  17.016   3.920  0.00  0.00     0.020 C 
HETATM   11  C   UNK N   1      33.866  15.908   5.811  0.00  0.00     0.015 C 
HETATM   12  C   UNK N   1      34.159  17.123   6.665  0.00  0.00     0.015 C 
HETATM   13  C   UNK N   1      33.132  17.270   7.785  0.00  0.00    -0.020 C 
HETATM   14  C   UNK N   1      33.441  16.302   8.917  0.00  0.00     0.020 C 
HETATM   15  C   UNK N   1      33.286  18.687   8.312  0.00  0.00     0.020 C 
ENDROOT
BRANCH   7  16
HETATM   16  C   UNK N   1      27.572  16.593   5.947  0.00  0.00     0.030 A 
HETATM   17  C   UNK N   1      26.692  15.841   6.938  0.00  0.00     0.022 A 
HETATM   18  C   UNK N   1      27.051  15.204   5.613  0.00  0.00     0.022 A 
BRANCH  16  19
HETATM   19  C   UNK N   1      26.833  17.762   5.372  0.00  0.00     0.022 A 
HETATM   20  C   UNK N   1      27.541  18.784   4.721  0.00  0.00     0.027 A 
HETATM   21  C   UNK N   1      26.845  19.729   3.973  0.00  0.00     0.022 A 
HETATM   22  C   UNK N   1      25.453  19.650   3.877  0.00  0.00     0.053 A 
HETATM   23  C   UNK N   1      24.777  18.653   4.592  0.00  0.00     0.106 A 
HETATM   24  N   UNK N   1      25.475  17.734   5.314  0.00  0.00    -0.367 N 
ATOM     25  HN  UNK N   1      24.968  17.010   5.822  1.00  0.00     0.165 HD
BRANCH  22  26
HETATM   26  C   UNK N   1      24.711  20.560   2.985  0.00  0.00     0.177 C 
HETATM   27  O   UNK N   1      25.213  20.937   1.936  0.00  0.00    -0.646 OA
BRANCH  26  28
HETATM   28  O   UNK N   1      23.456  20.937   3.293  0.00  0.00    -0.773 OA
HETATM   29  H   UNK N   1      22.784  21.583   3.382  0.00  0.00     0.167 HD
ENDBRANCH  26  28
ENDBRANCH  22  26
ENDBRANCH  16  19
ENDBRANCH   7  16
TORSDOF 4
ENDMDL
MODEL 2
REMARK VINA RESULT:      -8.1      5.291      8.805
REMARK  4 active torsions:
REMARK  status: ('A' for Active; 'I' for Inactive)
REMARK    1  A    between atoms: C_7  and  C_8 
REMARK    2  A    between atoms: C_8  and  C_11 
REMARK    3  A    between atoms: C_14  and  C_18 
REMARK    4  A    between atoms: C_18  and  O_19 
ROOT
HETATM    1  C   UNK N   1      33.341  15.445   5.462  0.00  0.00     0.049 C 
HETATM    2  C   UNK N   1      32.117  16.005   6.096  0.00  0.00    -0.054 A 
HETATM    3  C   UNK N   1      30.927  15.703   5.451  0.00  0.00     0.015 A 
HETATM    4  C   UNK N   1      29.702  16.190   5.900  0.00  0.00    -0.043 A 
HETATM    5  C   UNK N   1      29.666  17.002   7.059  0.00  0.00    -0.043 A 
HETATM    6  C   UNK N   1      30.873  17.329   7.705  0.00  0.00     0.017 A 
HETATM    7  C   UNK N   1      32.113  16.838   7.256  0.00  0.00    -0.037 A 
HETATM    8  C   UNK N   1      28.350  17.500   7.633  0.00  0.00    -0.020 C 
HETATM    9  C   UNK N   1      28.294  17.238   9.129  0.00  0.00     0.020 C 
HETATM   10  C   UNK N   1      28.224  18.997   7.402  0.00  0.00     0.020 C 
HETATM   11  C   UNK N   1      27.146  16.767   7.037  0.00  0.00     0.015 C 
HETATM   12  C   UNK N   1      27.248  16.685   5.529  0.00  0.00     0.015 C 
HETATM   13  C   UNK N   1      28.454  15.852   5.102  0.00  0.00    -0.020 C 
HETATM   14  C   UNK N   1      28.148  14.369   5.241  0.00  0.00     0.020 C 
HETATM   15  C   UNK N   1      28.676  16.159   3.630  0.00  0.00     0.020 C 
ENDROOT
BRANCH   7  16
HETATM   16  C   UNK N   1      33.384  17.231   8.025  0.00  0.00     0.030 A 
HETATM   17  C   UNK N   1      33.497  18.738   8.217  0.00  0.00     0.022 A 
HETATM   18  C   UNK N   1      34.477  18.017   7.318  0.00  0.00     0.022 A 
BRANCH  16  19
HETATM   19  C   UNK N   1      33.758  16.512   9.284  0.00  0.00     0.022 A 
HETATM   20  C   UNK N   1      33.304  15.202   9.502  0.00  0.00     0.027 A 
HETATM   21  C   UNK N   1      33.853  14.451  10.538  0.00  0.00     0.022 A 
HETATM   22  C   UNK N   1      34.848  15.007  11.346  0.00  0.00     0.053 A 
HETATM   23  C   UNK N   1      35.230  16.338  11.137  0.00  0.00     0.106 A 
HETATM   24  N   UNK N   1      34.687  17.056  10.116  0.00  0.00    -0.367 N 
ATOM     25  HN  UNK N   1      34.982  18.021   9.973  1.00  0.00     0.165 HD
BRANCH  22  26
HETATM   26  C   UNK N   1      35.534  14.186  12.361  0.00  0.00     0.177 C 
HETATM   27  O   UNK N   1      34.888  13.470  13.112  0.00  0.00    -0.646 OA
BRANCH  26  28
HETATM   28  O   UNK N   1      36.878  14.176  12.429  0.00  0.00    -0.773 OA
HETATM   29  H   UNK N   1      37.728  14.193  12.034  0.00  0.00     0.167 HD
ENDBRANCH  26  28
ENDBRANCH  22  26
ENDBRANCH  16  19
ENDBRANCH   7  16
TORSDOF 4
ENDMDL
MODEL 3
REMARK VINA RESULT:      -8.1      1.077      2.777
REMARK  4 active torsions:
REMARK  status: ('A' for Active; 'I' for Inactive)
REMARK    1  A    between atoms: C_7  and  C_8 
REMARK    2  A    between atoms: C_8  and  C_11 
REMARK    3  A    between atoms: C_14  and  C_18 
REMARK    4  A    between atoms: C_18  and  O_19 
ROOT
HETATM    1  C   UNK N   1      28.706  15.899   3.127  0.00  0.00     0.049 C 
HETATM    2  C   UNK N   1      29.311  16.257   4.437  0.00  0.00    -0.054 A 
HETATM    3  C   UNK N   1      30.694  16.357   4.440  0.00  0.00     0.015 A 
HETATM    4  C   UNK N   1      31.409  16.643   5.601  0.00  0.00    -0.043 A 
HETATM    5  C   UNK N   1      30.705  16.859   6.810  0.00  0.00    -0.043 A 
HETATM    6  C   UNK N   1      29.302  16.737   6.816  0.00  0.00     0.017 A 
HETATM    7  C   UNK N   1      28.576  16.449   5.646  0.00  0.00    -0.037 A 
HETATM    8  C   UNK N   1      31.429  17.245   8.089  0.00  0.00    -0.020 C 
HETATM    9  C   UNK N   1      30.749  18.438   8.740  0.00  0.00     0.020 C 
HETATM   10  C   UNK N   1      31.400  16.081   9.066  0.00  0.00     0.020 C 
HETATM   11  C   UNK N   1      32.871  17.681   7.824  0.00  0.00     0.015 C 
HETATM   12  C   UNK N   1      33.577  16.708   6.905  0.00  0.00     0.015 C 
HETATM   13  C   UNK N   1      32.926  16.682   5.525  0.00  0.00    -0.020 C 
HETATM   14  C   UNK N   1      33.363  17.890   4.711  0.00  0.00     0.020 C 
HETATM   15  C   UNK N   1      33.447  15.429   4.839  0.00  0.00     0.020 C 
ENDROOT
BRANCH   7  16
HETATM   16  C   UNK N   1      27.045  16.347   5.734  0.00  0.00     0.030 A 
HETATM   17  C   UNK N   1      26.578  15.883   7.108  0.00  0.00     0.022 A 
HETATM   18  C   UNK N   1      26.391  14.984   5.906  0.00  0.00     0.022 A 
BRANCH  16  19
HETATM   19  C   UNK N   1      26.182  17.466   5.238  0.00  0.00     0.022 A 
HETATM   20  C   UNK N   1      26.713  18.761   5.130  0.00  0.00     0.027 A 
HETATM   21  C   UNK N   1      26.000  19.736   4.437  0.00  0.00     0.022 A 
HETATM   22  C   UNK N   1      24.769  19.416   3.858  0.00  0.00     0.053 A 
HETATM   23  C   UNK N   1      24.245  18.131   4.041  0.00  0.00     0.106 A 
HETATM   24  N   UNK N   1      24.957  17.188   4.716  0.00  0.00    -0.367 N 
ATOM     25  HN  UNK N   1      24.564  16.255   4.834  1.00  0.00     0.165 HD
BRANCH  22  26
HETATM   26  C   UNK N   1      24.064  20.395   3.011  0.00  0.00     0.177 C 
HETATM   27  O   UNK N   1      24.660  20.978   2.117  0.00  0.00    -0.646 OA
BRANCH  26  28
HETATM   28  O   UNK N   1      22.746  20.612   3.179  0.00  0.00    -0.773 OA
HETATM   29  H   UNK N   1      21.858  20.591   2.880  0.00  0.00     0.167 HD
ENDBRANCH  26  28
ENDBRANCH  22  26
ENDBRANCH  16  19
ENDBRANCH   7  16
TORSDOF 4
ENDMDL
MODEL 4
REMARK VINA RESULT:      -7.9      4.372      7.841
REMARK  4 active torsions:
REMARK  status: ('A' for Active; 'I' for Inactive)
REMARK    1  A    between atoms: C_7  and  C_8 
REMARK    2  A    between atoms: C_8  and  C_11 
REMARK    3  A    between atoms: C_14  and  C_18 
REMARK    4  A    between atoms: C_18  and  O_19 
ROOT
HETATM    1  C   UNK N   1      30.441  14.132   5.020  0.00  0.00     0.049 C 
HETATM    2  C   UNK N   1      29.716  15.429   5.023  0.00  0.00    -0.054 A 
HETATM    3  C   UNK N   1      28.332  15.333   5.033  0.00  0.00     0.015 A 
HETATM    4  C   UNK N   1      27.515  16.460   4.994  0.00  0.00    -0.043 A 
HETATM    5  C   UNK N   1      28.111  17.743   4.965  0.00  0.00    -0.043 A 
HETATM    6  C   UNK N   1      29.515  17.846   4.933  0.00  0.00     0.017 A 
HETATM    7  C   UNK N   1      30.345  16.710   4.973  0.00  0.00    -0.037 A 
HETATM    8  C   UNK N   1      27.268  19.008   4.995  0.00  0.00    -0.020 C 
HETATM    9  C   UNK N   1      27.800  19.971   6.043  0.00  0.00     0.020 C 
HETATM   10  C   UNK N   1      27.321  19.692   3.639  0.00  0.00     0.020 C 
HETATM   11  C   UNK N   1      25.817  18.723   5.390  0.00  0.00     0.015 C 
HETATM   12  C   UNK N   1      25.261  17.547   4.617  0.00  0.00     0.015 C 
HETATM   13  C   UNK N   1      26.009  16.260   4.955  0.00  0.00    -0.020 C 
HETATM   14  C   UNK N   1      25.535  15.708   6.290  0.00  0.00     0.020 C 
HETATM   15  C   UNK N   1      25.643  15.263   3.867  0.00  0.00     0.020 C 
ENDROOT
BRANCH   7  16
HETATM   16  C   UNK N   1      31.869  16.909   4.949  0.00  0.00     0.030 A 
HETATM   17  C   UNK N   1      32.297  17.940   3.913  0.00  0.00     0.022 A 
HETATM   18  C   UNK N   1      32.662  16.484   3.723  0.00  0.00     0.022 A 
BRANCH  16  19
HETATM   19  C   UNK N   1      32.626  17.102   6.226  0.00  0.00     0.022 A 
HETATM   20  C   UNK N   1      31.936  17.419   7.406  0.00  0.00     0.027 A 
HETATM   21  C   UNK N   1      32.600  17.348   8.627  0.00  0.00     0.022 A 
HETATM   22  C   UNK N   1      33.943  16.962   8.665  0.00  0.00     0.053 A 
HETATM   23  C   UNK N   1      34.614  16.714   7.461  0.00  0.00     0.106 A 
HETATM   24  N   UNK N   1      33.947  16.783   6.277  0.00  0.00    -0.367 N 
ATOM     25  HN  UNK N   1      34.449  16.593   5.411  1.00  0.00     0.165 HD
BRANCH  22  26
HETATM   26  C   UNK N   1      34.625  16.754   9.955  0.00  0.00     0.177 C 
HETATM   27  O   UNK N   1      35.606  17.421  10.248  0.00  0.00    -0.646 OA
BRANCH  26  28
HETATM   28  O   UNK N   1      34.139  15.866  10.843  0.00  0.00    -0.773 OA
HETATM   29  H   UNK N   1      34.196  15.068  11.333  0.00  0.00     0.167 HD
ENDBRANCH  26  28
ENDBRANCH  22  26
ENDBRANCH  16  19
ENDBRANCH   7  16
TORSDOF 4
ENDMDL
MODEL 5
REMARK VINA RESULT:      -7.9      5.156      8.290
REMARK  4 active torsions:
REMARK  status: ('A' for Active; 'I' for Inactive)
REMARK    1  A    between atoms: C_7  and  C_8 
REMARK    2  A    between atoms: C_8  and  C_11 
REMARK    3  A    between atoms: C_14  and  C_18 
REMARK    4  A    between atoms: C_18  and  O_19 
ROOT
HETATM    1  C   UNK N   1      30.425  17.847   8.993  0.00  0.00     0.049 C 
HETATM    2  C   UNK N   1      30.678  17.405   7.596  0.00  0.00    -0.054 A 
HETATM    3  C   UNK N   1      29.544  17.240   6.814  0.00  0.00     0.015 A 
HETATM    4  C   UNK N   1      29.616  16.790   5.498  0.00  0.00    -0.043 A 
HETATM    5  C   UNK N   1      30.884  16.512   4.933  0.00  0.00    -0.043 A 
HETATM    6  C   UNK N   1      32.036  16.658   5.729  0.00  0.00     0.017 A 
HETATM    7  C   UNK N   1      31.968  17.113   7.058  0.00  0.00    -0.037 A 
HETATM    8  C   UNK N   1      31.025  16.089   3.480  0.00  0.00    -0.020 C 
HETATM    9  C   UNK N   1      32.101  16.913   2.792  0.00  0.00     0.020 C 
HETATM   10  C   UNK N   1      31.423  14.623   3.410  0.00  0.00     0.020 C 
HETATM   11  C   UNK N   1      29.742  16.331   2.682  0.00  0.00     0.015 C 
HETATM   12  C   UNK N   1      28.529  15.819   3.429  0.00  0.00     0.015 C 
HETATM   13  C   UNK N   1      28.320  16.588   4.731  0.00  0.00    -0.020 C 
HETATM   14  C   UNK N   1      27.678  17.938   4.453  0.00  0.00     0.020 C 
HETATM   15  C   UNK N   1      27.350  15.757   5.556  0.00  0.00     0.020 C 
ENDROOT
BRANCH   7  16
HETATM   16  C   UNK N   1      33.274  17.259   7.856  0.00  0.00     0.030 A 
HETATM   17  C   UNK N   1      33.559  18.708   8.231  0.00  0.00     0.022 A 
HETATM   18  C   UNK N   1      34.453  17.996   7.238  0.00  0.00     0.022 A 
BRANCH  16  19
HETATM   19  C   UNK N   1      33.559  16.352   9.012  0.00  0.00     0.022 A 
HETATM   20  C   UNK N   1      33.203  14.996   8.941  0.00  0.00     0.027 A 
HETATM   21  C   UNK N   1      33.692  14.110   9.897  0.00  0.00     0.022 A 
HETATM   22  C   UNK N   1      34.528  14.578  10.914  0.00  0.00     0.053 A 
HETATM   23  C   UNK N   1      34.810  15.948  10.988  0.00  0.00     0.106 A 
HETATM   24  N   UNK N   1      34.328  16.799  10.041  0.00  0.00    -0.367 N 
ATOM     25  HN  UNK N   1      34.549  17.792  10.105  1.00  0.00     0.165 HD
BRANCH  22  26
HETATM   26  C   UNK N   1      35.159  13.636  11.856  0.00  0.00     0.177 C 
HETATM   27  O   UNK N   1      36.357  13.400  11.781  0.00  0.00    -0.646 OA
BRANCH  26  28
HETATM   28  O   UNK N   1      34.433  13.071  12.839  0.00  0.00    -0.773 OA
HETATM   29  H   UNK N   1      33.619  12.874  13.258  0.00  0.00     0.167 HD
ENDBRANCH  26  28
ENDBRANCH  22  26
ENDBRANCH  16  19
ENDBRANCH   7  16
TORSDOF 4
ENDMDL
MODEL 6
REMARK VINA RESULT:      -7.8      2.516      3.484
REMARK  4 active torsions:
REMARK  status: ('A' for Active; 'I' for Inactive)
REMARK    1  A    between atoms: C_7  and  C_8 
REMARK    2  A    between atoms: C_8  and  C_11 
REMARK    3  A    between atoms: C_14  and  C_18 
REMARK    4  A    between atoms: C_18  and  O_19 
ROOT
HETATM    1  C   UNK N   1      28.406  18.409   8.561  0.00  0.00     0.049 C 
HETATM    2  C   UNK N   1      29.297  17.888   7.491  0.00  0.00    -0.054 A 
HETATM    3  C   UNK N   1      30.607  17.649   7.878  0.00  0.00     0.015 A 
HETATM    4  C   UNK N   1      31.571  17.200   6.978  0.00  0.00    -0.043 A 
HETATM    5  C   UNK N   1      31.200  16.961   5.633  0.00  0.00    -0.043 A 
HETATM    6  C   UNK N   1      29.877  17.222   5.230  0.00  0.00     0.017 A 
HETATM    7  C   UNK N   1      28.900  17.675   6.136  0.00  0.00    -0.037 A 
HETATM    8  C   UNK N   1      32.193  16.402   4.627  0.00  0.00    -0.020 C 
HETATM    9  C   UNK N   1      31.579  15.235   3.872  0.00  0.00     0.020 C 
HETATM   10  C   UNK N   1      32.569  17.481   3.625  0.00  0.00     0.020 C 
HETATM   11  C   UNK N   1      33.447  15.845   5.305  0.00  0.00     0.015 C 
HETATM   12  C   UNK N   1      33.988  16.812   6.335  0.00  0.00     0.015 C 
HETATM   13  C   UNK N   1      32.995  17.014   7.477  0.00  0.00    -0.020 C 
HETATM   14  C   UNK N   1      33.047  15.837   8.438  0.00  0.00     0.020 C 
HETATM   15  C   UNK N   1      33.455  18.259   8.218  0.00  0.00     0.020 C 
ENDROOT
BRANCH   7  16
HETATM   16  C   UNK N   1      27.474  17.923   5.620  0.00  0.00     0.030 A 
HETATM   17  C   UNK N   1      27.466  18.490   4.205  0.00  0.00     0.022 A 
HETATM   18  C   UNK N   1      27.005  19.348   5.364  0.00  0.00     0.022 A 
BRANCH  16  19
HETATM   19  C   UNK N   1      26.422  16.868   5.768  0.00  0.00     0.022 A 
HETATM   20  C   UNK N   1      26.718  15.677   6.448  0.00  0.00     0.027 A 
HETATM   21  C   UNK N   1      25.682  14.818   6.804  0.00  0.00     0.022 A 
HETATM   22  C   UNK N   1      24.363  15.149   6.482  0.00  0.00     0.053 A 
HETATM   23  C   UNK N   1      24.114  16.316   5.749  0.00  0.00     0.106 A 
HETATM   24  N   UNK N   1      25.138  17.147   5.414  0.00  0.00    -0.367 N 
ATOM     25  HN  UNK N   1      24.938  17.996   4.886  1.00  0.00     0.165 HD
BRANCH  22  26
HETATM   26  C   UNK N   1      23.245  14.319   6.965  0.00  0.00     0.177 C 
HETATM   27  O   UNK N   1      23.299  13.101   6.878  0.00  0.00    -0.646 OA
BRANCH  26  28
HETATM   28  O   UNK N   1      22.180  14.895   7.557  0.00  0.00    -0.773 OA
HETATM   29  H   UNK N   1      21.757  15.616   7.978  0.00  0.00     0.167 HD
ENDBRANCH  26  28
ENDBRANCH  22  26
ENDBRANCH  16  19
ENDBRANCH   7  16
TORSDOF 4
ENDMDL
MODEL 7
REMARK VINA RESULT:      -7.8      4.727      7.468
REMARK  4 active torsions:
REMARK  status: ('A' for Active; 'I' for Inactive)
REMARK    1  A    between atoms: C_7  and  C_8 
REMARK    2  A    between atoms: C_8  and  C_11 
REMARK    3  A    between atoms: C_14  and  C_18 
REMARK    4  A    between atoms: C_18  and  O_19 
ROOT
HETATM    1  C   UNK N   1      22.141  17.250   5.417  0.00  0.00     0.049 C 
HETATM    2  C   UNK N   1      23.621  17.208   5.287  0.00  0.00    -0.054 A 
HETATM    3  C   UNK N   1      24.216  18.408   4.925  0.00  0.00     0.015 A 
HETATM    4  C   UNK N   1      25.590  18.517   4.723  0.00  0.00    -0.043 A 
HETATM    5  C   UNK N   1      26.407  17.377   4.911  0.00  0.00    -0.043 A 
HETATM    6  C   UNK N   1      25.805  16.152   5.257  0.00  0.00     0.017 A 
HETATM    7  C   UNK N   1      24.418  16.037   5.464  0.00  0.00    -0.037 A 
HETATM    8  C   UNK N   1      27.919  17.457   4.774  0.00  0.00    -0.020 C 
HETATM    9  C   UNK N   1      28.592  16.801   5.968  0.00  0.00     0.020 C 
HETATM   10  C   UNK N   1      28.359  16.731   3.514  0.00  0.00     0.020 C 
HETATM   11  C   UNK N   1      28.420  18.903   4.757  0.00  0.00     0.015 C 
HETATM   12  C   UNK N   1      27.601  19.754   3.811  0.00  0.00     0.015 C 
HETATM   13  C   UNK N   1      26.150  19.857   4.277  0.00  0.00    -0.020 C 
HETATM   14  C   UNK N   1      26.029  20.862   5.412  0.00  0.00     0.020 C 
HETATM   15  C   UNK N   1      25.364  20.382   3.086  0.00  0.00     0.020 C 
ENDROOT
BRANCH   7  16
HETATM   16  C   UNK N   1      23.842  14.667   5.854  0.00  0.00     0.030 A 
HETATM   17  C   UNK N   1      24.358  13.549   4.956  0.00  0.00     0.022 A 
HETATM   18  C   UNK N   1      22.900  13.949   4.899  0.00  0.00     0.022 A 
BRANCH  16  19
HETATM   19  C   UNK N   1      23.837  14.229   7.286  0.00  0.00     0.022 A 
HETATM   20  C   UNK N   1      22.629  13.866   7.901  0.00  0.00     0.027 A 
HETATM   21  C   UNK N   1      22.656  13.223   9.135  0.00  0.00     0.022 A 
HETATM   22  C   UNK N   1      23.882  12.947   9.747  0.00  0.00     0.053 A 
HETATM   23  C   UNK N   1      25.063  13.380   9.131  0.00  0.00     0.106 A 
HETATM   24  N   UNK N   1      25.018  14.002   7.922  0.00  0.00    -0.367 N 
ATOM     25  HN  UNK N   1      25.887  14.305   7.484  1.00  0.00     0.165 HD
BRANCH  22  26
HETATM   26  C   UNK N   1      23.936  12.152  10.987  0.00  0.00     0.177 C 
HETATM   27  O   UNK N   1      23.022  11.392  11.273  0.00  0.00    -0.646 OA
BRANCH  26  28
HETATM   28  O   UNK N   1      25.019  12.215  11.786  0.00  0.00    -0.773 OA
HETATM   29  H   UNK N   1      25.428  12.204  12.629  0.00  0.00     0.167 HD
ENDBRANCH  26  28
ENDBRANCH  22  26
ENDBRANCH  16  19
ENDBRANCH   7  16
TORSDOF 4
ENDMDL
MODEL 8
REMARK VINA RESULT:      -7.8      4.401      7.009
REMARK  4 active torsions:
REMARK  status: ('A' for Active; 'I' for Inactive)
REMARK    1  A    between atoms: C_7  and  C_8 
REMARK    2  A    between atoms: C_8  and  C_11 
REMARK    3  A    between atoms: C_14  and  C_18 
REMARK    4  A    between atoms: C_18  and  O_19 
ROOT
HETATM    1  C   UNK N   1      22.133  19.146   3.682  0.00  0.00     0.049 C 
HETATM    2  C   UNK N   1      23.393  18.518   4.160  0.00  0.00    -0.054 A 
HETATM    3  C   UNK N   1      24.488  19.366   4.226  0.00  0.00     0.015 A 
HETATM    4  C   UNK N   1      25.748  18.914   4.614  0.00  0.00    -0.043 A 
HETATM    5  C   UNK N   1      25.912  17.555   4.972  0.00  0.00    -0.043 A 
HETATM    6  C   UNK N   1      24.809  16.684   4.885  0.00  0.00     0.017 A 
HETATM    7  C   UNK N   1      23.535  17.137   4.495  0.00  0.00    -0.037 A 
HETATM    8  C   UNK N   1      27.247  17.025   5.472  0.00  0.00    -0.020 C 
HETATM    9  C   UNK N   1      27.050  16.215   6.742  0.00  0.00     0.020 C 
HETATM   10  C   UNK N   1      27.868  16.124   4.417  0.00  0.00     0.020 C 
HETATM   11  C   UNK N   1      28.211  18.154   5.843  0.00  0.00     0.015 C 
HETATM   12  C   UNK N   1      28.257  19.212   4.762  0.00  0.00     0.015 C 
HETATM   13  C   UNK N   1      26.903  19.901   4.608  0.00  0.00    -0.020 C 
HETATM   14  C   UNK N   1      26.702  20.926   5.714  0.00  0.00     0.020 C 
HETATM   15  C   UNK N   1      26.955  20.636   3.278  0.00  0.00     0.020 C 
ENDROOT
BRANCH   7  16
HETATM   16  C   UNK N   1      22.378  16.126   4.440  0.00  0.00     0.030 A 
HETATM   17  C   UNK N   1      22.845  14.742   4.006  0.00  0.00     0.022 A 
HETATM   18  C   UNK N   1      21.945  15.553   3.099  0.00  0.00     0.022 A 
BRANCH  16  19
HETATM   19  C   UNK N   1      21.413  16.019   5.579  0.00  0.00     0.022 A 
HETATM   20  C   UNK N   1      21.886  16.034   6.900  0.00  0.00     0.027 A 
HETATM   21  C   UNK N   1      20.984  16.192   7.948  0.00  0.00     0.022 A 
HETATM   22  C   UNK N   1      19.621  16.334   7.675  0.00  0.00     0.053 A 
HETATM   23  C   UNK N   1      19.180  16.252   6.349  0.00  0.00     0.106 A 
HETATM   24  N   UNK N   1      20.077  16.103   5.336  0.00  0.00    -0.367 N 
ATOM     25  HN  UNK N   1      19.740  16.052   4.375  1.00  0.00     0.165 HD
BRANCH  22  26
HETATM   26  C   UNK N   1      18.668  16.633   8.760  0.00  0.00     0.177 C 
HETATM   27  O   UNK N   1      18.255  15.737   9.481  0.00  0.00    -0.646 OA
BRANCH  26  28
HETATM   28  O   UNK N   1      18.289  17.903   8.998  0.00  0.00    -0.773 OA
HETATM   29  H   UNK N   1      18.460  18.778   9.286  0.00  0.00     0.167 HD
ENDBRANCH  26  28
ENDBRANCH  22  26
ENDBRANCH  16  19
ENDBRANCH   7  16
TORSDOF 4
ENDMDL
MODEL 9
REMARK VINA RESULT:      -7.7      3.747      6.471
REMARK  4 active torsions:
REMARK  status: ('A' for Active; 'I' for Inactive)
REMARK    1  A    between atoms: C_7  and  C_8 
REMARK    2  A    between atoms: C_8  and  C_11 
REMARK    3  A    between atoms: C_14  and  C_18 
REMARK    4  A    between atoms: C_18  and  O_19 
ROOT
HETATM    1  C   UNK N   1      24.131  14.664   5.987  0.00  0.00     0.049 C 
HETATM    2  C   UNK N   1      24.534  16.025   5.544  0.00  0.00    -0.054 A 
HETATM    3  C   UNK N   1      25.900  16.221   5.407  0.00  0.00     0.015 A 
HETATM    4  C   UNK N   1      26.434  17.454   5.040  0.00  0.00    -0.043 A 
HETATM    5  C   UNK N   1      25.558  18.535   4.779  0.00  0.00    -0.043 A 
HETATM    6  C   UNK N   1      24.172  18.347   4.938  0.00  0.00     0.017 A 
HETATM    7  C   UNK N   1      23.628  17.102   5.307  0.00  0.00    -0.037 A 
HETATM    8  C   UNK N   1      26.082  19.881   4.306  0.00  0.00    -0.020 C 
HETATM    9  C   UNK N   1      25.294  20.359   3.099  0.00  0.00     0.020 C 
HETATM   10  C   UNK N   1      25.934  20.908   5.417  0.00  0.00     0.020 C 
HETATM   11  C   UNK N   1      27.540  19.802   3.846  0.00  0.00     0.015 C 
HETATM   12  C   UNK N   1      28.389  19.050   4.848  0.00  0.00     0.015 C 
HETATM   13  C   UNK N   1      27.945  17.594   4.965  0.00  0.00    -0.020 C 
HETATM   14  C   UNK N   1      28.473  16.784   3.791  0.00  0.00     0.020 C 
HETATM   15  C   UNK N   1      28.583  17.062   6.238  0.00  0.00     0.020 C 
ENDROOT
BRANCH   7  16
HETATM   16  C   UNK N   1      22.102  16.976   5.445  0.00  0.00     0.030 A 
HETATM   17  C   UNK N   1      21.534  17.958   6.462  0.00  0.00     0.022 A 
HETATM   18  C   UNK N   1      21.505  16.473   6.750  0.00  0.00     0.022 A 
BRANCH  16  19
HETATM   19  C   UNK N   1      21.235  16.923   4.225  0.00  0.00     0.022 A 
HETATM   20  C   UNK N   1      20.771  18.114   3.646  0.00  0.00     0.027 A 
HETATM   21  C   UNK N   1      20.186  18.078   2.383  0.00  0.00     0.022 A 
HETATM   22  C   UNK N   1      20.068  16.860   1.708  0.00  0.00     0.053 A 
HETATM   23  C   UNK N   1      20.487  15.685   2.344  0.00  0.00     0.106 A 
HETATM   24  N   UNK N   1      21.061  15.740   3.577  0.00  0.00    -0.367 N 
ATOM     25  HN  UNK N   1      21.367  14.876   4.023  1.00  0.00     0.165 HD
BRANCH  22  26
HETATM   26  C   UNK N   1      19.574  16.820   0.319  0.00  0.00     0.177 C 
HETATM   27  O   UNK N   1      20.261  17.257  -0.592  0.00  0.00    -0.646 OA
BRANCH  26  28
HETATM   28  O   UNK N   1      18.386  16.251   0.039  0.00  0.00    -0.773 OA
HETATM   29  H   UNK N   1      17.576  16.213  -0.431  0.00  0.00     0.167 HD
ENDBRANCH  26  28
ENDBRANCH  22  26
ENDBRANCH  16  19
ENDBRANCH   7  16
TORSDOF 4
ENDMDL
