MODEL 1
REMARK VINA RESULT:      -4.4      0.000      0.000
REMARK  1 active torsions:
REMARK  status: ('A' for Active; 'I' for Inactive)
REMARK    1  A    between atoms: O_1  and  C_2 
ROOT
HETATM    1  C   UNK N   1      24.147  12.247  10.978  0.00  0.00     0.067 A 
HETATM    2  C   UNK N   1      24.180  12.885   9.733  0.00  0.00     0.036 A 
HETATM    3  C   UNK N   1      22.986  13.267   9.111  0.00  0.00     0.004 A 
HETATM    4  C   UNK N   1      21.761  13.010   9.735  0.00  0.00     0.024 A 
HETATM    5  C   UNK N   1      21.731  12.372  10.979  0.00  0.00     0.036 A 
HETATM    6 Cl   UNK N   1      20.204  12.049  11.763  0.00  0.00    -0.084 Cl
HETATM    7  C   UNK N   1      22.924  11.991  11.600  0.00  0.00     0.060 A 
ENDROOT
BRANCH   1   8
HETATM    8  O   UNK N   1      25.291  11.879  11.576  0.00  0.00    -0.361 OA
HETATM    9  H   UNK N   1      25.738  11.104  11.297  0.00  0.00     0.217 HD
ENDBRANCH   1   8
TORSDOF 1
ENDMDL
MODEL 2
REMARK VINA RESULT:      -4.3     20.003     20.802
REMARK  1 active torsions:
REMARK  status: ('A' for Active; 'I' for Inactive)
REMARK    1  A    between atoms: O_1  and  C_2 
ROOT
HETATM    1  C   UNK N   1      25.643  27.649  -3.944  0.00  0.00     0.067 A 
HETATM    2  C   UNK N   1      25.075  27.424  -5.203  0.00  0.00     0.036 A 
HETATM    3  C   UNK N   1      25.185  26.166  -5.805  0.00  0.00     0.004 A 
HETATM    4  C   UNK N   1      25.862  25.135  -5.148  0.00  0.00     0.024 A 
HETATM    5  C   UNK N   1      26.430  25.362  -3.890  0.00  0.00     0.036 A 
HETATM    6 Cl   UNK N   1      27.278  24.077  -3.065  0.00  0.00    -0.084 Cl
HETATM    7  C   UNK N   1      26.320  26.619  -3.289  0.00  0.00     0.060 A 
ENDROOT
BRANCH   1   8
HETATM    8  O   UNK N   1      25.539  28.855  -3.364  0.00  0.00    -0.361 OA
HETATM    9  H   UNK N   1      24.711  29.148  -3.036  0.00  0.00     0.217 HD
ENDBRANCH   1   8
TORSDOF 1
ENDMDL
MODEL 3
REMARK VINA RESULT:      -4.2      2.283      2.850
REMARK  1 active torsions:
REMARK  status: ('A' for Active; 'I' for Inactive)
REMARK    1  A    between atoms: O_1  and  C_2 
ROOT
HETATM    1  C   UNK N   1      21.938  12.538   9.511  0.00  0.00     0.067 A 
HETATM    2  C   UNK N   1      23.123  12.508   8.767  0.00  0.00     0.036 A 
HETATM    3  C   UNK N   1      24.346  12.287   9.410  0.00  0.00     0.004 A 
HETATM    4  C   UNK N   1      24.382  12.097  10.794  0.00  0.00     0.024 A 
HETATM    5  C   UNK N   1      23.196  12.127  11.535  0.00  0.00     0.036 A 
HETATM    6 Cl   UNK N   1      23.236  11.890  13.266  0.00  0.00    -0.084 Cl
HETATM    7  C   UNK N   1      21.975  12.348  10.894  0.00  0.00     0.060 A 
ENDROOT
BRANCH   1   8
HETATM    8  O   UNK N   1      20.763  12.749   8.897  0.00  0.00    -0.361 OA
HETATM    9  H   UNK N   1      20.005  12.261   9.153  0.00  0.00     0.217 HD
ENDBRANCH   1   8
TORSDOF 1
ENDMDL
MODEL 4
REMARK VINA RESULT:      -4.2      3.021      3.899
REMARK  1 active torsions:
REMARK  status: ('A' for Active; 'I' for Inactive)
REMARK    1  A    between atoms: O_1  and  C_2 
ROOT
HETATM    1  C   UNK N   1      20.834  13.499   9.875  0.00  0.00     0.067 A 
HETATM    2  C   UNK N   1      20.542  12.642  10.941  0.00  0.00     0.036 A 
HETATM    3  C   UNK N   1      21.575  11.960  11.595  0.00  0.00     0.004 A 
HETATM    4  C   UNK N   1      22.898  12.137  11.180  0.00  0.00     0.024 A 
HETATM    5  C   UNK N   1      23.188  12.994  10.113  0.00  0.00     0.036 A 
HETATM    6 Cl   UNK N   1      24.840  13.218   9.591  0.00  0.00    -0.084 Cl
HETATM    7  C   UNK N   1      22.156  13.674   9.461  0.00  0.00     0.060 A 
ENDROOT
BRANCH   1   8
HETATM    8  O   UNK N   1      19.845  14.153   9.247  0.00  0.00    -0.361 OA
HETATM    9  H   UNK N   1      19.027  13.725   9.086  0.00  0.00     0.217 HD
ENDBRANCH   1   8
TORSDOF 1
ENDMDL
MODEL 5
REMARK VINA RESULT:      -4.2      1.801      2.479
REMARK  1 active torsions:
REMARK  status: ('A' for Active; 'I' for Inactive)
REMARK    1  A    between atoms: O_1  and  C_2 
ROOT
HETATM    1  C   UNK N   1      23.978  12.292  10.993  0.00  0.00     0.067 A 
HETATM    2  C   UNK N   1      22.837  11.898  11.702  0.00  0.00     0.036 A 
HETATM    3  C   UNK N   1      21.566  12.236  11.223  0.00  0.00     0.004 A 
HETATM    4  C   UNK N   1      21.438  12.966  10.038  0.00  0.00     0.024 A 
HETATM    5  C   UNK N   1      22.580  13.357   9.332  0.00  0.00     0.036 A 
HETATM    6 Cl   UNK N   1      22.426  14.270   7.850  0.00  0.00    -0.084 Cl
HETATM    7  C   UNK N   1      23.849  13.021   9.809  0.00  0.00     0.060 A 
ENDROOT
BRANCH   1   8
HETATM    8  O   UNK N   1      25.198  11.969  11.450  0.00  0.00    -0.361 OA
HETATM    9  H   UNK N   1      25.287  11.382  12.175  0.00  0.00     0.217 HD
ENDBRANCH   1   8
TORSDOF 1
ENDMDL
MODEL 6
REMARK VINA RESULT:      -4.0     19.849     20.756
REMARK  1 active torsions:
REMARK  status: ('A' for Active; 'I' for Inactive)
REMARK    1  A    between atoms: O_1  and  C_2 
ROOT
HETATM    1  C   UNK N   1      26.277  25.189  -3.752  0.00  0.00     0.067 A 
HETATM    2  C   UNK N   1      25.737  24.879  -5.005  0.00  0.00     0.036 A 
HETATM    3  C   UNK N   1      25.312  25.905  -5.857  0.00  0.00     0.004 A 
HETATM    4  C   UNK N   1      25.428  27.238  -5.455  0.00  0.00     0.024 A 
HETATM    5  C   UNK N   1      25.968  27.546  -4.202  0.00  0.00     0.036 A 
HETATM    6 Cl   UNK N   1      26.115  29.211  -3.694  0.00  0.00    -0.084 Cl
HETATM    7  C   UNK N   1      26.392  26.522  -3.351  0.00  0.00     0.060 A 
ENDROOT
BRANCH   1   8
HETATM    8  O   UNK N   1      26.685  24.207  -2.934  0.00  0.00    -0.361 OA
HETATM    9  H   UNK N   1      26.262  24.079  -2.107  0.00  0.00     0.217 HD
ENDBRANCH   1   8
TORSDOF 1
ENDMDL
MODEL 7
REMARK VINA RESULT:      -4.0     14.006     14.545
REMARK  1 active torsions:
REMARK  status: ('A' for Active; 'I' for Inactive)
REMARK    1  A    between atoms: O_1  and  C_2 
ROOT
HETATM    1  C   UNK N   1      35.301  12.638  19.189  0.00  0.00     0.067 A 
HETATM    2  C   UNK N   1      35.195  13.643  18.221  0.00  0.00     0.036 A 
HETATM    3  C   UNK N   1      35.098  13.302  16.867  0.00  0.00     0.004 A 
HETATM    4  C   UNK N   1      35.108  11.958  16.484  0.00  0.00     0.024 A 
HETATM    5  C   UNK N   1      35.215  10.956  17.454  0.00  0.00     0.036 A 
HETATM    6 Cl   UNK N   1      35.228   9.274  16.980  0.00  0.00    -0.084 Cl
HETATM    7  C   UNK N   1      35.311  11.296  18.806  0.00  0.00     0.060 A 
ENDROOT
BRANCH   1   8
HETATM    8  O   UNK N   1      35.394  12.963  20.488  0.00  0.00    -0.361 OA
HETATM    9  H   UNK N   1      34.618  13.133  20.986  0.00  0.00     0.217 HD
ENDBRANCH   1   8
TORSDOF 1
ENDMDL
MODEL 8
REMARK VINA RESULT:      -3.8     10.429     11.429
REMARK  1 active torsions:
REMARK  status: ('A' for Active; 'I' for Inactive)
REMARK    1  A    between atoms: O_1  and  C_2 
ROOT
HETATM    1  C   UNK N   1      20.672  19.969   1.147  0.00  0.00     0.067 A 
HETATM    2  C   UNK N   1      20.894  20.698   2.321  0.00  0.00     0.036 A 
HETATM    3  C   UNK N   1      20.894  20.046   3.560  0.00  0.00     0.004 A 
HETATM    4  C   UNK N   1      20.672  18.668   3.622  0.00  0.00     0.024 A 
HETATM    5  C   UNK N   1      20.450  17.942   2.447  0.00  0.00     0.036 A 
HETATM    6 Cl   UNK N   1      20.172  16.218   2.520  0.00  0.00    -0.084 Cl
HETATM    7  C   UNK N   1      20.450  18.592   1.211  0.00  0.00     0.060 A 
ENDROOT
BRANCH   1   8
HETATM    8  O   UNK N   1      20.672  20.592  -0.041  0.00  0.00    -0.361 OA
HETATM    9  H   UNK N   1      21.365  20.435  -0.653  0.00  0.00     0.217 HD
ENDBRANCH   1   8
TORSDOF 1
ENDMDL
MODEL 9
REMARK VINA RESULT:      -3.8     18.816     19.159
REMARK  1 active torsions:
REMARK  status: ('A' for Active; 'I' for Inactive)
REMARK    1  A    between atoms: O_1  and  C_2 
ROOT
HETATM    1  C   UNK N   1      31.624  21.665  -2.912  0.00  0.00     0.067 A 
HETATM    2  C   UNK N   1      30.918  22.847  -2.658  0.00  0.00     0.036 A 
HETATM    3  C   UNK N   1      29.940  23.285  -3.558  0.00  0.00     0.004 A 
HETATM    4  C   UNK N   1      29.671  22.541  -4.711  0.00  0.00     0.024 A 
HETATM    5  C   UNK N   1      30.379  21.361  -4.963  0.00  0.00     0.036 A 
HETATM    6 Cl   UNK N   1      30.046  20.429  -6.403  0.00  0.00    -0.084 Cl
HETATM    7  C   UNK N   1      31.354  20.924  -4.064  0.00  0.00     0.060 A 
ENDROOT
BRANCH   1   8
HETATM    8  O   UNK N   1      32.562  21.243  -2.050  0.00  0.00    -0.361 OA
HETATM    9  H   UNK N   1      33.091  21.866  -1.590  0.00  0.00     0.217 HD
ENDBRANCH   1   8
TORSDOF 1
ENDMDL
