MODEL 1
REMARK VINA RESULT:      -9.2      0.000      0.000
REMARK  5 active torsions:
REMARK  status: ('A' for Active; 'I' for Inactive)
REMARK    1  A    between atoms: N_3  and  C_14 
REMARK    2  A    between atoms: C_5  and  C_6 
REMARK    3  A    between atoms: C_6  and  C_7 
REMARK    4  A    between atoms: C_19  and  C_20 
REMARK    5  A    between atoms: C_30  and  C_32 
ROOT
HETATM    1  C   UNK N   1      28.454  18.151   6.595  0.00  0.00     0.118 A 
HETATM    2  N   UNK N   1      27.697  19.235   6.868  0.00  0.00    -0.285 N 
ATOM      3  HN  UNK N   1      27.924  19.820   7.672  1.00  0.00     0.188 HD
HETATM    4  N   UNK N   1      26.661  19.547   6.098  0.00  0.00    -0.298 N 
ATOM      5  HN  UNK N   1      26.106  20.367   6.344  1.00  0.00     0.187 HD
HETATM    6  C   UNK N   1      26.297  18.822   4.990  0.00  0.00     0.069 A 
HETATM    7  C   UNK N   1      27.144  17.726   4.599  0.00  0.00     0.007 A 
HETATM    8  C   UNK N   1      28.198  17.422   5.448  0.00  0.00     0.064 A 
ENDROOT
BRANCH   1   9
HETATM    9  N   UNK N   1      29.329  17.623   7.565  0.00  0.00    -0.363 N 
HETATM   10  C   UNK N   1      29.316  18.051   8.940  0.00  0.00     0.143 C 
HETATM   11  C   UNK N   1      30.772  18.268   9.362  0.00  0.00     0.134 C 
HETATM   12  N   UNK N   1      31.578  17.066   9.089  0.00  0.00    -0.414 N 
HETATM   13  C   UNK N   1      31.535  16.691   7.665  0.00  0.00     0.098 C 
HETATM   14  H   UNK N   1      32.103  16.556   9.800  0.00  0.00     0.153 HD
HETATM   15  C   UNK N   1      30.118  16.467   7.226  0.00  0.00     0.149 C 
BRANCH  13  16
HETATM   16  C   UNK N   1      32.228  17.710   6.771  0.00  0.00     0.065 C 
BRANCH  16  17
HETATM   17  C   UNK N   1      32.450  17.044   5.473  0.00  0.00    -0.056 A 
HETATM   18  C   UNK N   1      33.330  15.961   5.394  0.00  0.00     0.007 A 
HETATM   19  C   UNK N   1      33.647  15.416   4.149  0.00  0.00     0.001 A 
HETATM   20  C   UNK N   1      33.099  15.967   2.986  0.00  0.00     0.000 A 
HETATM   21  C   UNK N   1      32.223  17.053   3.069  0.00  0.00     0.001 A 
HETATM   22  C   UNK N   1      31.902  17.595   4.313  0.00  0.00     0.007 A 
ENDBRANCH  16  17
ENDBRANCH  13  16
ENDBRANCH   1   9
BRANCH   7  23
HETATM   23  C   UNK N   1      26.993  16.757   3.466  0.00  0.00    -0.021 A 
HETATM   24  C   UNK N   1      25.756  16.387   2.938  0.00  0.00     0.029 A 
HETATM   25  C   UNK N   1      25.679  15.396   1.955  0.00  0.00     0.088 A 
HETATM   26  N   UNK N   1      26.809  14.781   1.511  0.00  0.00    -0.375 N 
HETATM   27  C   UNK N   1      28.028  15.103   2.012  0.00  0.00     0.088 A 
ATOM     28  HN  UNK N   1      26.737  14.065   0.788  1.00  0.00     0.164 HD
HETATM   29  C   UNK N   1      28.138  16.076   3.004  0.00  0.00     0.029 A 
ENDBRANCH   7  23
BRANCH   6  30
HETATM   30  C   UNK N   1      25.036  19.265   4.328  0.00  0.00    -0.006 A 
HETATM   31  C   UNK N   1      23.874  18.523   4.606  0.00  0.00     0.026 A 
HETATM   32  C   UNK N   1      22.668  18.815   3.983  0.00  0.00    -0.025 A 
HETATM   33  C   UNK N   1      21.535  18.048   4.262  0.00  0.00     0.012 A 
HETATM   34  C   UNK N   1      22.595  19.877   3.061  0.00  0.00    -0.026 A 
HETATM   35  C   UNK N   1      20.326  18.337   3.625  0.00  0.00     0.001 A 
HETATM   36  C   UNK N   1      20.250  19.391   2.708  0.00  0.00     0.001 A 
HETATM   37  C   UNK N   1      21.384  20.163   2.426  0.00  0.00     0.012 A 
HETATM   38  C   UNK N   1      23.735  20.637   2.791  0.00  0.00     0.013 A 
HETATM   39  C   UNK N   1      24.946  20.329   3.424  0.00  0.00     0.014 A 
ENDBRANCH   6  30
TORSDOF 5
ENDMDL
MODEL 2
REMARK VINA RESULT:      -9.0      5.214      8.582
REMARK  5 active torsions:
REMARK  status: ('A' for Active; 'I' for Inactive)
REMARK    1  A    between atoms: N_3  and  C_14 
REMARK    2  A    between atoms: C_5  and  C_6 
REMARK    3  A    between atoms: C_6  and  C_7 
REMARK    4  A    between atoms: C_19  and  C_20 
REMARK    5  A    between atoms: C_30  and  C_32 
ROOT
HETATM    1  C   UNK N   1      35.110  15.808   9.558  0.00  0.00     0.118 A 
HETATM    2  N   UNK N   1      34.327  16.793  10.046  0.00  0.00    -0.285 N 
ATOM      3  HN  UNK N   1      34.594  17.270  10.907  1.00  0.00     0.188 HD
HETATM    4  N   UNK N   1      33.215  17.149   9.414  0.00  0.00    -0.298 N 
ATOM      5  HN  UNK N   1      32.644  17.890   9.822  1.00  0.00     0.187 HD
HETATM    6  C   UNK N   1      32.793  16.570   8.243  0.00  0.00     0.069 A 
HETATM    7  C   UNK N   1      33.655  15.594   7.629  0.00  0.00     0.007 A 
HETATM    8  C   UNK N   1      34.792  15.237   8.339  0.00  0.00     0.064 A 
ENDROOT
BRANCH   1   9
HETATM    9  N   UNK N   1      36.090  15.200  10.368  0.00  0.00    -0.363 N 
HETATM   10  C   UNK N   1      37.247  14.537   9.824  0.00  0.00     0.143 C 
HETATM   11  C   UNK N   1      37.405  13.212  10.575  0.00  0.00     0.134 C 
HETATM   12  N   UNK N   1      37.442  13.440  12.029  0.00  0.00    -0.414 N 
HETATM   13  C   UNK N   1      36.229  14.127  12.506  0.00  0.00     0.098 C 
HETATM   14  H   UNK N   1      38.213  13.156  12.634  0.00  0.00     0.153 HD
HETATM   15  C   UNK N   1      36.052  15.433  11.788  0.00  0.00     0.149 C 
BRANCH  13  16
HETATM   16  C   UNK N   1      34.981  13.264  12.382  0.00  0.00     0.065 C 
BRANCH  16  17
HETATM   17  C   UNK N   1      34.916  12.445  13.609  0.00  0.00    -0.056 A 
HETATM   18  C   UNK N   1      34.339  11.172  13.560  0.00  0.00     0.007 A 
HETATM   19  C   UNK N   1      34.152  10.452  14.740  0.00  0.00     0.001 A 
HETATM   20  C   UNK N   1      34.523  11.012  15.967  0.00  0.00     0.000 A 
HETATM   21  C   UNK N   1      35.095  12.287  16.012  0.00  0.00     0.001 A 
HETATM   22  C   UNK N   1      35.287  13.006  14.832  0.00  0.00     0.007 A 
ENDBRANCH  16  17
ENDBRANCH  13  16
ENDBRANCH   1   9
BRANCH   7  23
HETATM   23  C   UNK N   1      33.455  14.791   6.380  0.00  0.00    -0.021 A 
HETATM   24  C   UNK N   1      32.725  13.602   6.347  0.00  0.00     0.029 A 
HETATM   25  C   UNK N   1      32.668  12.845   5.173  0.00  0.00     0.088 A 
HETATM   26  N   UNK N   1      33.329  13.258   4.057  0.00  0.00    -0.375 N 
HETATM   27  C   UNK N   1      34.062  14.401   4.057  0.00  0.00     0.088 A 
ATOM     28  HN  UNK N   1      33.273  12.699   3.207  1.00  0.00     0.164 HD
HETATM   29  C   UNK N   1      34.151  15.171   5.215  0.00  0.00     0.029 A 
ENDBRANCH   7  23
BRANCH   6  30
HETATM   30  C   UNK N   1      31.459  17.025   7.754  0.00  0.00    -0.006 A 
HETATM   31  C   UNK N   1      31.180  16.833   6.390  0.00  0.00     0.026 A 
HETATM   32  C   UNK N   1      29.993  17.287   5.827  0.00  0.00    -0.025 A 
HETATM   33  C   UNK N   1      29.752  17.102   4.464  0.00  0.00     0.012 A 
HETATM   34  C   UNK N   1      29.044  17.945   6.632  0.00  0.00    -0.026 A 
HETATM   35  C   UNK N   1      28.563  17.570   3.900  0.00  0.00     0.001 A 
HETATM   36  C   UNK N   1      27.617  18.225   4.697  0.00  0.00     0.001 A 
HETATM   37  C   UNK N   1      27.856  18.411   6.064  0.00  0.00     0.012 A 
HETATM   38  C   UNK N   1      29.298  18.124   7.994  0.00  0.00     0.013 A 
HETATM   39  C   UNK N   1      30.499  17.664   8.547  0.00  0.00     0.014 A 
ENDBRANCH   6  30
TORSDOF 5
ENDMDL
MODEL 3
REMARK VINA RESULT:      -9.0      4.492      9.167
REMARK  5 active torsions:
REMARK  status: ('A' for Active; 'I' for Inactive)
REMARK    1  A    between atoms: N_3  and  C_14 
REMARK    2  A    between atoms: C_5  and  C_6 
REMARK    3  A    between atoms: C_6  and  C_7 
REMARK    4  A    between atoms: C_19  and  C_20 
REMARK    5  A    between atoms: C_30  and  C_32 
ROOT
HETATM    1  C   UNK N   1      24.257  15.292   5.870  0.00  0.00     0.118 A 
HETATM    2  N   UNK N   1      25.096  14.663   6.720  0.00  0.00    -0.285 N 
ATOM      3  HN  UNK N   1      24.822  13.770   7.131  1.00  0.00     0.188 HD
HETATM    4  N   UNK N   1      26.273  15.194   7.025  0.00  0.00    -0.298 N 
ATOM      5  HN  UNK N   1      26.874  14.693   7.680  1.00  0.00     0.187 HD
HETATM    6  C   UNK N   1      26.724  16.381   6.505  0.00  0.00     0.069 A 
HETATM    7  C   UNK N   1      25.911  17.029   5.509  0.00  0.00     0.007 A 
HETATM    8  C   UNK N   1      24.679  16.451   5.243  0.00  0.00     0.064 A 
ENDROOT
BRANCH   1   9
HETATM    9  N   UNK N   1      22.898  14.925   5.796  0.00  0.00    -0.363 N 
HETATM   10  C   UNK N   1      21.942  15.640   4.991  0.00  0.00     0.143 C 
HETATM   11  C   UNK N   1      20.687  15.838   5.846  0.00  0.00     0.134 C 
HETATM   12  N   UNK N   1      20.215  14.550   6.382  0.00  0.00    -0.414 N 
HETATM   13  C   UNK N   1      21.250  13.880   7.187  0.00  0.00     0.098 C 
HETATM   14  H   UNK N   1      19.283  14.170   6.217  0.00  0.00     0.153 HD
HETATM   15  C   UNK N   1      22.492  13.669   6.371  0.00  0.00     0.149 C 
BRANCH  13  16
HETATM   16  C   UNK N   1      21.566  14.629   8.475  0.00  0.00     0.065 C 
BRANCH  16  17
HETATM   17  C   UNK N   1      21.773  13.602   9.515  0.00  0.00    -0.056 A 
HETATM   18  C   UNK N   1      20.678  13.129  10.245  0.00  0.00     0.007 A 
HETATM   19  C   UNK N   1      20.885  12.262  11.319  0.00  0.00     0.001 A 
HETATM   20  C   UNK N   1      22.185  11.885  11.671  0.00  0.00     0.000 A 
HETATM   21  C   UNK N   1      23.277  12.364  10.942  0.00  0.00     0.001 A 
HETATM   22  C   UNK N   1      23.071  13.227   9.866  0.00  0.00     0.007 A 
ENDBRANCH  16  17
ENDBRANCH  13  16
ENDBRANCH   1   9
BRANCH   7  23
HETATM   23  C   UNK N   1      26.130  18.325   4.789  0.00  0.00    -0.021 A 
HETATM   24  C   UNK N   1      26.713  19.442   5.389  0.00  0.00     0.029 A 
HETATM   25  C   UNK N   1      26.788  20.653   4.695  0.00  0.00     0.088 A 
HETATM   26  N   UNK N   1      26.287  20.754   3.434  0.00  0.00    -0.375 N 
HETATM   27  C   UNK N   1      25.698  19.693   2.824  0.00  0.00     0.088 A 
ATOM     28  HN  UNK N   1      26.355  21.642   2.938  1.00  0.00     0.164 HD
HETATM   29  C   UNK N   1      25.594  18.476   3.493  0.00  0.00     0.029 A 
ENDBRANCH   7  23
BRANCH   6  30
HETATM   30  C   UNK N   1      28.020  16.867   7.061  0.00  0.00    -0.006 A 
HETATM   31  C   UNK N   1      29.158  16.726   6.248  0.00  0.00     0.026 A 
HETATM   32  C   UNK N   1      30.420  17.084   6.705  0.00  0.00    -0.025 A 
HETATM   33  C   UNK N   1      31.535  16.912   5.883  0.00  0.00     0.012 A 
HETATM   34  C   UNK N   1      30.570  17.608   8.004  0.00  0.00    -0.026 A 
HETATM   35  C   UNK N   1      32.804  17.263   6.351  0.00  0.00     0.001 A 
HETATM   36  C   UNK N   1      32.957  17.783   7.641  0.00  0.00     0.001 A 
HETATM   37  C   UNK N   1      31.841  17.957   8.468  0.00  0.00     0.012 A 
HETATM   38  C   UNK N   1      29.447  17.775   8.816  0.00  0.00     0.013 A 
HETATM   39  C   UNK N   1      28.181  17.406   8.343  0.00  0.00     0.014 A 
ENDBRANCH   6  30
TORSDOF 5
ENDMDL
MODEL 4
REMARK VINA RESULT:      -8.9      4.166      8.940
REMARK  5 active torsions:
REMARK  status: ('A' for Active; 'I' for Inactive)
REMARK    1  A    between atoms: N_3  and  C_14 
REMARK    2  A    between atoms: C_5  and  C_6 
REMARK    3  A    between atoms: C_6  and  C_7 
REMARK    4  A    between atoms: C_19  and  C_20 
REMARK    5  A    between atoms: C_30  and  C_32 
ROOT
HETATM    1  C   UNK N   1      25.877  14.904   4.803  0.00  0.00     0.118 A 
HETATM    2  N   UNK N   1      26.965  14.106   4.773  0.00  0.00    -0.285 N 
ATOM      3  HN  UNK N   1      26.850  13.099   4.658  1.00  0.00     0.188 HD
HETATM    4  N   UNK N   1      28.183  14.620   4.891  0.00  0.00    -0.298 N 
ATOM      5  HN  UNK N   1      28.980  13.982   4.875  1.00  0.00     0.187 HD
HETATM    6  C   UNK N   1      28.427  15.963   5.033  0.00  0.00     0.069 A 
HETATM    7  C   UNK N   1      27.302  16.860   4.956  0.00  0.00     0.007 A 
HETATM    8  C   UNK N   1      26.049  16.275   4.859  0.00  0.00     0.064 A 
ENDROOT
BRANCH   1   9
HETATM    9  N   UNK N   1      24.593  14.362   5.013  0.00  0.00    -0.363 N 
HETATM   10  C   UNK N   1      23.409  14.905   4.399  0.00  0.00     0.143 C 
HETATM   11  C   UNK N   1      22.331  14.985   5.484  0.00  0.00     0.134 C 
HETATM   12  N   UNK N   1      22.153  13.678   6.138  0.00  0.00    -0.414 N 
HETATM   13  C   UNK N   1      23.407  13.190   6.735  0.00  0.00     0.098 C 
HETATM   14  H   UNK N   1      21.267  13.173   6.174  0.00  0.00     0.153 HD
HETATM   15  C   UNK N   1      24.482  13.097   5.691  0.00  0.00     0.149 C 
BRANCH  13  16
HETATM   16  C   UNK N   1      23.865  14.040   7.912  0.00  0.00     0.065 C 
BRANCH  16  17
HETATM   17  C   UNK N   1      23.654  13.223   9.124  0.00  0.00    -0.056 A 
HETATM   18  C   UNK N   1      22.360  13.056   9.627  0.00  0.00     0.007 A 
HETATM   19  C   UNK N   1      22.171  12.401  10.845  0.00  0.00     0.001 A 
HETATM   20  C   UNK N   1      23.275  11.932  11.565  0.00  0.00     0.000 A 
HETATM   21  C   UNK N   1      24.567  12.106  11.060  0.00  0.00     0.001 A 
HETATM   22  C   UNK N   1      24.757  12.756   9.841  0.00  0.00     0.007 A 
ENDBRANCH  16  17
ENDBRANCH  13  16
ENDBRANCH   1   9
BRANCH   7  23
HETATM   23  C   UNK N   1      27.256  18.351   5.095  0.00  0.00    -0.021 A 
HETATM   24  C   UNK N   1      27.502  19.013   6.298  0.00  0.00     0.029 A 
HETATM   25  C   UNK N   1      27.335  20.399   6.384  0.00  0.00     0.088 A 
HETATM   26  N   UNK N   1      26.927  21.110   5.298  0.00  0.00    -0.375 N 
HETATM   27  C   UNK N   1      26.664  20.498   4.115  0.00  0.00     0.088 A 
ATOM     28  HN  UNK N   1      26.817  22.121   5.375  1.00  0.00     0.164 HD
HETATM   29  C   UNK N   1      26.806  19.117   3.999  0.00  0.00     0.029 A 
ENDBRANCH   7  23
BRANCH   6  30
HETATM   30  C   UNK N   1      29.853  16.329   5.268  0.00  0.00    -0.006 A 
HETATM   31  C   UNK N   1      30.235  16.588   6.597  0.00  0.00     0.026 A 
HETATM   32  C   UNK N   1      31.524  17.003   6.907  0.00  0.00    -0.025 A 
HETATM   33  C   UNK N   1      31.870  17.274   8.233  0.00  0.00     0.012 A 
HETATM   34  C   UNK N   1      32.474  17.163   5.880  0.00  0.00    -0.026 A 
HETATM   35  C   UNK N   1      33.163  17.703   8.540  0.00  0.00     0.001 A 
HETATM   36  C   UNK N   1      34.110  17.863   7.522  0.00  0.00     0.001 A 
HETATM   37  C   UNK N   1      33.767  17.592   6.192  0.00  0.00     0.012 A 
HETATM   38  C   UNK N   1      32.116  16.889   4.559  0.00  0.00     0.013 A 
HETATM   39  C   UNK N   1      30.812  16.474   4.259  0.00  0.00     0.014 A 
ENDBRANCH   6  30
TORSDOF 5
ENDMDL
MODEL 5
REMARK VINA RESULT:      -8.9      2.891      5.349
REMARK  5 active torsions:
REMARK  status: ('A' for Active; 'I' for Inactive)
REMARK    1  A    between atoms: N_3  and  C_14 
REMARK    2  A    between atoms: C_5  and  C_6 
REMARK    3  A    between atoms: C_6  and  C_7 
REMARK    4  A    between atoms: C_19  and  C_20 
REMARK    5  A    between atoms: C_30  and  C_32 
ROOT
HETATM    1  C   UNK N   1      31.817  16.176   4.697  0.00  0.00     0.118 A 
HETATM    2  N   UNK N   1      31.177  16.434   3.537  0.00  0.00    -0.285 N 
ATOM      3  HN  UNK N   1      31.594  16.137   2.654  1.00  0.00     0.188 HD
HETATM    4  N   UNK N   1      30.011  17.067   3.534  0.00  0.00    -0.298 N 
ATOM      5  HN  UNK N   1      29.564  17.253   2.635  1.00  0.00     0.187 HD
HETATM    6  C   UNK N   1      29.375  17.485   4.677  0.00  0.00     0.069 A 
HETATM    7  C   UNK N   1      29.967  17.131   5.941  0.00  0.00     0.007 A 
HETATM    8  C   UNK N   1      31.198  16.493   5.892  0.00  0.00     0.064 A 
ENDROOT
BRANCH   1   9
HETATM    9  N   UNK N   1      33.179  15.815   4.702  0.00  0.00    -0.363 N 
HETATM   10  C   UNK N   1      33.726  14.827   3.810  0.00  0.00     0.143 C 
HETATM   11  C   UNK N   1      34.633  13.916   4.642  0.00  0.00     0.134 C 
HETATM   12  N   UNK N   1      35.629  14.709   5.381  0.00  0.00    -0.414 N 
HETATM   13  C   UNK N   1      34.992  15.700   6.266  0.00  0.00     0.098 C 
HETATM   14  H   UNK N   1      36.638  14.587   5.292  0.00  0.00     0.153 HD
HETATM   15  C   UNK N   1      34.100  16.610   5.474  0.00  0.00     0.149 C 
BRANCH  13  16
HETATM   16  C   UNK N   1      34.230  15.054   7.414  0.00  0.00     0.065 C 
BRANCH  16  17
HETATM   17  C   UNK N   1      34.989  15.358   8.643  0.00  0.00    -0.056 A 
HETATM   18  C   UNK N   1      35.970  14.466   9.087  0.00  0.00     0.007 A 
HETATM   19  C   UNK N   1      36.594  14.679  10.317  0.00  0.00     0.001 A 
HETATM   20  C   UNK N   1      36.223  15.772  11.108  0.00  0.00     0.000 A 
HETATM   21  C   UNK N   1      35.238  16.659  10.662  0.00  0.00     0.001 A 
HETATM   22  C   UNK N   1      34.617  16.449   9.431  0.00  0.00     0.007 A 
ENDBRANCH  16  17
ENDBRANCH  13  16
ENDBRANCH   1   9
BRANCH   7  23
HETATM   23  C   UNK N   1      29.520  17.460   7.333  0.00  0.00    -0.021 A 
HETATM   24  C   UNK N   1      28.226  17.221   7.796  0.00  0.00     0.029 A 
HETATM   25  C   UNK N   1      27.845  17.653   9.070  0.00  0.00     0.088 A 
HETATM   26  N   UNK N   1      28.730  18.314   9.864  0.00  0.00    -0.375 N 
HETATM   27  C   UNK N   1      29.993  18.579   9.441  0.00  0.00     0.088 A 
ATOM     28  HN  UNK N   1      28.439  18.617  10.793  1.00  0.00     0.164 HD
HETATM   29  C   UNK N   1      30.400  18.175   8.171  0.00  0.00     0.029 A 
ENDBRANCH   7  23
BRANCH   6  30
HETATM   30  C   UNK N   1      28.133  18.281   4.458  0.00  0.00    -0.006 A 
HETATM   31  C   UNK N   1      26.921  17.572   4.398  0.00  0.00     0.026 A 
HETATM   32  C   UNK N   1      25.721  18.218   4.128  0.00  0.00    -0.025 A 
HETATM   33  C   UNK N   1      24.535  17.485   4.053  0.00  0.00     0.012 A 
HETATM   34  C   UNK N   1      25.708  19.610   3.918  0.00  0.00    -0.026 A 
HETATM   35  C   UNK N   1      23.332  18.137   3.770  0.00  0.00     0.001 A 
HETATM   36  C   UNK N   1      23.316  19.520   3.560  0.00  0.00     0.001 A 
HETATM   37  C   UNK N   1      24.503  20.258   3.635  0.00  0.00     0.012 A 
HETATM   38  C   UNK N   1      26.901  20.332   3.996  0.00  0.00     0.013 A 
HETATM   39  C   UNK N   1      28.104  19.668   4.265  0.00  0.00     0.014 A 
ENDBRANCH   6  30
TORSDOF 5
ENDMDL
MODEL 6
REMARK VINA RESULT:      -8.8      2.015      4.357
REMARK  5 active torsions:
REMARK  status: ('A' for Active; 'I' for Inactive)
REMARK    1  A    between atoms: N_3  and  C_14 
REMARK    2  A    between atoms: C_5  and  C_6 
REMARK    3  A    between atoms: C_6  and  C_7 
REMARK    4  A    between atoms: C_19  and  C_20 
REMARK    5  A    between atoms: C_30  and  C_32 
ROOT
HETATM    1  C   UNK N   1      29.405  15.364   3.769  0.00  0.00     0.118 A 
HETATM    2  N   UNK N   1      28.485  15.374   2.781  0.00  0.00    -0.285 N 
ATOM      3  HN  UNK N   1      28.654  14.840   1.929  1.00  0.00     0.188 HD
HETATM    4  N   UNK N   1      27.363  16.072   2.909  0.00  0.00    -0.298 N 
ATOM      5  HN  UNK N   1      26.698  16.063   2.135  1.00  0.00     0.187 HD
HETATM    6  C   UNK N   1      27.052  16.804   4.028  0.00  0.00     0.069 A 
HETATM    7  C   UNK N   1      27.952  16.730   5.149  0.00  0.00     0.007 A 
HETATM    8  C   UNK N   1      29.123  16.011   4.958  0.00  0.00     0.064 A 
ENDROOT
BRANCH   1   9
HETATM    9  N   UNK N   1      30.719  14.916   3.524  0.00  0.00    -0.363 N 
HETATM   10  C   UNK N   1      31.005  13.688   2.829  0.00  0.00     0.143 C 
HETATM   11  C   UNK N   1      32.100  12.965   3.619  0.00  0.00     0.134 C 
HETATM   12  N   UNK N   1      33.259  13.848   3.829  0.00  0.00    -0.414 N 
HETATM   13  C   UNK N   1      32.883  15.083   4.539  0.00  0.00     0.098 C 
HETATM   14  H   UNK N   1      34.207  13.631   3.522  0.00  0.00     0.153 HD
HETATM   15  C   UNK N   1      31.813  15.815   3.783  0.00  0.00     0.149 C 
BRANCH  13  16
HETATM   16  C   UNK N   1      32.455  14.824   5.977  0.00  0.00     0.065 C 
BRANCH  16  17
HETATM   17  C   UNK N   1      32.615  16.103   6.697  0.00  0.00    -0.056 A 
HETATM   18  C   UNK N   1      33.853  16.751   6.687  0.00  0.00     0.007 A 
HETATM   19  C   UNK N   1      34.048  17.885   7.476  0.00  0.00     0.001 A 
HETATM   20  C   UNK N   1      33.011  18.358   8.287  0.00  0.00     0.000 A 
HETATM   21  C   UNK N   1      31.775  17.704   8.298  0.00  0.00     0.001 A 
HETATM   22  C   UNK N   1      31.578  16.573   7.506  0.00  0.00     0.007 A 
ENDBRANCH  16  17
ENDBRANCH  13  16
ENDBRANCH   1   9
BRANCH   7  23
HETATM   23  C   UNK N   1      27.888  17.424   6.475  0.00  0.00    -0.021 A 
HETATM   24  C   UNK N   1      28.078  18.798   6.627  0.00  0.00     0.029 A 
HETATM   25  C   UNK N   1      28.114  19.366   7.904  0.00  0.00     0.088 A 
HETATM   26  N   UNK N   1      27.971  18.583   9.007  0.00  0.00    -0.375 N 
HETATM   27  C   UNK N   1      27.800  17.240   8.899  0.00  0.00     0.088 A 
ATOM     28  HN  UNK N   1      27.992  19.012   9.932  1.00  0.00     0.164 HD
HETATM   29  C   UNK N   1      27.774  16.641   7.642  0.00  0.00     0.029 A 
ENDBRANCH   7  23
BRANCH   6  30
HETATM   30  C   UNK N   1      25.802  17.612   3.931  0.00  0.00    -0.006 A 
HETATM   31  C   UNK N   1      24.584  16.927   4.089  0.00  0.00     0.026 A 
HETATM   32  C   UNK N   1      23.367  17.580   3.947  0.00  0.00    -0.025 A 
HETATM   33  C   UNK N   1      22.173  16.870   4.088  0.00  0.00     0.012 A 
HETATM   34  C   UNK N   1      23.341  18.955   3.646  0.00  0.00    -0.026 A 
HETATM   35  C   UNK N   1      20.950  17.527   3.932  0.00  0.00     0.001 A 
HETATM   36  C   UNK N   1      20.922  18.894   3.633  0.00  0.00     0.001 A 
HETATM   37  C   UNK N   1      22.117  19.609   3.491  0.00  0.00     0.012 A 
HETATM   38  C   UNK N   1      24.543  19.655   3.507  0.00  0.00     0.013 A 
HETATM   39  C   UNK N   1      25.763  18.983   3.650  0.00  0.00     0.014 A 
ENDBRANCH   6  30
TORSDOF 5
ENDMDL
MODEL 7
REMARK VINA RESULT:      -8.6      6.487     12.568
REMARK  5 active torsions:
REMARK  status: ('A' for Active; 'I' for Inactive)
REMARK    1  A    between atoms: N_3  and  C_14 
REMARK    2  A    between atoms: C_5  and  C_6 
REMARK    3  A    between atoms: C_6  and  C_7 
REMARK    4  A    between atoms: C_19  and  C_20 
REMARK    5  A    between atoms: C_30  and  C_32 
ROOT
HETATM    1  C   UNK N   1      33.989  14.809   9.060  0.00  0.00     0.118 A 
HETATM    2  N   UNK N   1      33.292  14.969  10.205  0.00  0.00    -0.285 N 
ATOM      3  HN  UNK N   1      32.419  15.496  10.195  1.00  0.00     0.188 HD
HETATM    4  N   UNK N   1      33.731  14.445  11.342  0.00  0.00    -0.298 N 
ATOM      5  HN  UNK N   1      33.181  14.597  12.189  1.00  0.00     0.187 HD
HETATM    6  C   UNK N   1      34.886  13.709  11.440  0.00  0.00     0.069 A 
HETATM    7  C   UNK N   1      35.600  13.419  10.224  0.00  0.00     0.007 A 
HETATM    8  C   UNK N   1      35.118  14.010   9.065  0.00  0.00     0.064 A 
ENDROOT
BRANCH   1   9
HETATM    9  N   UNK N   1      33.725  15.620   7.938  0.00  0.00    -0.363 N 
HETATM   10  C   UNK N   1      34.585  16.704   7.542  0.00  0.00     0.143 C 
HETATM   11  C   UNK N   1      33.688  17.902   7.221  0.00  0.00     0.134 C 
HETATM   12  N   UNK N   1      32.657  17.531   6.237  0.00  0.00    -0.414 N 
HETATM   13  C   UNK N   1      31.823  16.414   6.713  0.00  0.00     0.098 C 
HETATM   14  H   UNK N   1      32.534  17.993   5.336  0.00  0.00     0.153 HD
HETATM   15  C   UNK N   1      32.679  15.223   7.031  0.00  0.00     0.149 C 
BRANCH  13  16
HETATM   16  C   UNK N   1      30.958  16.797   7.906  0.00  0.00     0.065 C 
BRANCH  16  17
HETATM   17  C   UNK N   1      29.765  17.471   7.358  0.00  0.00    -0.056 A 
HETATM   18  C   UNK N   1      29.377  17.222   6.038  0.00  0.00     0.007 A 
HETATM   19  C   UNK N   1      28.335  17.958   5.473  0.00  0.00     0.001 A 
HETATM   20  C   UNK N   1      27.696  18.952   6.221  0.00  0.00     0.000 A 
HETATM   21  C   UNK N   1      28.091  19.201   7.539  0.00  0.00     0.001 A 
HETATM   22  C   UNK N   1      29.130  18.464   8.106  0.00  0.00     0.007 A 
ENDBRANCH  16  17
ENDBRANCH  13  16
ENDBRANCH   1   9
BRANCH   7  23
HETATM   23  C   UNK N   1      36.882  12.670  10.022  0.00  0.00    -0.021 A 
HETATM   24  C   UNK N   1      38.093  13.296   9.726  0.00  0.00     0.029 A 
HETATM   25  C   UNK N   1      39.229  12.532   9.442  0.00  0.00     0.088 A 
HETATM   26  N   UNK N   1      39.159  11.173   9.446  0.00  0.00    -0.375 N 
HETATM   27  C   UNK N   1      37.995  10.529   9.715  0.00  0.00     0.088 A 
ATOM     28  HN  UNK N   1      39.998  10.629   9.244  1.00  0.00     0.164 HD
HETATM   29  C   UNK N   1      36.841  11.261   9.987  0.00  0.00     0.029 A 
ENDBRANCH   7  23
BRANCH   6  30
HETATM   30  C   UNK N   1      35.269  13.308  12.824  0.00  0.00    -0.006 A 
HETATM   31  C   UNK N   1      34.706  12.120  13.324  0.00  0.00     0.026 A 
HETATM   32  C   UNK N   1      34.947  11.702  14.627  0.00  0.00    -0.025 A 
HETATM   33  C   UNK N   1      34.357  10.529  15.104  0.00  0.00     0.012 A 
HETATM   34  C   UNK N   1      35.777  12.470  15.466  0.00  0.00    -0.026 A 
HETATM   35  C   UNK N   1      34.593  10.118  16.418  0.00  0.00     0.001 A 
HETATM   36  C   UNK N   1      35.417  10.879  17.255  0.00  0.00     0.001 A 
HETATM   37  C   UNK N   1      36.010  12.054  16.779  0.00  0.00     0.012 A 
HETATM   38  C   UNK N   1      36.361  13.640  14.977  0.00  0.00     0.013 A 
HETATM   39  C   UNK N   1      36.106  14.052  13.663  0.00  0.00     0.014 A 
ENDBRANCH   6  30
TORSDOF 5
ENDMDL
MODEL 8
REMARK VINA RESULT:      -8.3      5.261      8.265
REMARK  5 active torsions:
REMARK  status: ('A' for Active; 'I' for Inactive)
REMARK    1  A    between atoms: N_3  and  C_14 
REMARK    2  A    between atoms: C_5  and  C_6 
REMARK    3  A    between atoms: C_6  and  C_7 
REMARK    4  A    between atoms: C_19  and  C_20 
REMARK    5  A    between atoms: C_30  and  C_32 
ROOT
HETATM    1  C   UNK N   1      33.511  14.292   9.284  0.00  0.00     0.118 A 
HETATM    2  N   UNK N   1      32.675  14.863  10.177  0.00  0.00    -0.285 N 
ATOM      3  HN  UNK N   1      32.733  14.602  11.162  1.00  0.00     0.188 HD
HETATM    4  N   UNK N   1      31.780  15.761   9.787  0.00  0.00    -0.298 N 
ATOM      5  HN  UNK N   1      31.158  16.162  10.491  1.00  0.00     0.187 HD
HETATM    6  C   UNK N   1      31.646  16.180   8.486  0.00  0.00     0.069 A 
HETATM    7  C   UNK N   1      32.591  15.681   7.522  0.00  0.00     0.007 A 
HETATM    8  C   UNK N   1      33.490  14.725   7.971  0.00  0.00     0.064 A 
ENDROOT
BRANCH   1   9
HETATM    9  N   UNK N   1      34.222  13.120   9.611  0.00  0.00    -0.363 N 
HETATM   10  C   UNK N   1      33.818  11.814   9.160  0.00  0.00     0.143 C 
HETATM   11  C   UNK N   1      33.914  10.869  10.360  0.00  0.00     0.134 C 
HETATM   12  N   UNK N   1      35.254  10.934  10.968  0.00  0.00    -0.414 N 
HETATM   13  C   UNK N   1      35.594  12.301  11.397  0.00  0.00     0.098 C 
HETATM   14  H   UNK N   1      35.871  10.129  11.079  0.00  0.00     0.153 HD
HETATM   15  C   UNK N   1      35.513  13.249  10.236  0.00  0.00     0.149 C 
BRANCH  13  16
HETATM   16  C   UNK N   1      34.731  12.782  12.555  0.00  0.00     0.065 C 
BRANCH  16  17
HETATM   17  C   UNK N   1      35.101  11.959  13.723  0.00  0.00    -0.056 A 
HETATM   18  C   UNK N   1      36.435  11.907  14.136  0.00  0.00     0.007 A 
HETATM   19  C   UNK N   1      36.812  11.027  15.151  0.00  0.00     0.001 A 
HETATM   20  C   UNK N   1      35.858  10.188  15.737  0.00  0.00     0.000 A 
HETATM   21  C   UNK N   1      34.526  10.239  15.317  0.00  0.00     0.001 A 
HETATM   22  C   UNK N   1      34.147  11.122  14.306  0.00  0.00     0.007 A 
ENDBRANCH  16  17
ENDBRANCH  13  16
ENDBRANCH   1   9
BRANCH   7  23
HETATM   23  C   UNK N   1      32.680  15.938   6.048  0.00  0.00    -0.021 A 
HETATM   24  C   UNK N   1      32.432  14.959   5.086  0.00  0.00     0.029 A 
HETATM   25  C   UNK N   1      32.640  15.236   3.731  0.00  0.00     0.088 A 
HETATM   26  N   UNK N   1      33.091  16.459   3.342  0.00  0.00    -0.375 N 
HETATM   27  C   UNK N   1      33.358  17.432   4.251  0.00  0.00     0.088 A 
ATOM     28  HN  UNK N   1      33.231  16.648   2.350  1.00  0.00     0.164 HD
HETATM   29  C   UNK N   1      33.176  17.183   5.610  0.00  0.00     0.029 A 
ENDBRANCH   7  23
BRANCH   6  30
HETATM   30  C   UNK N   1      30.505  17.106   8.231  0.00  0.00    -0.006 A 
HETATM   31  C   UNK N   1      30.006  17.158   6.917  0.00  0.00     0.026 A 
HETATM   32  C   UNK N   1      28.992  18.040   6.567  0.00  0.00    -0.025 A 
HETATM   33  C   UNK N   1      28.532  18.086   5.249  0.00  0.00     0.012 A 
HETATM   34  C   UNK N   1      28.441  18.896   7.540  0.00  0.00    -0.026 A 
HETATM   35  C   UNK N   1      27.520  18.983   4.898  0.00  0.00     0.001 A 
HETATM   36  C   UNK N   1      26.970  19.835   5.862  0.00  0.00     0.001 A 
HETATM   37  C   UNK N   1      27.429  19.791   7.184  0.00  0.00     0.012 A 
HETATM   38  C   UNK N   1      28.911  18.840   8.854  0.00  0.00     0.013 A 
HETATM   39  C   UNK N   1      29.935  17.948   9.193  0.00  0.00     0.014 A 
ENDBRANCH   6  30
TORSDOF 5
ENDMDL
MODEL 9
REMARK VINA RESULT:      -8.3      7.315     10.406
REMARK  5 active torsions:
REMARK  status: ('A' for Active; 'I' for Inactive)
REMARK    1  A    between atoms: N_3  and  C_14 
REMARK    2  A    between atoms: C_5  and  C_6 
REMARK    3  A    between atoms: C_6  and  C_7 
REMARK    4  A    between atoms: C_19  and  C_20 
REMARK    5  A    between atoms: C_30  and  C_32 
ROOT
HETATM    1  C   UNK N   1      20.493  16.092   4.695  0.00  0.00     0.118 A 
HETATM    2  N   UNK N   1      20.444  16.661   5.918  0.00  0.00    -0.285 N 
ATOM      3  HN  UNK N   1      20.230  17.655   6.004  1.00  0.00     0.188 HD
HETATM    4  N   UNK N   1      20.668  15.939   7.009  0.00  0.00    -0.298 N 
ATOM      5  HN  UNK N   1      20.633  16.409   7.915  1.00  0.00     0.187 HD
HETATM    6  C   UNK N   1      20.946  14.595   6.983  0.00  0.00     0.069 A 
HETATM    7  C   UNK N   1      20.897  13.926   5.709  0.00  0.00     0.007 A 
HETATM    8  C   UNK N   1      20.685  14.726   4.596  0.00  0.00     0.064 A 
ENDROOT
BRANCH   1   9
HETATM    9  N   UNK N   1      20.589  16.887   3.536  0.00  0.00    -0.363 N 
HETATM   10  C   UNK N   1      20.157  18.259   3.495  0.00  0.00     0.143 C 
HETATM   11  C   UNK N   1      19.356  18.445   2.203  0.00  0.00     0.134 C 
HETATM   12  N   UNK N   1      20.138  18.002   1.038  0.00  0.00    -0.414 N 
HETATM   13  C   UNK N   1      20.547  16.592   1.157  0.00  0.00     0.098 C 
HETATM   14  H   UNK N   1      20.368  18.599   0.243  0.00  0.00     0.153 HD
HETATM   15  C   UNK N   1      21.340  16.383   2.415  0.00  0.00     0.149 C 
BRANCH  13  16
HETATM   16  C   UNK N   1      19.367  15.633   1.092  0.00  0.00     0.065 C 
BRANCH  16  17
HETATM   17  C   UNK N   1      19.935  14.271   1.099  0.00  0.00    -0.056 A 
HETATM   18  C   UNK N   1      19.245  13.238   1.741  0.00  0.00     0.007 A 
HETATM   19  C   UNK N   1      19.840  11.983   1.869  0.00  0.00     0.001 A 
HETATM   20  C   UNK N   1      21.130  11.767   1.370  0.00  0.00     0.000 A 
HETATM   21  C   UNK N   1      21.818  12.804   0.732  0.00  0.00     0.001 A 
HETATM   22  C   UNK N   1      21.222  14.058   0.600  0.00  0.00     0.007 A 
ENDBRANCH  16  17
ENDBRANCH  13  16
ENDBRANCH   1   9
BRANCH   7  23
HETATM   23  C   UNK N   1      21.172  12.493   5.370  0.00  0.00    -0.021 A 
HETATM   24  C   UNK N   1      20.286  11.456   5.665  0.00  0.00     0.029 A 
HETATM   25  C   UNK N   1      20.652  10.128   5.421  0.00  0.00     0.088 A 
HETATM   26  N   UNK N   1      21.875   9.838   4.899  0.00  0.00    -0.375 N 
HETATM   27  C   UNK N   1      22.768  10.820   4.613  0.00  0.00     0.088 A 
ATOM     28  HN  UNK N   1      22.124   8.866   4.720  1.00  0.00     0.164 HD
HETATM   29  C   UNK N   1      22.441  12.152   4.859  0.00  0.00     0.029 A 
ENDBRANCH   7  23
BRANCH   6  30
HETATM   30  C   UNK N   1      21.285  13.990   8.303  0.00  0.00    -0.006 A 
HETATM   31  C   UNK N   1      22.637  13.684   8.538  0.00  0.00     0.026 A 
HETATM   32  C   UNK N   1      23.040  13.055   9.709  0.00  0.00    -0.025 A 
HETATM   33  C   UNK N   1      24.387  12.743   9.906  0.00  0.00     0.012 A 
HETATM   34  C   UNK N   1      22.085  12.721  10.688  0.00  0.00    -0.026 A 
HETATM   35  C   UNK N   1      24.786  12.099  11.079  0.00  0.00     0.001 A 
HETATM   36  C   UNK N   1      23.840  11.766  12.055  0.00  0.00     0.001 A 
HETATM   37  C   UNK N   1      22.489  12.078  11.861  0.00  0.00     0.012 A 
HETATM   38  C   UNK N   1      20.741  13.039  10.480  0.00  0.00     0.013 A 
HETATM   39  C   UNK N   1      20.348  13.670   9.293  0.00  0.00     0.014 A 
ENDBRANCH   6  30
TORSDOF 5
ENDMDL
