MODEL 1
REMARK VINA RESULT:      -7.6      0.000      0.000
REMARK  15 active torsions:
REMARK  status: ('A' for Active; 'I' for Inactive)
REMARK    1  A    between atoms: C_5  and  C_1 
REMARK    2  A    between atoms: C_7  and  C_1 
REMARK    3  A    between atoms: C_6  and  C_2 
REMARK    4  A    between atoms: O_31  and  C_2 
REMARK    5  A    between atoms: C_14  and  C_5 
REMARK    6  A    between atoms: C_5  and  N_15 
REMARK    7  A    between atoms: O_25  and  C_7 
REMARK    8  A    between atoms: C_9  and  O_26 
REMARK    9  A    between atoms: C_10  and  O_27 
REMARK   10  A    between atoms: N_16  and  C_11 
REMARK   11  A    between atoms: C_13  and  N_23 
REMARK   12  A    between atoms: O_33  and  C_14 
REMARK   13  A    between atoms: P_34  and  O_29 
REMARK   14  A    between atoms: P_34  and  O_31 
REMARK   15  A    between atoms: P_34  and  O_33 
ROOT
HETATM    1  C   UNK N   1      30.553  17.909   7.685  0.00  0.00     0.180 C 
HETATM    2  C   UNK N   1      29.652  17.915   8.912  0.00  0.00     0.182 C 
HETATM    3  C   UNK N   1      28.449  18.515   8.258  0.00  0.00     0.198 C 
HETATM    4  C   UNK N   1      28.426  17.690   6.963  0.00  0.00     0.262 C 
HETATM    5  O   UNK N   1      29.771  17.332   6.664  0.00  0.00    -0.353 OA
ENDROOT
BRANCH   1   6
HETATM    6  C   UNK N   1      31.871  17.173   7.863  0.00  0.00     0.215 C 
BRANCH   6   7
HETATM    7  O   UNK N   1      32.717  17.879   8.708  0.00  0.00    -0.294 OA
BRANCH   7   8
HETATM    8  P   UNK N   1      34.305  17.871   8.001  0.00  0.00     0.400 P 
HETATM    9  O   UNK N   1      34.181  17.950   6.458  0.00  0.00    -0.631 OA
BRANCH   8  10
HETATM   10  O   UNK N   1      35.299  19.173   8.578  0.00  0.00    -0.307 OA
HETATM   11  H   UNK N   1      35.056  20.101   8.440  0.00  0.00     0.222 HD
ENDBRANCH   8  10
BRANCH   8  12
HETATM   12  O   UNK N   1      35.019  16.366   8.404  0.00  0.00    -0.218 OA
BRANCH  12  13
HETATM   13  C   UNK N   1      35.136  16.025   9.707  0.00  0.00     0.290 C 
HETATM   14  O   UNK N   1      35.885  16.656  10.444  0.00  0.00    -0.262 OA
BRANCH  13  15
HETATM   15  C   UNK N   1      34.462  14.778  10.193  0.00  0.00     0.185 C 
BRANCH  15  16
HETATM   16  C   UNK N   1      34.437  13.715   9.090  0.00  0.00     0.144 C 
BRANCH  16  17
HETATM   17  C   UNK N   1      33.056  13.256   8.747  0.00  0.00     0.141 C 
HETATM   18  O   UNK N   1      32.455  13.791   7.832  0.00  0.00    -0.650 OA
BRANCH  17  19
HETATM   19  O   UNK N   1      32.459  12.284   9.462  0.00  0.00    -0.776 OA
HETATM   20  H   UNK N   1      31.864  11.643   9.125  0.00  0.00     0.167 HD
ENDBRANCH  17  19
ENDBRANCH  16  17
ENDBRANCH  15  16
BRANCH  15  21
HETATM   21  N   UNK N   1      33.095  15.121  10.556  0.00  0.00    -0.418 N 
HETATM   22  H   UNK N   1      32.418  15.628   9.987  0.00  0.00     0.150 HD
HETATM   23  H   UNK N   1      32.781  14.822  11.479  0.00  0.00     0.150 HD
ENDBRANCH  15  21
ENDBRANCH  13  15
ENDBRANCH  12  13
ENDBRANCH   8  12
ENDBRANCH   7   8
ENDBRANCH   6   7
ENDBRANCH   1   6
BRANCH   2  24
HETATM   24  O   UNK N   1      30.149  18.688   9.962  0.00  0.00    -0.390 OA
HETATM   25  H   UNK N   1      30.028  18.997  10.874  0.00  0.00     0.210 HD
ENDBRANCH   2  24
BRANCH   3  26
HETATM   26  O   UNK N   1      27.290  18.367   9.025  0.00  0.00    -0.388 OA
HETATM   27  H   UNK N   1      26.893  19.060   9.575  0.00  0.00     0.210 HD
ENDBRANCH   3  26
BRANCH   4  28
HETATM   28  N   UNK N   1      27.856  18.433   5.834  0.00  0.00    -0.297 N 
HETATM   29  C   UNK N   1      28.501  19.400   5.125  0.00  0.00     0.188 A 
HETATM   30  N   UNK N   1      27.712  19.910   4.142  0.00  0.00    -0.346 N 
HETATM   31  C   UNK N   1      26.552  19.242   4.268  0.00  0.00     0.122 A 
ATOM     32  HN  UNK N   1      27.947  20.634   3.463  1.00  0.00     0.167 HD
HETATM   33  C   UNK N   1      25.378  19.370   3.549  0.00  0.00     0.131 A 
HETATM   34  C   UNK N   1      26.640  18.355   5.278  0.00  0.00     0.142 A 
HETATM   35  N   UNK N   1      24.322  18.580   3.907  0.00  0.00    -0.337 N 
HETATM   36  C   UNK N   1      24.428  17.685   4.946  0.00  0.00     0.183 A 
ATOM     37  HN  UNK N   1      23.442  18.657   3.396  1.00  0.00     0.168 HD
HETATM   38  N   UNK N   1      25.601  17.563   5.642  0.00  0.00    -0.336 N 
ATOM     39  HN  UNK N   1      25.690  16.899   6.410  1.00  0.00     0.168 HD
BRANCH  33  40
HETATM   40  N   UNK N   1      25.266  20.290   2.487  0.00  0.00    -0.383 N 
HETATM   41  H   UNK N   1      25.828  20.188   1.685  0.00  0.00     0.157 HD
HETATM   42  H   UNK N   1      24.624  21.034   2.547  0.00  0.00     0.157 HD
ENDBRANCH  33  40
ENDBRANCH   4  28
TORSDOF 15
ENDMDL
MODEL 2
REMARK VINA RESULT:      -7.5      1.531      2.338
REMARK  15 active torsions:
REMARK  status: ('A' for Active; 'I' for Inactive)
REMARK    1  A    between atoms: C_5  and  C_1 
REMARK    2  A    between atoms: C_7  and  C_1 
REMARK    3  A    between atoms: C_6  and  C_2 
REMARK    4  A    between atoms: O_31  and  C_2 
REMARK    5  A    between atoms: C_14  and  C_5 
REMARK    6  A    between atoms: C_5  and  N_15 
REMARK    7  A    between atoms: O_25  and  C_7 
REMARK    8  A    between atoms: C_9  and  O_26 
REMARK    9  A    between atoms: C_10  and  O_27 
REMARK   10  A    between atoms: N_16  and  C_11 
REMARK   11  A    between atoms: C_13  and  N_23 
REMARK   12  A    between atoms: O_33  and  C_14 
REMARK   13  A    between atoms: P_34  and  O_29 
REMARK   14  A    between atoms: P_34  and  O_31 
REMARK   15  A    between atoms: P_34  and  O_33 
ROOT
HETATM    1  C   UNK N   1      30.334  17.631   7.645  0.00  0.00     0.180 C 
HETATM    2  C   UNK N   1      29.707  17.457   9.022  0.00  0.00     0.182 C 
HETATM    3  C   UNK N   1      28.285  17.662   8.607  0.00  0.00     0.198 C 
HETATM    4  C   UNK N   1      28.262  16.790   7.343  0.00  0.00     0.262 C 
HETATM    5  O   UNK N   1      29.575  16.803   6.794  0.00  0.00    -0.353 OA
ENDROOT
BRANCH   1   6
HETATM    6  C   UNK N   1      31.816  17.300   7.572  0.00  0.00     0.215 C 
BRANCH   6   7
HETATM    7  O   UNK N   1      32.557  18.196   8.332  0.00  0.00    -0.294 OA
BRANCH   7   8
HETATM    8  P   UNK N   1      34.237  17.942   7.969  0.00  0.00     0.400 P 
HETATM    9  O   UNK N   1      34.409  17.757   6.439  0.00  0.00    -0.631 OA
BRANCH   8  10
HETATM   10  O   UNK N   1      35.244  19.246   8.520  0.00  0.00    -0.307 OA
HETATM   11  H   UNK N   1      35.345  19.449   9.463  0.00  0.00     0.222 HD
ENDBRANCH   8  10
BRANCH   8  12
HETATM   12  O   UNK N   1      34.696  16.482   8.739  0.00  0.00    -0.218 OA
BRANCH  12  13
HETATM   13  C   UNK N   1      34.899  16.483  10.076  0.00  0.00     0.290 C 
HETATM   14  O   UNK N   1      35.677  17.285  10.580  0.00  0.00    -0.262 OA
BRANCH  13  15
HETATM   15  C   UNK N   1      34.285  15.395  10.903  0.00  0.00     0.185 C 
BRANCH  15  16
HETATM   16  C   UNK N   1      35.196  14.163  10.935  0.00  0.00     0.144 C 
BRANCH  16  17
HETATM   17  C   UNK N   1      35.746  13.874  12.295  0.00  0.00     0.141 C 
HETATM   18  O   UNK N   1      34.983  13.735  13.234  0.00  0.00    -0.650 OA
BRANCH  17  19
HETATM   19  O   UNK N   1      37.075  13.802  12.495  0.00  0.00    -0.776 OA
HETATM   20  H   UNK N   1      37.728  14.269  12.010  0.00  0.00     0.167 HD
ENDBRANCH  17  19
ENDBRANCH  16  17
ENDBRANCH  15  16
BRANCH  15  21
HETATM   21  N   UNK N   1      33.015  15.031  10.291  0.00  0.00    -0.418 N 
HETATM   22  H   UNK N   1      32.877  14.499   9.432  0.00  0.00     0.150 HD
HETATM   23  H   UNK N   1      32.172  15.343  10.773  0.00  0.00     0.150 HD
ENDBRANCH  15  21
ENDBRANCH  13  15
ENDBRANCH  12  13
ENDBRANCH   8  12
ENDBRANCH   7   8
ENDBRANCH   6   7
ENDBRANCH   1   6
BRANCH   2  24
HETATM   24  O   UNK N   1      30.147  18.396   9.956  0.00  0.00    -0.390 OA
HETATM   25  H   UNK N   1      30.714  19.164  10.134  0.00  0.00     0.210 HD
ENDBRANCH   2  24
BRANCH   3  26
HETATM   26  O   UNK N   1      27.375  17.242   9.581  0.00  0.00    -0.388 OA
HETATM   27  H   UNK N   1      26.422  17.420   9.567  0.00  0.00     0.210 HD
ENDBRANCH   3  26
BRANCH   4  28
HETATM   28  N   UNK N   1      27.309  17.282   6.340  0.00  0.00    -0.297 N 
HETATM   29  C   UNK N   1      26.368  16.523   5.714  0.00  0.00     0.188 A 
HETATM   30  N   UNK N   1      25.638  17.259   4.834  0.00  0.00    -0.346 N 
HETATM   31  C   UNK N   1      26.162  18.494   4.919  0.00  0.00     0.122 A 
ATOM     32  HN  UNK N   1      24.868  16.944   4.243  1.00  0.00     0.167 HD
HETATM   33  C   UNK N   1      25.829  19.643   4.227  0.00  0.00     0.131 A 
HETATM   34  C   UNK N   1      27.159  18.509   5.825  0.00  0.00     0.142 A 
HETATM   35  N   UNK N   1      26.549  20.775   4.484  0.00  0.00    -0.337 N 
HETATM   36  C   UNK N   1      27.569  20.769   5.408  0.00  0.00     0.183 A 
ATOM     37  HN  UNK N   1      26.327  21.637   3.985  1.00  0.00     0.168 HD
HETATM   38  N   UNK N   1      27.881  19.625   6.093  0.00  0.00    -0.336 N 
ATOM     39  HN  UNK N   1      28.631  19.613   6.782  1.00  0.00     0.168 HD
BRANCH  33  40
HETATM   40  N   UNK N   1      24.787  19.650   3.277  0.00  0.00    -0.383 N 
HETATM   41  H   UNK N   1      24.536  18.818   2.815  0.00  0.00     0.157 HD
HETATM   42  H   UNK N   1      24.311  20.488   3.076  0.00  0.00     0.157 HD
ENDBRANCH  33  40
ENDBRANCH   4  28
TORSDOF 15
ENDMDL
MODEL 3
REMARK VINA RESULT:      -7.2      3.905     10.392
REMARK  15 active torsions:
REMARK  status: ('A' for Active; 'I' for Inactive)
REMARK    1  A    between atoms: C_5  and  C_1 
REMARK    2  A    between atoms: C_7  and  C_1 
REMARK    3  A    between atoms: C_6  and  C_2 
REMARK    4  A    between atoms: O_31  and  C_2 
REMARK    5  A    between atoms: C_14  and  C_5 
REMARK    6  A    between atoms: C_5  and  N_15 
REMARK    7  A    between atoms: O_25  and  C_7 
REMARK    8  A    between atoms: C_9  and  O_26 
REMARK    9  A    between atoms: C_10  and  O_27 
REMARK   10  A    between atoms: N_16  and  C_11 
REMARK   11  A    between atoms: C_13  and  N_23 
REMARK   12  A    between atoms: O_33  and  C_14 
REMARK   13  A    between atoms: P_34  and  O_29 
REMARK   14  A    between atoms: P_34  and  O_31 
REMARK   15  A    between atoms: P_34  and  O_33 
ROOT
HETATM    1  C   UNK N   1      35.854  15.687  10.996  0.00  0.00     0.180 C 
HETATM    2  C   UNK N   1      36.726  14.735  10.189  0.00  0.00     0.182 C 
HETATM    3  C   UNK N   1      36.835  13.660  11.222  0.00  0.00     0.198 C 
HETATM    4  C   UNK N   1      35.368  13.588  11.670  0.00  0.00     0.262 C 
HETATM    5  O   UNK N   1      34.806  14.884  11.493  0.00  0.00    -0.353 OA
ENDROOT
BRANCH   1   6
HETATM    6  C   UNK N   1      35.323  16.880  10.218  0.00  0.00     0.215 C 
BRANCH   6   7
HETATM    7  O   UNK N   1      34.665  16.463   9.069  0.00  0.00    -0.294 OA
BRANCH   7   8
HETATM    8  P   UNK N   1      34.321  17.871   8.110  0.00  0.00     0.400 P 
HETATM    9  O   UNK N   1      35.236  19.038   8.565  0.00  0.00    -0.631 OA
BRANCH   8  10
HETATM   10  O   UNK N   1      34.532  17.589   6.409  0.00  0.00    -0.307 OA
HETATM   11  H   UNK N   1      33.823  17.764   5.771  0.00  0.00     0.222 HD
ENDBRANCH   8  10
BRANCH   8  12
HETATM   12  O   UNK N   1      32.697  18.308   8.434  0.00  0.00    -0.218 OA
BRANCH  12  13
HETATM   13  C   UNK N   1      31.700  17.562   7.905  0.00  0.00     0.290 C 
HETATM   14  O   UNK N   1      31.703  17.290   6.710  0.00  0.00    -0.262 OA
BRANCH  13  15
HETATM   15  C   UNK N   1      30.523  17.212   8.763  0.00  0.00     0.185 C 
BRANCH  15  16
HETATM   16  C   UNK N   1      29.231  17.229   7.940  0.00  0.00     0.144 C 
BRANCH  16  17
HETATM   17  C   UNK N   1      28.050  17.726   8.709  0.00  0.00     0.141 C 
HETATM   18  O   UNK N   1      27.482  16.979   9.486  0.00  0.00    -0.650 OA
BRANCH  17  19
HETATM   19  O   UNK N   1      27.590  18.978   8.526  0.00  0.00    -0.776 OA
HETATM   20  H   UNK N   1      28.042  19.767   8.754  0.00  0.00     0.167 HD
ENDBRANCH  17  19
ENDBRANCH  16  17
ENDBRANCH  15  16
BRANCH  15  21
HETATM   21  N   UNK N   1      30.428  18.208   9.820  0.00  0.00    -0.418 N 
HETATM   22  H   UNK N   1      30.554  19.216   9.727  0.00  0.00     0.150 HD
HETATM   23  H   UNK N   1      30.212  17.861  10.754  0.00  0.00     0.150 HD
ENDBRANCH  15  21
ENDBRANCH  13  15
ENDBRANCH  12  13
ENDBRANCH   8  12
ENDBRANCH   7   8
ENDBRANCH   6   7
ENDBRANCH   1   6
BRANCH   2  24
HETATM   24  O   UNK N   1      37.961  15.280   9.833  0.00  0.00    -0.390 OA
HETATM   25  H   UNK N   1      38.822  15.612  10.134  0.00  0.00     0.210 HD
ENDBRANCH   2  24
BRANCH   3  26
HETATM   26  O   UNK N   1      37.309  12.455  10.697  0.00  0.00    -0.388 OA
HETATM   27  H   UNK N   1      36.846  11.603  10.748  0.00  0.00     0.210 HD
ENDBRANCH   3  26
BRANCH   4  28
HETATM   28  N   UNK N   1      35.228  13.183  13.073  0.00  0.00    -0.297 N 
HETATM   29  C   UNK N   1      34.430  12.176  13.523  0.00  0.00     0.188 A 
HETATM   30  N   UNK N   1      34.508  12.042  14.874  0.00  0.00    -0.346 N 
HETATM   31  C   UNK N   1      35.367  13.005  15.253  0.00  0.00     0.122 A 
ATOM     32  HN  UNK N   1      34.025  11.366  15.465  1.00  0.00     0.167 HD
HETATM   33  C   UNK N   1      35.799  13.352  16.520  0.00  0.00     0.131 A 
HETATM   34  C   UNK N   1      35.801  13.684  14.174  0.00  0.00     0.142 A 
HETATM   35  N   UNK N   1      36.662  14.405  16.633  0.00  0.00    -0.337 N 
HETATM   36  C   UNK N   1      37.089  15.092  15.521  0.00  0.00     0.183 A 
ATOM     37  HN  UNK N   1      36.994  14.685  17.556  1.00  0.00     0.168 HD
HETATM   38  N   UNK N   1      36.660  14.729  14.271  0.00  0.00    -0.336 N 
ATOM     39  HN  UNK N   1      36.975  15.230  13.441  1.00  0.00     0.168 HD
BRANCH  33  40
HETATM   40  N   UNK N   1      35.359  12.652  17.662  0.00  0.00    -0.383 N 
HETATM   41  H   UNK N   1      34.858  13.124  18.366  0.00  0.00     0.157 HD
HETATM   42  H   UNK N   1      35.554  11.691  17.755  0.00  0.00     0.157 HD
ENDBRANCH  33  40
ENDBRANCH   4  28
TORSDOF 15
ENDMDL
MODEL 4
REMARK VINA RESULT:      -7.2      1.369      1.952
REMARK  15 active torsions:
REMARK  status: ('A' for Active; 'I' for Inactive)
REMARK    1  A    between atoms: C_5  and  C_1 
REMARK    2  A    between atoms: C_7  and  C_1 
REMARK    3  A    between atoms: C_6  and  C_2 
REMARK    4  A    between atoms: O_31  and  C_2 
REMARK    5  A    between atoms: C_14  and  C_5 
REMARK    6  A    between atoms: C_5  and  N_15 
REMARK    7  A    between atoms: O_25  and  C_7 
REMARK    8  A    between atoms: C_9  and  O_26 
REMARK    9  A    between atoms: C_10  and  O_27 
REMARK   10  A    between atoms: N_16  and  C_11 
REMARK   11  A    between atoms: C_13  and  N_23 
REMARK   12  A    between atoms: O_33  and  C_14 
REMARK   13  A    between atoms: P_34  and  O_29 
REMARK   14  A    between atoms: P_34  and  O_31 
REMARK   15  A    between atoms: P_34  and  O_33 
ROOT
HETATM    1  C   UNK N   1      30.495  18.071   7.859  0.00  0.00     0.180 C 
HETATM    2  C   UNK N   1      29.627  17.878   9.095  0.00  0.00     0.182 C 
HETATM    3  C   UNK N   1      28.347  18.376   8.504  0.00  0.00     0.198 C 
HETATM    4  C   UNK N   1      28.394  17.651   7.150  0.00  0.00     0.262 C 
HETATM    5  O   UNK N   1      29.765  17.481   6.808  0.00  0.00    -0.353 OA
ENDROOT
BRANCH   1   6
HETATM    6  C   UNK N   1      31.895  17.488   7.964  0.00  0.00     0.215 C 
BRANCH   6   7
HETATM    7  O   UNK N   1      32.734  18.349   8.659  0.00  0.00    -0.294 OA
BRANCH   7   8
HETATM    8  P   UNK N   1      34.373  17.951   8.241  0.00  0.00     0.400 P 
HETATM    9  O   UNK N   1      34.507  17.881   6.697  0.00  0.00    -0.631 OA
BRANCH   8  10
HETATM   10  O   UNK N   1      35.520  19.087   8.879  0.00  0.00    -0.307 OA
HETATM   11  H   UNK N   1      35.987  19.717   8.308  0.00  0.00     0.222 HD
ENDBRANCH   8  10
BRANCH   8  12
HETATM   12  O   UNK N   1      34.681  16.389   8.875  0.00  0.00    -0.218 OA
BRANCH  12  13
HETATM   13  C   UNK N   1      35.151  16.276  10.138  0.00  0.00     0.290 C 
HETATM   14  O   UNK N   1      36.203  16.818  10.454  0.00  0.00    -0.262 OA
BRANCH  13  15
HETATM   15  C   UNK N   1      34.452  15.356  11.092  0.00  0.00     0.185 C 
BRANCH  15  16
HETATM   16  C   UNK N   1      35.289  14.097  11.338  0.00  0.00     0.144 C 
BRANCH  16  17
HETATM   17  C   UNK N   1      35.980  14.099  12.663  0.00  0.00     0.141 C 
HETATM   18  O   UNK N   1      36.040  13.069  13.311  0.00  0.00    -0.650 OA
BRANCH  17  19
HETATM   19  O   UNK N   1      36.505  15.235  13.160  0.00  0.00    -0.776 OA
HETATM   20  H   UNK N   1      37.170  15.289  13.818  0.00  0.00     0.167 HD
ENDBRANCH  17  19
ENDBRANCH  16  17
ENDBRANCH  15  16
BRANCH  15  21
HETATM   21  N   UNK N   1      33.181  14.973  10.493  0.00  0.00    -0.418 N 
HETATM   22  H   UNK N   1      32.465  15.597  10.121  0.00  0.00     0.150 HD
HETATM   23  H   UNK N   1      32.986  13.974  10.441  0.00  0.00     0.150 HD
ENDBRANCH  15  21
ENDBRANCH  13  15
ENDBRANCH  12  13
ENDBRANCH   8  12
ENDBRANCH   7   8
ENDBRANCH   6   7
ENDBRANCH   1   6
BRANCH   2  24
HETATM   24  O   UNK N   1      30.051  18.627  10.194  0.00  0.00    -0.390 OA
HETATM   25  H   UNK N   1      30.318  18.623  11.127  0.00  0.00     0.210 HD
ENDBRANCH   2  24
BRANCH   3  26
HETATM   26  O   UNK N   1      27.231  18.032   9.273  0.00  0.00    -0.388 OA
HETATM   27  H   UNK N   1      26.647  17.276   9.102  0.00  0.00     0.210 HD
ENDBRANCH   3  26
BRANCH   4  28
HETATM   28  N   UNK N   1      27.714  18.402   6.088  0.00  0.00    -0.297 N 
HETATM   29  C   UNK N   1      28.163  19.563   5.538  0.00  0.00     0.188 A 
HETATM   30  N   UNK N   1      27.314  20.023   4.580  0.00  0.00    -0.346 N 
HETATM   31  C   UNK N   1      26.316  19.122   4.561  0.00  0.00     0.122 A 
ATOM     32  HN  UNK N   1      27.412  20.861   4.007  1.00  0.00     0.167 HD
HETATM   33  C   UNK N   1      25.164  19.098   3.798  0.00  0.00     0.131 A 
HETATM   34  C   UNK N   1      26.559  18.148   5.461  0.00  0.00     0.142 A 
HETATM   35  N   UNK N   1      24.287  18.071   3.999  0.00  0.00    -0.337 N 
HETATM   36  C   UNK N   1      24.547  17.090   4.927  0.00  0.00     0.183 A 
ATOM     37  HN  UNK N   1      23.426  18.031   3.452  1.00  0.00     0.168 HD
HETATM   38  N   UNK N   1      25.699  17.121   5.668  0.00  0.00    -0.336 N 
ATOM     39  HN  UNK N   1      25.902  16.396   6.355  1.00  0.00     0.168 HD
BRANCH  33  40
HETATM   40  N   UNK N   1      24.893  20.105   2.849  0.00  0.00    -0.383 N 
HETATM   41  H   UNK N   1      25.282  21.003   2.959  0.00  0.00     0.157 HD
HETATM   42  H   UNK N   1      24.314  19.910   2.077  0.00  0.00     0.157 HD
ENDBRANCH  33  40
ENDBRANCH   4  28
TORSDOF 15
ENDMDL
MODEL 5
REMARK VINA RESULT:      -7.1      4.506      6.534
REMARK  15 active torsions:
REMARK  status: ('A' for Active; 'I' for Inactive)
REMARK    1  A    between atoms: C_5  and  C_1 
REMARK    2  A    between atoms: C_7  and  C_1 
REMARK    3  A    between atoms: C_6  and  C_2 
REMARK    4  A    between atoms: O_31  and  C_2 
REMARK    5  A    between atoms: C_14  and  C_5 
REMARK    6  A    between atoms: C_5  and  N_15 
REMARK    7  A    between atoms: O_25  and  C_7 
REMARK    8  A    between atoms: C_9  and  O_26 
REMARK    9  A    between atoms: C_10  and  O_27 
REMARK   10  A    between atoms: N_16  and  C_11 
REMARK   11  A    between atoms: C_13  and  N_23 
REMARK   12  A    between atoms: O_33  and  C_14 
REMARK   13  A    between atoms: P_34  and  O_29 
REMARK   14  A    between atoms: P_34  and  O_31 
REMARK   15  A    between atoms: P_34  and  O_33 
ROOT
HETATM    1  C   UNK N   1      34.005  15.582   9.522  0.00  0.00     0.180 C 
HETATM    2  C   UNK N   1      34.861  16.782   9.903  0.00  0.00     0.182 C 
HETATM    3  C   UNK N   1      34.736  17.520   8.609  0.00  0.00     0.198 C 
HETATM    4  C   UNK N   1      33.227  17.360   8.371  0.00  0.00     0.262 C 
HETATM    5  O   UNK N   1      32.829  16.135   8.976  0.00  0.00    -0.353 OA
ENDROOT
BRANCH   1   6
HETATM    6  C   UNK N   1      33.696  14.629  10.666  0.00  0.00     0.215 C 
BRANCH   6   7
HETATM    7  O   UNK N   1      34.361  15.018  11.821  0.00  0.00    -0.294 OA
BRANCH   7   8
HETATM    8  P   UNK N   1      35.341  13.683  12.348  0.00  0.00     0.400 P 
HETATM    9  O   UNK N   1      35.135  12.483  11.387  0.00  0.00    -0.631 OA
BRANCH   8  10
HETATM   10  O   UNK N   1      37.029  14.085  12.431  0.00  0.00    -0.307 OA
HETATM   11  H   UNK N   1      37.335  15.005  12.421  0.00  0.00     0.222 HD
ENDBRANCH   8  10
BRANCH   8  12
HETATM   12  O   UNK N   1      34.770  13.229  13.899  0.00  0.00    -0.218 OA
BRANCH  12  13
HETATM   13  C   UNK N   1      35.556  12.461  14.687  0.00  0.00     0.290 C 
HETATM   14  O   UNK N   1      35.732  11.279  14.416  0.00  0.00    -0.262 OA
BRANCH  13  15
HETATM   15  C   UNK N   1      36.075  13.033  15.970  0.00  0.00     0.185 C 
BRANCH  15  16
HETATM   16  C   UNK N   1      34.916  13.410  16.900  0.00  0.00     0.144 C 
BRANCH  16  17
HETATM   17  C   UNK N   1      35.369  13.997  18.197  0.00  0.00     0.141 C 
HETATM   18  O   UNK N   1      35.148  13.400  19.236  0.00  0.00    -0.650 OA
BRANCH  17  19
HETATM   19  O   UNK N   1      35.988  15.192  18.230  0.00  0.00    -0.776 OA
HETATM   20  H   UNK N   1      36.904  15.331  18.367  0.00  0.00     0.167 HD
ENDBRANCH  17  19
ENDBRANCH  16  17
ENDBRANCH  15  16
BRANCH  15  21
HETATM   21  N   UNK N   1      36.837  14.231  15.650  0.00  0.00    -0.418 N 
HETATM   22  H   UNK N   1      36.489  15.189  15.615  0.00  0.00     0.150 HD
HETATM   23  H   UNK N   1      37.825  14.098  15.437  0.00  0.00     0.150 HD
ENDBRANCH  15  21
ENDBRANCH  13  15
ENDBRANCH  12  13
ENDBRANCH   8  12
ENDBRANCH   7   8
ENDBRANCH   6   7
ENDBRANCH   1   6
BRANCH   2  24
HETATM   24  O   UNK N   1      36.179  16.447  10.219  0.00  0.00    -0.390 OA
HETATM   25  H   UNK N   1      36.988  15.982   9.951  0.00  0.00     0.210 HD
ENDBRANCH   2  24
BRANCH   3  26
HETATM   26  O   UNK N   1      35.139  18.854   8.710  0.00  0.00    -0.388 OA
HETATM   27  H   UNK N   1      36.039  19.151   8.918  0.00  0.00     0.210 HD
ENDBRANCH   3  26
BRANCH   4  28
HETATM   28  N   UNK N   1      32.884  17.334   6.944  0.00  0.00    -0.297 N 
HETATM   29  C   UNK N   1      33.749  17.592   5.925  0.00  0.00     0.188 A 
HETATM   30  N   UNK N   1      33.136  17.496   4.714  0.00  0.00    -0.346 N 
HETATM   31  C   UNK N   1      31.862  17.186   5.011  0.00  0.00     0.122 A 
ATOM     32  HN  UNK N   1      33.550  17.630   3.791  1.00  0.00     0.167 HD
HETATM   33  C   UNK N   1      30.782  16.995   4.169  0.00  0.00     0.131 A 
HETATM   34  C   UNK N   1      31.713  17.084   6.346  0.00  0.00     0.142 A 
HETATM   35  N   UNK N   1      29.572  16.716   4.737  0.00  0.00    -0.337 N 
HETATM   36  C   UNK N   1      29.436  16.623   6.103  0.00  0.00     0.183 A 
ATOM     37  HN  UNK N   1      28.756  16.574   4.140  1.00  0.00     0.168 HD
HETATM   38  N   UNK N   1      30.518  16.805   6.924  0.00  0.00    -0.336 N 
ATOM     39  HN  UNK N   1      30.428  16.734   7.936  1.00  0.00     0.168 HD
BRANCH  33  40
HETATM   40  N   UNK N   1      30.917  17.094   2.769  0.00  0.00    -0.383 N 
HETATM   41  H   UNK N   1      30.197  16.770   2.181  0.00  0.00     0.157 HD
HETATM   42  H   UNK N   1      31.732  17.486   2.381  0.00  0.00     0.157 HD
ENDBRANCH  33  40
ENDBRANCH   4  28
TORSDOF 15
ENDMDL
MODEL 6
REMARK VINA RESULT:      -7.0      3.120      5.179
REMARK  15 active torsions:
REMARK  status: ('A' for Active; 'I' for Inactive)
REMARK    1  A    between atoms: C_5  and  C_1 
REMARK    2  A    between atoms: C_7  and  C_1 
REMARK    3  A    between atoms: C_6  and  C_2 
REMARK    4  A    between atoms: O_31  and  C_2 
REMARK    5  A    between atoms: C_14  and  C_5 
REMARK    6  A    between atoms: C_5  and  N_15 
REMARK    7  A    between atoms: O_25  and  C_7 
REMARK    8  A    between atoms: C_9  and  O_26 
REMARK    9  A    between atoms: C_10  and  O_27 
REMARK   10  A    between atoms: N_16  and  C_11 
REMARK   11  A    between atoms: C_13  and  N_23 
REMARK   12  A    between atoms: O_33  and  C_14 
REMARK   13  A    between atoms: P_34  and  O_29 
REMARK   14  A    between atoms: P_34  and  O_31 
REMARK   15  A    between atoms: P_34  and  O_33 
ROOT
HETATM    1  C   UNK N   1      33.950  14.972   7.889  0.00  0.00     0.180 C 
HETATM    2  C   UNK N   1      34.838  15.981   7.172  0.00  0.00     0.182 C 
HETATM    3  C   UNK N   1      33.747  16.733   6.481  0.00  0.00     0.198 C 
HETATM    4  C   UNK N   1      32.758  16.873   7.648  0.00  0.00     0.262 C 
HETATM    5  O   UNK N   1      32.943  15.747   8.498  0.00  0.00    -0.353 OA
ENDROOT
BRANCH   1   6
HETATM    6  C   UNK N   1      34.669  14.094   8.901  0.00  0.00     0.215 C 
BRANCH   6   7
HETATM    7  O   UNK N   1      35.709  14.790   9.503  0.00  0.00    -0.294 OA
BRANCH   7   8
HETATM    8  P   UNK N   1      35.101  15.490  10.973  0.00  0.00     0.400 P 
HETATM    9  O   UNK N   1      35.211  17.035  10.890  0.00  0.00    -0.631 OA
BRANCH   8  10
HETATM   10  O   UNK N   1      33.457  15.035  11.300  0.00  0.00    -0.307 OA
HETATM   11  H   UNK N   1      32.798  14.959  10.592  0.00  0.00     0.222 HD
ENDBRANCH   8  10
BRANCH   8  12
HETATM   12  O   UNK N   1      36.121  14.949  12.239  0.00  0.00    -0.218 OA
BRANCH  12  13
HETATM   13  C   UNK N   1      35.877  13.746  12.808  0.00  0.00     0.290 C 
HETATM   14  O   UNK N   1      34.842  13.562  13.439  0.00  0.00    -0.262 OA
BRANCH  13  15
HETATM   15  C   UNK N   1      36.952  12.703  12.787  0.00  0.00     0.185 C 
BRANCH  15  16
HETATM   16  C   UNK N   1      37.016  12.023  11.416  0.00  0.00     0.144 C 
BRANCH  16  17
HETATM   17  C   UNK N   1      38.130  12.532  10.559  0.00  0.00     0.141 C 
HETATM   18  O   UNK N   1      38.792  11.746   9.905  0.00  0.00    -0.650 OA
BRANCH  17  19
HETATM   19  O   UNK N   1      38.428  13.845  10.531  0.00  0.00    -0.776 OA
HETATM   20  H   UNK N   1      37.808  14.547  10.514  0.00  0.00     0.167 HD
ENDBRANCH  17  19
ENDBRANCH  16  17
ENDBRANCH  15  16
BRANCH  15  21
HETATM   21  N   UNK N   1      36.627  11.706  13.798  0.00  0.00    -0.418 N 
HETATM   22  H   UNK N   1      36.390  10.727  13.640  0.00  0.00     0.150 HD
HETATM   23  H   UNK N   1      36.639  12.022  14.767  0.00  0.00     0.150 HD
ENDBRANCH  15  21
ENDBRANCH  13  15
ENDBRANCH  12  13
ENDBRANCH   8  12
ENDBRANCH   7   8
ENDBRANCH   6   7
ENDBRANCH   1   6
BRANCH   2  24
HETATM   24  O   UNK N   1      35.744  15.393   6.288  0.00  0.00    -0.390 OA
HETATM   25  H   UNK N   1      35.970  15.196   5.365  0.00  0.00     0.210 HD
ENDBRANCH   2  24
BRANCH   3  26
HETATM   26  O   UNK N   1      34.178  17.963   5.976  0.00  0.00    -0.388 OA
HETATM   27  H   UNK N   1      33.967  18.309   5.095  0.00  0.00     0.210 HD
ENDBRANCH   3  26
BRANCH   4  28
HETATM   28  N   UNK N   1      31.362  16.921   7.197  0.00  0.00    -0.297 N 
HETATM   29  C   UNK N   1      30.951  16.810   5.904  0.00  0.00     0.188 A 
HETATM   30  N   UNK N   1      29.598  16.898   5.801  0.00  0.00    -0.346 N 
HETATM   31  C   UNK N   1      29.180  17.081   7.065  0.00  0.00     0.122 A 
ATOM     32  HN  UNK N   1      29.029  16.839   4.955  1.00  0.00     0.167 HD
HETATM   33  C   UNK N   1      27.899  17.263   7.553  0.00  0.00     0.131 A 
HETATM   34  C   UNK N   1      30.236  17.090   7.902  0.00  0.00     0.142 A 
HETATM   35  N   UNK N   1      27.750  17.462   8.897  0.00  0.00    -0.337 N 
HETATM   36  C   UNK N   1      28.841  17.475   9.735  0.00  0.00     0.183 A 
ATOM     37  HN  UNK N   1      26.817  17.603   9.284  1.00  0.00     0.168 HD
HETATM   38  N   UNK N   1      30.103  17.283   9.237  0.00  0.00    -0.336 N 
ATOM     39  HN  UNK N   1      30.917  17.286   9.851  1.00  0.00     0.168 HD
BRANCH  33  40
HETATM   40  N   UNK N   1      26.780  17.254   6.696  0.00  0.00    -0.383 N 
HETATM   41  H   UNK N   1      26.078  16.574   6.810  0.00  0.00     0.157 HD
HETATM   42  H   UNK N   1      26.702  17.929   5.984  0.00  0.00     0.157 HD
ENDBRANCH  33  40
ENDBRANCH   4  28
TORSDOF 15
ENDMDL
MODEL 7
REMARK VINA RESULT:      -7.0      4.046     10.645
REMARK  15 active torsions:
REMARK  status: ('A' for Active; 'I' for Inactive)
REMARK    1  A    between atoms: C_5  and  C_1 
REMARK    2  A    between atoms: C_7  and  C_1 
REMARK    3  A    between atoms: C_6  and  C_2 
REMARK    4  A    between atoms: O_31  and  C_2 
REMARK    5  A    between atoms: C_14  and  C_5 
REMARK    6  A    between atoms: C_5  and  N_15 
REMARK    7  A    between atoms: O_25  and  C_7 
REMARK    8  A    between atoms: C_9  and  O_26 
REMARK    9  A    between atoms: C_10  and  O_27 
REMARK   10  A    between atoms: N_16  and  C_11 
REMARK   11  A    between atoms: C_13  and  N_23 
REMARK   12  A    between atoms: O_33  and  C_14 
REMARK   13  A    between atoms: P_34  and  O_29 
REMARK   14  A    between atoms: P_34  and  O_31 
REMARK   15  A    between atoms: P_34  and  O_33 
ROOT
HETATM    1  C   UNK N   1      35.175  14.552   9.821  0.00  0.00     0.180 C 
HETATM    2  C   UNK N   1      34.553  14.852  11.178  0.00  0.00     0.182 C 
HETATM    3  C   UNK N   1      35.038  13.626  11.882  0.00  0.00     0.198 C 
HETATM    4  C   UNK N   1      36.494  13.612  11.392  0.00  0.00     0.262 C 
HETATM    5  O   UNK N   1      36.514  14.216  10.103  0.00  0.00    -0.353 OA
ENDROOT
BRANCH   1   6
HETATM    6  C   UNK N   1      35.083  15.686   8.812  0.00  0.00     0.215 C 
BRANCH   6   7
HETATM    7  O   UNK N   1      34.467  16.795   9.376  0.00  0.00    -0.294 OA
BRANCH   7   8
HETATM    8  P   UNK N   1      34.310  18.005   8.138  0.00  0.00     0.400 P 
HETATM    9  O   UNK N   1      35.245  19.199   8.465  0.00  0.00    -0.631 OA
BRANCH   8  10
HETATM   10  O   UNK N   1      34.674  17.391   6.555  0.00  0.00    -0.307 OA
HETATM   11  H   UNK N   1      35.408  16.776   6.402  0.00  0.00     0.222 HD
ENDBRANCH   8  10
BRANCH   8  12
HETATM   12  O   UNK N   1      32.691  18.563   8.192  0.00  0.00    -0.218 OA
BRANCH  12  13
HETATM   13  C   UNK N   1      31.698  17.727   7.812  0.00  0.00     0.290 C 
HETATM   14  O   UNK N   1      31.659  17.298   6.664  0.00  0.00    -0.262 OA
BRANCH  13  15
HETATM   15  C   UNK N   1      30.570  17.463   8.762  0.00  0.00     0.185 C 
BRANCH  15  16
HETATM   16  C   UNK N   1      29.261  17.242   7.996  0.00  0.00     0.144 C 
BRANCH  16  17
HETATM   17  C   UNK N   1      28.259  18.329   8.218  0.00  0.00     0.141 C 
HETATM   18  O   UNK N   1      28.211  19.269   7.445  0.00  0.00    -0.650 OA
BRANCH  17  19
HETATM   19  O   UNK N   1      27.436  18.295   9.283  0.00  0.00    -0.776 OA
HETATM   20  H   UNK N   1      26.642  18.783   9.377  0.00  0.00     0.167 HD
ENDBRANCH  17  19
ENDBRANCH  16  17
ENDBRANCH  15  16
BRANCH  15  21
HETATM   21  N   UNK N   1      30.428  18.628   9.622  0.00  0.00    -0.418 N 
HETATM   22  H   UNK N   1      29.568  18.979  10.043  0.00  0.00     0.150 HD
HETATM   23  H   UNK N   1      31.280  19.150   9.825  0.00  0.00     0.150 HD
ENDBRANCH  15  21
ENDBRANCH  13  15
ENDBRANCH  12  13
ENDBRANCH   8  12
ENDBRANCH   7   8
ENDBRANCH   6   7
ENDBRANCH   1   6
BRANCH   2  24
HETATM   24  O   UNK N   1      33.161  14.949  11.142  0.00  0.00    -0.390 OA
HETATM   25  H   UNK N   1      32.344  15.133  11.633  0.00  0.00     0.210 HD
ENDBRANCH   2  24
BRANCH   3  26
HETATM   26  O   UNK N   1      34.927  13.723  13.271  0.00  0.00    -0.388 OA
HETATM   27  H   UNK N   1      35.329  13.111  13.908  0.00  0.00     0.210 HD
ENDBRANCH   3  26
BRANCH   4  28
HETATM   28  N   UNK N   1      37.045  12.255  11.305  0.00  0.00    -0.297 N 
HETATM   29  C   UNK N   1      37.280  11.577  10.148  0.00  0.00     0.188 A 
HETATM   30  N   UNK N   1      37.787  10.338  10.390  0.00  0.00    -0.346 N 
HETATM   31  C   UNK N   1      37.847  10.260  11.731  0.00  0.00     0.122 A 
ATOM     32  HN  UNK N   1      38.060   9.630   9.708  1.00  0.00     0.167 HD
HETATM   33  C   UNK N   1      38.259   9.214  12.536  0.00  0.00     0.131 A 
HETATM   34  C   UNK N   1      37.407  11.410  12.278  0.00  0.00     0.142 A 
HETATM   35  N   UNK N   1      38.190   9.385  13.889  0.00  0.00    -0.337 N 
HETATM   36  C   UNK N   1      37.731  10.564  14.431  0.00  0.00     0.183 A 
ATOM     37  HN  UNK N   1      38.483   8.628  14.507  1.00  0.00     0.168 HD
HETATM   38  N   UNK N   1      37.336  11.595  13.620  0.00  0.00    -0.336 N 
ATOM     39  HN  UNK N   1      36.999  12.473  14.012  1.00  0.00     0.168 HD
BRANCH  33  40
HETATM   40  N   UNK N   1      38.725   8.004  11.983  0.00  0.00    -0.383 N 
HETATM   41  H   UNK N   1      38.195   7.539  11.296  0.00  0.00     0.157 HD
HETATM   42  H   UNK N   1      39.582   7.624  12.285  0.00  0.00     0.157 HD
ENDBRANCH  33  40
ENDBRANCH   4  28
TORSDOF 15
ENDMDL
MODEL 8
REMARK VINA RESULT:      -7.0      2.065      3.322
REMARK  15 active torsions:
REMARK  status: ('A' for Active; 'I' for Inactive)
REMARK    1  A    between atoms: C_5  and  C_1 
REMARK    2  A    between atoms: C_7  and  C_1 
REMARK    3  A    between atoms: C_6  and  C_2 
REMARK    4  A    between atoms: O_31  and  C_2 
REMARK    5  A    between atoms: C_14  and  C_5 
REMARK    6  A    between atoms: C_5  and  N_15 
REMARK    7  A    between atoms: O_25  and  C_7 
REMARK    8  A    between atoms: C_9  and  O_26 
REMARK    9  A    between atoms: C_10  and  O_27 
REMARK   10  A    between atoms: N_16  and  C_11 
REMARK   11  A    between atoms: C_13  and  N_23 
REMARK   12  A    between atoms: O_33  and  C_14 
REMARK   13  A    between atoms: P_34  and  O_29 
REMARK   14  A    between atoms: P_34  and  O_31 
REMARK   15  A    between atoms: P_34  and  O_33 
ROOT
HETATM    1  C   UNK N   1      32.336  16.186   6.167  0.00  0.00     0.180 C 
HETATM    2  C   UNK N   1      31.827  14.776   5.901  0.00  0.00     0.182 C 
HETATM    3  C   UNK N   1      30.376  15.119   5.789  0.00  0.00     0.198 C 
HETATM    4  C   UNK N   1      30.479  16.367   4.899  0.00  0.00     0.262 C 
HETATM    5  O   UNK N   1      31.731  16.983   5.174  0.00  0.00    -0.353 OA
ENDROOT
BRANCH   1   6
HETATM    6  C   UNK N   1      33.849  16.331   6.156  0.00  0.00     0.215 C 
BRANCH   6   7
HETATM    7  O   UNK N   1      34.217  17.650   6.389  0.00  0.00    -0.294 OA
BRANCH   7   8
HETATM    8  P   UNK N   1      34.186  17.917   8.106  0.00  0.00     0.400 P 
HETATM    9  O   UNK N   1      35.055  19.155   8.449  0.00  0.00    -0.631 OA
BRANCH   8  10
HETATM   10  O   UNK N   1      32.576  18.141   8.718  0.00  0.00    -0.307 OA
HETATM   11  H   UNK N   1      32.292  17.754   9.561  0.00  0.00     0.222 HD
ENDBRANCH   8  10
BRANCH   8  12
HETATM   12  O   UNK N   1      34.904  16.542   8.835  0.00  0.00    -0.218 OA
BRANCH  12  13
HETATM   13  C   UNK N   1      34.784  16.373  10.172  0.00  0.00     0.290 C 
HETATM   14  O   UNK N   1      35.373  17.121  10.943  0.00  0.00    -0.262 OA
BRANCH  13  15
HETATM   15  C   UNK N   1      34.052  15.171  10.687  0.00  0.00     0.185 C 
BRANCH  15  16
HETATM   16  C   UNK N   1      34.888  13.903  10.482  0.00  0.00     0.144 C 
BRANCH  16  17
HETATM   17  C   UNK N   1      34.469  13.109   9.288  0.00  0.00     0.141 C 
HETATM   18  O   UNK N   1      33.869  12.059   9.445  0.00  0.00    -0.650 OA
BRANCH  17  19
HETATM   19  O   UNK N   1      34.778  13.524   8.045  0.00  0.00    -0.776 OA
HETATM   20  H   UNK N   1      35.577  13.942   7.791  0.00  0.00     0.167 HD
ENDBRANCH  17  19
ENDBRANCH  16  17
ENDBRANCH  15  16
BRANCH  15  21
HETATM   21  N   UNK N   1      32.810  15.049   9.937  0.00  0.00    -0.418 N 
HETATM   22  H   UNK N   1      32.711  14.846   8.943  0.00  0.00     0.150 HD
HETATM   23  H   UNK N   1      31.947  15.180  10.464  0.00  0.00     0.150 HD
ENDBRANCH  15  21
ENDBRANCH  13  15
ENDBRANCH  12  13
ENDBRANCH   8  12
ENDBRANCH   7   8
ENDBRANCH   6   7
ENDBRANCH   1   6
BRANCH   2  24
HETATM   24  O   UNK N   1      32.100  13.881   6.937  0.00  0.00    -0.390 OA
HETATM   25  H   UNK N   1      32.683  13.645   7.676  0.00  0.00     0.210 HD
ENDBRANCH   2  24
BRANCH   3  26
HETATM   26  O   UNK N   1      29.624  14.093   5.212  0.00  0.00    -0.388 OA
HETATM   27  H   UNK N   1      29.581  13.180   5.539  0.00  0.00     0.210 HD
ENDBRANCH   3  26
BRANCH   4  28
HETATM   28  N   UNK N   1      29.396  17.326   5.150  0.00  0.00    -0.297 N 
HETATM   29  C   UNK N   1      28.569  17.841   4.200  0.00  0.00     0.188 A 
HETATM   30  N   UNK N   1      27.670  18.709   4.738  0.00  0.00    -0.346 N 
HETATM   31  C   UNK N   1      27.972  18.729   6.048  0.00  0.00     0.122 A 
ATOM     32  HN  UNK N   1      26.934  19.226   4.256  1.00  0.00     0.167 HD
HETATM   33  C   UNK N   1      27.400  19.459   7.073  0.00  0.00     0.131 A 
HETATM   34  C   UNK N   1      29.002  17.897   6.295  0.00  0.00     0.142 A 
HETATM   35  N   UNK N   1      27.923  19.316   8.327  0.00  0.00    -0.337 N 
HETATM   36  C   UNK N   1      28.981  18.467   8.559  0.00  0.00     0.183 A 
ATOM     37  HN  UNK N   1      27.524  19.846   9.102  1.00  0.00     0.168 HD
HETATM   38  N   UNK N   1      29.530  17.742   7.534  0.00  0.00    -0.336 N 
ATOM     39  HN  UNK N   1      30.310  17.108   7.698  1.00  0.00     0.168 HD
BRANCH  33  40
HETATM   40  N   UNK N   1      26.319  20.333   6.837  0.00  0.00    -0.383 N 
HETATM   41  H   UNK N   1      26.112  20.622   5.919  0.00  0.00     0.157 HD
HETATM   42  H   UNK N   1      25.772  20.653   7.590  0.00  0.00     0.157 HD
ENDBRANCH  33  40
ENDBRANCH   4  28
TORSDOF 15
ENDMDL
MODEL 9
REMARK VINA RESULT:      -6.9      5.690     11.955
REMARK  15 active torsions:
REMARK  status: ('A' for Active; 'I' for Inactive)
REMARK    1  A    between atoms: C_5  and  C_1 
REMARK    2  A    between atoms: C_7  and  C_1 
REMARK    3  A    between atoms: C_6  and  C_2 
REMARK    4  A    between atoms: O_31  and  C_2 
REMARK    5  A    between atoms: C_14  and  C_5 
REMARK    6  A    between atoms: C_5  and  N_15 
REMARK    7  A    between atoms: O_25  and  C_7 
REMARK    8  A    between atoms: C_9  and  O_26 
REMARK    9  A    between atoms: C_10  and  O_27 
REMARK   10  A    between atoms: N_16  and  C_11 
REMARK   11  A    between atoms: C_13  and  N_23 
REMARK   12  A    between atoms: O_33  and  C_14 
REMARK   13  A    between atoms: P_34  and  O_29 
REMARK   14  A    between atoms: P_34  and  O_31 
REMARK   15  A    between atoms: P_34  and  O_33 
ROOT
HETATM    1  C   UNK N   1      35.650  13.150  13.556  0.00  0.00     0.180 C 
HETATM    2  C   UNK N   1      36.537  12.128  12.857  0.00  0.00     0.182 C 
HETATM    3  C   UNK N   1      36.788  11.255  14.044  0.00  0.00     0.198 C 
HETATM    4  C   UNK N   1      35.361  11.173  14.605  0.00  0.00     0.262 C 
HETATM    5  O   UNK N   1      34.697  12.383  14.257  0.00  0.00    -0.353 OA
ENDROOT
BRANCH   1   6
HETATM    6  C   UNK N   1      34.987  14.158  12.632  0.00  0.00     0.215 C 
BRANCH   6   7
HETATM    7  O   UNK N   1      35.785  15.284  12.480  0.00  0.00    -0.294 OA
BRANCH   7   8
HETATM    8  P   UNK N   1      35.879  15.647  10.783  0.00  0.00     0.400 P 
HETATM    9  O   UNK N   1      36.083  17.173  10.595  0.00  0.00    -0.631 OA
BRANCH   8  10
HETATM   10  O   UNK N   1      37.155  14.781   9.984  0.00  0.00    -0.307 OA
HETATM   11  H   UNK N   1      36.997  13.932   9.542  0.00  0.00     0.222 HD
ENDBRANCH   8  10
BRANCH   8  12
HETATM   12  O   UNK N   1      34.366  15.222  10.101  0.00  0.00    -0.218 OA
BRANCH  12  13
HETATM   13  C   UNK N   1      34.137  15.493   8.795  0.00  0.00     0.290 C 
HETATM   14  O   UNK N   1      34.986  15.225   7.953  0.00  0.00    -0.262 OA
BRANCH  13  15
HETATM   15  C   UNK N   1      32.907  16.261   8.420  0.00  0.00     0.185 C 
BRANCH  15  16
HETATM   16  C   UNK N   1      33.125  17.763   8.632  0.00  0.00     0.144 C 
BRANCH  16  17
HETATM   17  C   UNK N   1      34.256  18.313   7.825  0.00  0.00     0.141 C 
HETATM   18  O   UNK N   1      35.020  19.116   8.330  0.00  0.00    -0.650 OA
BRANCH  17  19
HETATM   19  O   UNK N   1      34.416  17.956   6.536  0.00  0.00    -0.776 OA
HETATM   20  H   UNK N   1      33.923  17.299   6.085  0.00  0.00     0.167 HD
ENDBRANCH  17  19
ENDBRANCH  16  17
ENDBRANCH  15  16
BRANCH  15  21
HETATM   21  N   UNK N   1      31.820  15.812   9.278  0.00  0.00    -0.418 N 
HETATM   22  H   UNK N   1      31.072  15.164   9.033  0.00  0.00     0.150 HD
HETATM   23  H   UNK N   1      31.806  16.187  10.227  0.00  0.00     0.150 HD
ENDBRANCH  15  21
ENDBRANCH  13  15
ENDBRANCH  12  13
ENDBRANCH   8  12
ENDBRANCH   7   8
ENDBRANCH   6   7
ENDBRANCH   1   6
BRANCH   2  24
HETATM   24  O   UNK N   1      37.704  12.678  12.323  0.00  0.00    -0.390 OA
HETATM   25  H   UNK N   1      38.591  12.515  11.967  0.00  0.00     0.210 HD
ENDBRANCH   2  24
BRANCH   3  26
HETATM   26  O   UNK N   1      37.313  10.008  13.693  0.00  0.00    -0.388 OA
HETATM   27  H   UNK N   1      37.743   9.802  12.848  0.00  0.00     0.210 HD
ENDBRANCH   3  26
BRANCH   4  28
HETATM   28  N   UNK N   1      35.339  11.007  16.063  0.00  0.00    -0.297 N 
HETATM   29  C   UNK N   1      35.308   9.813  16.716  0.00  0.00     0.188 A 
HETATM   30  N   UNK N   1      35.289   9.982  18.066  0.00  0.00    -0.346 N 
HETATM   31  C   UNK N   1      35.295  11.316  18.233  0.00  0.00     0.122 A 
ATOM     32  HN  UNK N   1      35.274   9.260  18.787  1.00  0.00     0.167 HD
HETATM   33  C   UNK N   1      35.255  12.058  19.398  0.00  0.00     0.131 A 
HETATM   34  C   UNK N   1      35.331  11.929  17.034  0.00  0.00     0.142 A 
HETATM   35  N   UNK N   1      35.240  13.420  19.287  0.00  0.00    -0.337 N 
HETATM   36  C   UNK N   1      35.269  14.029  18.054  0.00  0.00     0.183 A 
ATOM     37  HN  UNK N   1      35.207  13.993  20.131  1.00  0.00     0.168 HD
HETATM   38  N   UNK N   1      35.319  13.279  16.908  0.00  0.00    -0.336 N 
ATOM     39  HN  UNK N   1      35.345  13.722  15.991  1.00  0.00     0.168 HD
BRANCH  33  40
HETATM   40  N   UNK N   1      35.221  11.437  20.663  0.00  0.00    -0.383 N 
HETATM   41  H   UNK N   1      35.918  10.786  20.911  0.00  0.00     0.157 HD
HETATM   42  H   UNK N   1      34.501  11.653  21.298  0.00  0.00     0.157 HD
ENDBRANCH  33  40
ENDBRANCH   4  28
TORSDOF 15
ENDMDL
