REMARK  19 active torsions:
REMARK  status: ('A' for Active; 'I' for Inactive)
REMARK    1  A    between atoms: C_25  and  C_17 
REMARK    2  A    between atoms: O_39  and  C_17 
REMARK    3  A    between atoms: C_21  and  C_18 
REMARK    4  A    between atoms: O_46  and  C_18 
REMARK    5  A    between atoms: C_22  and  C_19 
REMARK    6  A    between atoms: O_47  and  C_19 
REMARK    7  A    between atoms: C_24  and  N_35 
REMARK    8  A    between atoms: C_28  and  N_37 
REMARK    9  A    between atoms: C_30  and  C_29 
REMARK   10  A    between atoms: C_31  and  C_29 
REMARK   11  A    between atoms: C_29  and  O_41 
REMARK   12  A    between atoms: C_32  and  C_30 
REMARK   13  A    between atoms: C_30  and  O_42 
REMARK   14  A    between atoms: C_33  and  C_31 
REMARK   15  A    between atoms: C_31  and  O_46 
REMARK   16  A    between atoms: C_34  and  C_32 
REMARK   17  A    between atoms: C_32  and  O_47 
REMARK   18  A    between atoms: C_33  and  O_43 
REMARK   19  A    between atoms: C_34  and  O_44 
ROOT
HETATM    1  C   UNK N   1      12.031  -4.316   0.343  0.00  0.00     0.001 A 
HETATM    2  C   UNK N   1      12.554  -3.013   0.247  0.00  0.00     0.001 A 
HETATM    3  C   UNK N   1      10.651  -4.535   0.204  0.00  0.00     0.008 A 
HETATM    4  C   UNK N   1      11.700  -1.927   0.009  0.00  0.00     0.010 A 
HETATM    5  C   UNK N   1       8.349  -3.460  -0.173  0.00  0.00     0.073 C 
HETATM    6  C   UNK N   1       9.826  -3.442  -0.056  0.00  0.00    -0.047 A 
HETATM    7  C   UNK N   1      10.336  -2.175  -0.161  0.00  0.00    -0.027 A 
HETATM    8  C   UNK N   1       8.093  -2.071  -0.788  0.00  0.00     0.149 C 
HETATM    9  C   UNK N   1       9.272  -1.167  -0.338  0.00  0.00     0.146 C 
HETATM   10  O   UNK N   1       8.149  -2.224  -2.177  0.00  0.00    -0.393 OA
HETATM   11  H   UNK N   1       8.077  -2.311  -3.140  0.00  0.00     0.210 HD
ENDROOT
BRANCH   9  12
HETATM   12  N   UNK N   1       8.979  -0.602   0.969  0.00  0.00    -0.361 N 
HETATM   13  C   UNK N   1       8.500   0.571   1.187  0.00  0.00     0.144 C 
ATOM     14  HN  UNK N   1       9.169  -1.186   1.783  1.00  0.00     0.162 HD
BRANCH  13  15
HETATM   15  C   UNK N   1       8.226   1.576   0.065  0.00  0.00     0.227 C 
BRANCH  15  16
HETATM   16  C   UNK N   1       7.140   2.614   0.454  0.00  0.00     0.186 C 
BRANCH  16  17
HETATM   17  C   UNK N   1       6.741   3.550  -0.720  0.00  0.00     0.186 C 
BRANCH  17  18
HETATM   18  C   UNK N   1       5.697   4.652  -0.353  0.00  0.00     0.227 C 
BRANCH  18  19
HETATM   19  C   UNK N   1       6.257   5.595   0.713  0.00  0.00     0.144 C 
HETATM   20  N   UNK N   1       6.532   6.841   0.494  0.00  0.00    -0.365 N 
ATOM     21  HN  UNK N   1       6.966   7.354   1.261  1.00  0.00     0.161 HD
BRANCH  20  22
HETATM   22  C   UNK N   1       6.287   7.584  -0.725  0.00  0.00     0.109 C 
HETATM   23  C   UNK N   1       4.854   8.014  -0.779  0.00  0.00     0.061 C 
HETATM   24  C   UNK N   1       4.856   9.133   0.252  0.00  0.00     0.147 C 
HETATM   25  O   UNK N   1       6.127   9.744   0.223  0.00  0.00    -0.382 OA
HETATM   26  C   UNK N   1       6.937   8.938  -0.603  0.00  0.00     0.193 C 
BRANCH  24  27
HETATM   27  C   UNK N   1       3.778  10.161  -0.044  0.00  0.00     0.196 C 
BRANCH  27  28
HETATM   28  O   UNK N   1       2.511   9.594   0.100  0.00  0.00    -0.398 OA
HETATM   29  H   UNK N   1       1.730  10.160   0.200  0.00  0.00     0.209 HD
ENDBRANCH  27  28
ENDBRANCH  24  27
ENDBRANCH  20  22
BRANCH  19  30
HETATM   30  O   UNK N   1       6.481   5.116   1.950  0.00  0.00    -0.348 OA
HETATM   31  H   UNK N   1       6.270   4.815   2.811  0.00  0.00     0.219 HD
ENDBRANCH  19  30
ENDBRANCH  18  19
BRANCH  18  32
HETATM   32  O   UNK N   1       4.487   4.108   0.140  0.00  0.00    -0.370 OA
BRANCH  32  33
HETATM   33  C   UNK N   1       3.775   3.520  -0.922  0.00  0.00     0.207 C 
BRANCH  33  34
HETATM   34  C   UNK N   1       3.225   2.205  -0.487  0.00  0.00    -0.035 A 
HETATM   35  C   UNK N   1       3.676   1.024  -1.087  0.00  0.00     0.009 A 
HETATM   36  C   UNK N   1       3.172  -0.211  -0.666  0.00  0.00     0.001 A 
HETATM   37  C   UNK N   1       2.214  -0.265   0.352  0.00  0.00     0.000 A 
HETATM   38  C   UNK N   1       1.759   0.915   0.948  0.00  0.00     0.001 A 
HETATM   39  C   UNK N   1       2.266   2.149   0.530  0.00  0.00     0.009 A 
ENDBRANCH  33  34
ENDBRANCH  32  33
ENDBRANCH  18  32
ENDBRANCH  17  18
BRANCH  17  40
HETATM   40  O   UNK N   1       7.872   4.181  -1.243  0.00  0.00    -0.390 OA
HETATM   41  H   UNK N   1       8.644   3.720  -1.607  0.00  0.00     0.210 HD
ENDBRANCH  17  40
ENDBRANCH  16  17
BRANCH  16  42
HETATM   42  O   UNK N   1       6.002   1.931   0.898  0.00  0.00    -0.390 OA
HETATM   43  H   UNK N   1       5.198   2.378   1.206  0.00  0.00     0.210 HD
ENDBRANCH  16  42
ENDBRANCH  15  16
BRANCH  15  44
HETATM   44  O   UNK N   1       9.442   2.168  -0.381  0.00  0.00    -0.370 OA
BRANCH  44  45
HETATM   45  C   UNK N   1      10.005   2.927   0.670  0.00  0.00     0.207 C 
BRANCH  45  46
HETATM   46  C   UNK N   1      10.737   4.118   0.151  0.00  0.00    -0.035 A 
HETATM   47  C   UNK N   1      10.221   5.403   0.359  0.00  0.00     0.009 A 
HETATM   48  C   UNK N   1      10.918   6.523  -0.108  0.00  0.00     0.001 A 
HETATM   49  C   UNK N   1      12.139   6.359  -0.771  0.00  0.00     0.000 A 
HETATM   50  C   UNK N   1      12.660   5.076  -0.969  0.00  0.00     0.001 A 
HETATM   51  C   UNK N   1      11.959   3.957  -0.510  0.00  0.00     0.009 A 
ENDBRANCH  45  46
ENDBRANCH  44  45
ENDBRANCH  15  44
ENDBRANCH  13  15
BRANCH  13  52
HETATM   52  O   UNK N   1       8.226   0.927   2.462  0.00  0.00    -0.348 OA
HETATM   53  H   UNK N   1       8.345   1.215   3.346  0.00  0.00     0.219 HD
ENDBRANCH  13  52
ENDBRANCH   9  12
TORSDOF 19
