REMARK  12 active torsions:
REMARK  status: ('A' for Active; 'I' for Inactive)
REMARK    1  A    between atoms: C_4  and  C_2 
REMARK    2  A    between atoms: O_27  and  C_2 
REMARK    3  A    between atoms: C_6  and  O_19 
REMARK    4  A    between atoms: C_7  and  O_20 
REMARK    5  A    between atoms: O_21  and  C_9 
REMARK    6  A    between atoms: C_10  and  N_18 
REMARK    7  A    between atoms: P_30  and  O_22 
REMARK    8  A    between atoms: P_30  and  O_23 
REMARK    9  A    between atoms: P_31  and  O_25 
REMARK   10  A    between atoms: P_31  and  O_27 
REMARK   11  A    between atoms: P_30  and  O_29 
REMARK   12  A    between atoms: P_31  and  O_29 
ROOT
HETATM    1  C   UNK N   1      -1.516  -3.920   0.302  0.00  0.00     0.180 C 
HETATM    2  C   UNK N   1      -0.297  -4.166  -0.568  0.00  0.00     0.182 C 
HETATM    3  C   UNK N   1       0.732  -3.400   0.204  0.00  0.00     0.198 C 
HETATM    4  C   UNK N   1      -0.095  -2.171   0.629  0.00  0.00     0.258 C 
HETATM    5  O   UNK N   1      -1.469  -2.552   0.641  0.00  0.00    -0.354 OA
ENDROOT
BRANCH   4   6
HETATM    6  N   UNK N   1       0.095  -1.001  -0.220  0.00  0.00    -0.319 N 
HETATM    7  C   UNK N   1      -0.922   0.058  -0.248  0.00  0.00     0.253 A 
HETATM    8  N   UNK N   1      -0.135   1.281  -0.278  0.00  0.00    -0.362 N 
HETATM    9  C   UNK N   1      -0.690   2.606  -0.194  0.00  0.00     0.152 C 
HETATM   10  C   UNK N   1       1.225   0.964  -0.283  0.00  0.00     0.128 A 
HETATM   11  C   UNK N   1       1.364  -0.372  -0.276  0.00  0.00     0.153 A 
HETATM   12  C   UNK N   1       2.347   1.785  -0.224  0.00  0.00     0.186 A 
HETATM   13  N   UNK N   1       2.582  -0.962  -0.199  0.00  0.00    -0.174 N 
HETATM   14  C   UNK N   1       3.698  -0.172  -0.171  0.00  0.00     0.679 A 
HETATM   15  H   UNK N   1       2.662  -1.943  -0.163  0.00  0.00     0.186 HD
HETATM   16  N   UNK N   1       4.856  -0.708  -0.117  0.00  0.00    -0.234 N 
HETATM   17  N   UNK N   1       3.576   1.194  -0.178  0.00  0.00    -0.168 N 
HETATM   18  H   UNK N   1       4.945  -1.688  -0.075  0.00  0.00     0.174 HD
ATOM     19  HN  UNK N   1       5.690  -0.120  -0.117  1.00  0.00     0.174 HD
ATOM     20  HN  UNK N   1       4.414   1.775  -0.148  1.00  0.00     0.186 HD
BRANCH  12  21
HETATM   21  O   UNK N   1       2.235   3.124  -0.185  0.00  0.00    -0.344 OA
HETATM   22  H   UNK N   1       3.005   3.658  -0.157  0.00  0.00     0.219 HD
ENDBRANCH  12  21
ENDBRANCH   4   6
BRANCH   3  23
HETATM   23  O   UNK N   1       1.086  -4.120   1.352  0.00  0.00    -0.388 OA
HETATM   24  H   UNK N   1       0.777  -4.582   2.147  0.00  0.00     0.210 HD
ENDBRANCH   3  23
BRANCH   2  25
HETATM   25  O   UNK N   1       0.019  -5.523  -0.693  0.00  0.00    -0.390 OA
HETATM   26  H   UNK N   1      -0.686  -6.183  -0.780  0.00  0.00     0.210 HD
ENDBRANCH   2  25
BRANCH   1  27
HETATM   27  C   UNK N   1      -2.811  -4.249  -0.433  0.00  0.00     0.215 C 
BRANCH  27  28
HETATM   28  O   UNK N   1      -2.833  -5.595  -0.813  0.00  0.00    -0.294 OA
BRANCH  28  29
HETATM   29  P   UNK N   1      -4.495  -6.113  -0.711  0.00  0.00     0.401 P 
HETATM   30  O   UNK N   1      -4.832  -6.823  -2.049  0.00  0.00    -0.631 OA
BRANCH  29  31
HETATM   31  O   UNK N   1      -5.573  -4.749  -0.662  0.00  0.00    -0.307 OA
HETATM   32  H   UNK N   1      -5.214  -3.848  -0.636  0.00  0.00     0.222 HD
ENDBRANCH  29  31
BRANCH  29  33
HETATM   33  O   UNK N   1      -4.873  -7.213   0.637  0.00  0.00    -0.195 OA
BRANCH  33  34
HETATM   34  P   UNK N   1      -3.737  -8.563   0.900  0.00  0.00     0.399 P 
HETATM   35  O   UNK N   1      -2.709  -7.410   1.032  0.00  0.00    -0.631 OA
BRANCH  34  36
HETATM   36  O   UNK N   1      -2.569  -8.788  -0.365  0.00  0.00    -0.307 OA
HETATM   37  H   UNK N   1      -2.351  -9.415  -1.071  0.00  0.00     0.222 HD
ENDBRANCH  34  36
BRANCH  34  38
HETATM   38  O   UNK N   1      -4.430  -8.972  -0.638  0.00  0.00    -0.307 OA
HETATM   39  H   UNK N   1      -4.821  -8.750  -1.497  0.00  0.00     0.222 HD
ENDBRANCH  34  38
ENDBRANCH  33  34
ENDBRANCH  29  33
ENDBRANCH  28  29
ENDBRANCH  27  28
ENDBRANCH   1  27
TORSDOF 12
