MODEL 1
REMARK VINA RESULT:      -5.9      0.000      0.000
REMARK  11 active torsions:
REMARK  status: ('A' for Active; 'I' for Inactive)
REMARK    1  A    between atoms: C_2  and  N_3 
REMARK    2  A    between atoms: C_2  and  C_20 
REMARK    3  A    between atoms: N_3  and  C_4 
REMARK    4  A    between atoms: C_4  and  C_5 
REMARK    5  A    between atoms: C_6  and  O_7 
REMARK    6  A    between atoms: C_13  and  C_14 
REMARK    7  A    between atoms: C_14  and  O_15 
REMARK    8  A    between atoms: O_15  and  P_16 
REMARK    9  A    between atoms: P_16  and  O_17 
REMARK   10  A    between atoms: P_16  and  O_18 
REMARK   11  A    between atoms: C_20  and  O_21 
ROOT
HETATM    1  C   UNK N   1      20.465  17.200   2.661  0.00  0.00     0.004 A 
HETATM    2  C   UNK N   1      19.983  16.922   1.368  0.00  0.00     0.096 A 
HETATM    3  C   UNK N   1      19.386  15.680   1.108  0.00  0.00     0.039 A 
HETATM    4  C   UNK N   1      18.882  15.349  -0.255  0.00  0.00     0.071 C 
HETATM    5  N   UNK N   1      19.270  14.761   2.101  0.00  0.00    -0.367 N 
ATOM      6  HN  UNK N   1      18.828  13.864   1.899  1.00  0.00     0.165 HD
HETATM    7  C   UNK N   1      19.728  15.004   3.358  0.00  0.00     0.098 A 
HETATM    8  C   UNK N   1      20.334  16.224   3.667  0.00  0.00    -0.008 A 
ENDROOT
BRANCH   1   9
HETATM    9  C   UNK N   1      21.119  18.517   2.956  0.00  0.00     0.157 C 
BRANCH   9  10
HETATM   10  N   UNK N   1      20.197  19.601   2.661  0.00  0.00    -0.405 N 
HETATM   11  H   UNK N   1      19.179  19.537   2.630  0.00  0.00     0.154 HD
BRANCH  10  12
HETATM   12  C   UNK N   1      20.996  20.792   2.416  0.00  0.00     0.171 C 
HETATM   13  C   UNK N   1      22.457  20.485   2.688  0.00  0.00     0.043 C 
BRANCH  12  14
HETATM   14  C   UNK N   1      20.823  21.270   1.001  0.00  0.00     0.162 C 
HETATM   15  O   UNK N   1      21.082  20.538   0.058  0.00  0.00    -0.648 OA
BRANCH  14  16
HETATM   16  O   UNK N   1      20.365  22.515   0.768  0.00  0.00    -0.775 OA
HETATM   17  H   UNK N   1      20.331  22.953  -0.060  0.00  0.00     0.167 HD
ENDBRANCH  14  16
ENDBRANCH  12  14
ENDBRANCH  10  12
ENDBRANCH   9  10
ENDBRANCH   1   9
BRANCH   2  18
HETATM   18  O   UNK N   1      20.099  17.836   0.386  0.00  0.00    -0.358 OA
HETATM   19  H   UNK N   1      19.847  18.735   0.470  0.00  0.00     0.217 HD
ENDBRANCH   2  18
BRANCH   8  20
HETATM   20  C   UNK N   1      20.877  16.418   5.051  0.00  0.00     0.221 C 
BRANCH  20  21
HETATM   21  O   UNK N   1      19.874  16.348   6.023  0.00  0.00    -0.292 OA
BRANCH  21  22
HETATM   22  P   UNK N   1      20.755  16.310   7.524  0.00  0.00     0.391 P 
HETATM   23  O   UNK N   1      21.097  17.737   7.015  0.00  0.00    -0.632 OA
BRANCH  22  24
HETATM   24  O   UNK N   1      20.302  17.284   8.887  0.00  0.00    -0.307 OA
HETATM   25  H   UNK N   1      19.483  17.778   9.047  0.00  0.00     0.222 HD
ENDBRANCH  22  24
BRANCH  22  26
HETATM   26  O   UNK N   1      19.047  16.228   7.829  0.00  0.00    -0.307 OA
HETATM   27  H   UNK N   1      18.427  15.502   8.002  0.00  0.00     0.222 HD
ENDBRANCH  22  26
ENDBRANCH  21  22
ENDBRANCH  20  21
ENDBRANCH   8  20
TORSDOF 11
ENDMDL
MODEL 2
REMARK VINA RESULT:      -5.8     12.303     13.736
REMARK  11 active torsions:
REMARK  status: ('A' for Active; 'I' for Inactive)
REMARK    1  A    between atoms: C_2  and  N_3 
REMARK    2  A    between atoms: C_2  and  C_20 
REMARK    3  A    between atoms: N_3  and  C_4 
REMARK    4  A    between atoms: C_4  and  C_5 
REMARK    5  A    between atoms: C_6  and  O_7 
REMARK    6  A    between atoms: C_13  and  C_14 
REMARK    7  A    between atoms: C_14  and  O_15 
REMARK    8  A    between atoms: O_15  and  P_16 
REMARK    9  A    between atoms: P_16  and  O_17 
REMARK   10  A    between atoms: P_16  and  O_18 
REMARK   11  A    between atoms: C_20  and  O_21 
ROOT
HETATM    1  C   UNK N   1      32.849  17.130   7.031  0.00  0.00     0.004 A 
HETATM    2  C   UNK N   1      32.550  16.998   5.661  0.00  0.00     0.096 A 
HETATM    3  C   UNK N   1      33.419  16.272   4.834  0.00  0.00     0.039 A 
HETATM    4  C   UNK N   1      33.139  16.128   3.377  0.00  0.00     0.071 C 
HETATM    5  N   UNK N   1      34.533  15.698   5.357  0.00  0.00    -0.367 N 
ATOM      6  HN  UNK N   1      35.153  15.168   4.744  1.00  0.00     0.165 HD
HETATM    7  C   UNK N   1      34.845  15.811   6.676  0.00  0.00     0.098 A 
HETATM    8  C   UNK N   1      34.014  16.527   7.540  0.00  0.00    -0.008 A 
ENDROOT
BRANCH   1   9
HETATM    9  C   UNK N   1      31.939  17.913   7.929  0.00  0.00     0.157 C 
BRANCH   9  10
HETATM   10  N   UNK N   1      30.784  17.107   8.284  0.00  0.00    -0.405 N 
HETATM   11  H   UNK N   1      30.800  16.152   8.645  0.00  0.00     0.154 HD
BRANCH  10  12
HETATM   12  C   UNK N   1      29.599  17.911   8.026  0.00  0.00     0.171 C 
HETATM   13  C   UNK N   1      28.646  17.135   7.136  0.00  0.00     0.043 C 
BRANCH  12  14
HETATM   14  C   UNK N   1      28.915  18.285   9.312  0.00  0.00     0.162 C 
HETATM   15  O   UNK N   1      29.551  18.753  10.244  0.00  0.00    -0.648 OA
BRANCH  14  16
HETATM   16  O   UNK N   1      27.585  18.116   9.434  0.00  0.00    -0.775 OA
HETATM   17  H   UNK N   1      26.921  18.755   9.261  0.00  0.00     0.167 HD
ENDBRANCH  14  16
ENDBRANCH  12  14
ENDBRANCH  10  12
ENDBRANCH   9  10
ENDBRANCH   1   9
BRANCH   2  18
HETATM   18  O   UNK N   1      31.443  17.567   5.146  0.00  0.00    -0.358 OA
HETATM   19  H   UNK N   1      30.571  17.385   5.440  0.00  0.00     0.217 HD
ENDBRANCH   2  18
BRANCH   8  20
HETATM   20  C   UNK N   1      34.435  16.674   8.971  0.00  0.00     0.221 C 
BRANCH  20  21
HETATM   21  O   UNK N   1      33.957  15.629   9.769  0.00  0.00    -0.292 OA
BRANCH  21  22
HETATM   22  P   UNK N   1      35.174  15.459  11.001  0.00  0.00     0.391 P 
HETATM   23  O   UNK N   1      35.858  14.739   9.807  0.00  0.00    -0.632 OA
BRANCH  22  24
HETATM   24  O   UNK N   1      36.696  16.289  10.919  0.00  0.00    -0.307 OA
HETATM   25  H   UNK N   1      37.531  16.007  10.514  0.00  0.00     0.222 HD
ENDBRANCH  22  24
BRANCH  22  26
HETATM   26  O   UNK N   1      34.967  17.134  10.592  0.00  0.00    -0.307 OA
HETATM   27  H   UNK N   1      34.310  17.626  10.075  0.00  0.00     0.222 HD
ENDBRANCH  22  26
ENDBRANCH  21  22
ENDBRANCH  20  21
ENDBRANCH   8  20
TORSDOF 11
ENDMDL
MODEL 3
REMARK VINA RESULT:      -5.7     11.661     13.273
REMARK  11 active torsions:
REMARK  status: ('A' for Active; 'I' for Inactive)
REMARK    1  A    between atoms: C_2  and  N_3 
REMARK    2  A    between atoms: C_2  and  C_20 
REMARK    3  A    between atoms: N_3  and  C_4 
REMARK    4  A    between atoms: C_4  and  C_5 
REMARK    5  A    between atoms: C_6  and  O_7 
REMARK    6  A    between atoms: C_13  and  C_14 
REMARK    7  A    between atoms: C_14  and  O_15 
REMARK    8  A    between atoms: O_15  and  P_16 
REMARK    9  A    between atoms: P_16  and  O_17 
REMARK   10  A    between atoms: P_16  and  O_18 
REMARK   11  A    between atoms: C_20  and  O_21 
ROOT
HETATM    1  C   UNK N   1      31.010  16.649   7.708  0.00  0.00     0.004 A 
HETATM    2  C   UNK N   1      30.070  17.145   8.632  0.00  0.00     0.096 A 
HETATM    3  C   UNK N   1      28.923  17.800   8.162  0.00  0.00     0.039 A 
HETATM    4  C   UNK N   1      27.918  18.351   9.116  0.00  0.00     0.071 C 
HETATM    5  N   UNK N   1      28.722  17.946   6.827  0.00  0.00    -0.367 N 
ATOM      6  HN  UNK N   1      27.880  18.419   6.500  1.00  0.00     0.165 HD
HETATM    7  C   UNK N   1      29.615  17.477   5.914  0.00  0.00     0.098 A 
HETATM    8  C   UNK N   1      30.774  16.821   6.331  0.00  0.00    -0.008 A 
ENDROOT
BRANCH   1   9
HETATM    9  C   UNK N   1      32.250  15.957   8.191  0.00  0.00     0.157 C 
BRANCH   9  10
HETATM   10  N   UNK N   1      32.951  16.808   9.137  0.00  0.00    -0.405 N 
HETATM   11  H   UNK N   1      32.547  17.267   9.954  0.00  0.00     0.154 HD
BRANCH  10  12
HETATM   12  C   UNK N   1      34.337  16.887   8.701  0.00  0.00     0.171 C 
HETATM   13  C   UNK N   1      34.689  15.642   7.909  0.00  0.00     0.043 C 
BRANCH  12  14
HETATM   14  C   UNK N   1      34.566  18.114   7.863  0.00  0.00     0.162 C 
HETATM   15  O   UNK N   1      34.962  19.153   8.370  0.00  0.00    -0.648 OA
BRANCH  14  16
HETATM   16  O   UNK N   1      34.347  18.065   6.535  0.00  0.00    -0.775 OA
HETATM   17  H   UNK N   1      33.722  18.570   6.052  0.00  0.00     0.167 HD
ENDBRANCH  14  16
ENDBRANCH  12  14
ENDBRANCH  10  12
ENDBRANCH   9  10
ENDBRANCH   1   9
BRANCH   2  18
HETATM   18  O   UNK N   1      30.271  16.998   9.956  0.00  0.00    -0.358 OA
HETATM   19  H   UNK N   1      29.595  16.792  10.572  0.00  0.00     0.217 HD
ENDBRANCH   2  18
BRANCH   8  20
HETATM   20  C   UNK N   1      31.755  16.378   5.288  0.00  0.00     0.221 C 
BRANCH  20  21
HETATM   21  O   UNK N   1      32.148  17.431   4.455  0.00  0.00    -0.292 OA
BRANCH  21  22
HETATM   22  P   UNK N   1      33.029  16.643   3.178  0.00  0.00     0.391 P 
HETATM   23  O   UNK N   1      33.521  15.843   4.415  0.00  0.00    -0.632 OA
BRANCH  22  24
HETATM   24  O   UNK N   1      32.694  15.011   2.693  0.00  0.00    -0.307 OA
HETATM   25  H   UNK N   1      32.942  14.547   1.878  0.00  0.00     0.222 HD
ENDBRANCH  22  24
BRANCH  22  26
HETATM   26  O   UNK N   1      31.324  16.371   2.986  0.00  0.00    -0.307 OA
HETATM   27  H   UNK N   1      30.561  16.424   3.583  0.00  0.00     0.222 HD
ENDBRANCH  22  26
ENDBRANCH  21  22
ENDBRANCH  20  21
ENDBRANCH   8  20
TORSDOF 11
ENDMDL
MODEL 4
REMARK VINA RESULT:      -5.7      2.571      4.815
REMARK  11 active torsions:
REMARK  status: ('A' for Active; 'I' for Inactive)
REMARK    1  A    between atoms: C_2  and  N_3 
REMARK    2  A    between atoms: C_2  and  C_20 
REMARK    3  A    between atoms: N_3  and  C_4 
REMARK    4  A    between atoms: C_4  and  C_5 
REMARK    5  A    between atoms: C_6  and  O_7 
REMARK    6  A    between atoms: C_13  and  C_14 
REMARK    7  A    between atoms: C_14  and  O_15 
REMARK    8  A    between atoms: O_15  and  P_16 
REMARK    9  A    between atoms: P_16  and  O_17 
REMARK   10  A    between atoms: P_16  and  O_18 
REMARK   11  A    between atoms: C_20  and  O_21 
ROOT
HETATM    1  C   UNK N   1      21.242  17.422   4.915  0.00  0.00     0.004 A 
HETATM    2  C   UNK N   1      21.031  17.592   6.297  0.00  0.00     0.096 A 
HETATM    3  C   UNK N   1      20.457  16.549   7.038  0.00  0.00     0.039 A 
HETATM    4  C   UNK N   1      20.204  16.703   8.499  0.00  0.00     0.071 C 
HETATM    5  N   UNK N   1      20.116  15.386   6.424  0.00  0.00    -0.367 N 
ATOM      6  HN  UNK N   1      19.705  14.634   6.977  1.00  0.00     0.165 HD
HETATM    7  C   UNK N   1      20.309  15.198   5.091  0.00  0.00     0.098 A 
HETATM    8  C   UNK N   1      20.874  16.207   4.308  0.00  0.00    -0.008 A 
ENDROOT
BRANCH   1   9
HETATM    9  C   UNK N   1      21.842  18.531   4.103  0.00  0.00     0.157 C 
BRANCH   9  10
HETATM   10  N   UNK N   1      20.815  19.500   3.758  0.00  0.00    -0.405 N 
HETATM   11  H   UNK N   1      19.860  19.522   4.115  0.00  0.00     0.154 HD
BRANCH  10  12
HETATM   12  C   UNK N   1      21.402  20.431   2.806  0.00  0.00     0.171 C 
HETATM   13  C   UNK N   1      22.915  20.347   2.886  0.00  0.00     0.043 C 
BRANCH  12  14
HETATM   14  C   UNK N   1      20.941  20.128   1.408  0.00  0.00     0.162 C 
HETATM   15  O   UNK N   1      21.327  20.801   0.464  0.00  0.00    -0.648 OA
BRANCH  14  16
HETATM   16  O   UNK N   1      20.106  19.095   1.189  0.00  0.00    -0.775 OA
HETATM   17  H   UNK N   1      19.363  18.857   1.708  0.00  0.00     0.167 HD
ENDBRANCH  14  16
ENDBRANCH  12  14
ENDBRANCH  10  12
ENDBRANCH   9  10
ENDBRANCH   1   9
BRANCH   2  18
HETATM   18  O   UNK N   1      21.370  18.745   6.903  0.00  0.00    -0.358 OA
HETATM   19  H   UNK N   1      21.537  18.829   7.822  0.00  0.00     0.217 HD
ENDBRANCH   2  18
BRANCH   8  20
HETATM   20  C   UNK N   1      21.008  15.973   2.834  0.00  0.00     0.221 C 
BRANCH  20  21
HETATM   21  O   UNK N   1      19.870  16.382   2.132  0.00  0.00    -0.292 OA
BRANCH  21  22
HETATM   22  P   UNK N   1      19.750  15.231   0.831  0.00  0.00     0.391 P 
HETATM   23  O   UNK N   1      18.963  14.497   1.951  0.00  0.00    -0.632 OA
BRANCH  22  24
HETATM   24  O   UNK N   1      18.247  14.889   0.034  0.00  0.00    -0.307 OA
HETATM   25  H   UNK N   1      17.746  15.431  -0.595  0.00  0.00     0.222 HD
ENDBRANCH  22  24
BRANCH  22  26
HETATM   26  O   UNK N   1      18.898  16.689   0.422  0.00  0.00    -0.307 OA
HETATM   27  H   UNK N   1      18.968  17.613   0.706  0.00  0.00     0.222 HD
ENDBRANCH  22  26
ENDBRANCH  21  22
ENDBRANCH  20  21
ENDBRANCH   8  20
TORSDOF 11
ENDMDL
MODEL 5
REMARK VINA RESULT:      -5.7      4.370      7.299
REMARK  11 active torsions:
REMARK  status: ('A' for Active; 'I' for Inactive)
REMARK    1  A    between atoms: C_2  and  N_3 
REMARK    2  A    between atoms: C_2  and  C_20 
REMARK    3  A    between atoms: N_3  and  C_4 
REMARK    4  A    between atoms: C_4  and  C_5 
REMARK    5  A    between atoms: C_6  and  O_7 
REMARK    6  A    between atoms: C_13  and  C_14 
REMARK    7  A    between atoms: C_14  and  O_15 
REMARK    8  A    between atoms: O_15  and  P_16 
REMARK    9  A    between atoms: P_16  and  O_17 
REMARK   10  A    between atoms: P_16  and  O_18 
REMARK   11  A    between atoms: C_20  and  O_21 
ROOT
HETATM    1  C   UNK N   1      25.361  18.294   4.415  0.00  0.00     0.004 A 
HETATM    2  C   UNK N   1      26.466  17.844   5.162  0.00  0.00     0.096 A 
HETATM    3  C   UNK N   1      27.679  18.543   5.083  0.00  0.00     0.039 A 
HETATM    4  C   UNK N   1      28.873  18.082   5.850  0.00  0.00     0.071 C 
HETATM    5  N   UNK N   1      27.779  19.646   4.298  0.00  0.00    -0.367 N 
ATOM      6  HN  UNK N   1      28.666  20.147   4.256  1.00  0.00     0.165 HD
HETATM    7  C   UNK N   1      26.727  20.100   3.566  0.00  0.00     0.098 A 
HETATM    8  C   UNK N   1      25.498  19.438   3.606  0.00  0.00    -0.008 A 
ENDROOT
BRANCH   1   9
HETATM    9  C   UNK N   1      24.058  17.553   4.474  0.00  0.00     0.157 C 
BRANCH   9  10
HETATM   10  N   UNK N   1      23.349  17.901   5.694  0.00  0.00    -0.405 N 
HETATM   11  H   UNK N   1      23.547  18.696   6.303  0.00  0.00     0.154 HD
BRANCH  10  12
HETATM   12  C   UNK N   1      22.306  16.906   5.887  0.00  0.00     0.171 C 
HETATM   13  C   UNK N   1      22.910  15.656   6.501  0.00  0.00     0.043 C 
BRANCH  12  14
HETATM   14  C   UNK N   1      21.214  17.439   6.772  0.00  0.00     0.162 C 
HETATM   15  O   UNK N   1      20.492  16.680   7.400  0.00  0.00    -0.648 OA
BRANCH  14  16
HETATM   16  O   UNK N   1      21.038  18.769   6.886  0.00  0.00    -0.775 OA
HETATM   17  H   UNK N   1      20.824  19.367   6.196  0.00  0.00     0.167 HD
ENDBRANCH  14  16
ENDBRANCH  12  14
ENDBRANCH  10  12
ENDBRANCH   9  10
ENDBRANCH   1   9
BRANCH   2  18
HETATM   18  O   UNK N   1      26.364  16.750   5.941  0.00  0.00    -0.358 OA
HETATM   19  H   UNK N   1      26.017  15.928   5.652  0.00  0.00     0.217 HD
ENDBRANCH   2  18
BRANCH   8  20
HETATM   20  C   UNK N   1      24.389  19.942   2.733  0.00  0.00     0.221 C 
BRANCH  20  21
HETATM   21  O   UNK N   1      23.474  20.724   3.446  0.00  0.00    -0.292 OA
BRANCH  21  22
HETATM   22  P   UNK N   1      21.953  20.392   2.668  0.00  0.00     0.391 P 
HETATM   23  O   UNK N   1      21.701  19.794   4.079  0.00  0.00    -0.632 OA
BRANCH  22  24
HETATM   24  O   UNK N   1      20.484  21.194   3.129  0.00  0.00    -0.307 OA
HETATM   25  H   UNK N   1      19.900  21.023   3.884  0.00  0.00     0.222 HD
ENDBRANCH  22  24
BRANCH  22  26
HETATM   26  O   UNK N   1      22.184  22.107   2.828  0.00  0.00    -0.307 OA
HETATM   27  H   UNK N   1      22.939  22.667   3.065  0.00  0.00     0.222 HD
ENDBRANCH  22  26
ENDBRANCH  21  22
ENDBRANCH  20  21
ENDBRANCH   8  20
TORSDOF 11
ENDMDL
MODEL 6
REMARK VINA RESULT:      -5.6     12.459     13.574
REMARK  11 active torsions:
REMARK  status: ('A' for Active; 'I' for Inactive)
REMARK    1  A    between atoms: C_2  and  N_3 
REMARK    2  A    between atoms: C_2  and  C_20 
REMARK    3  A    between atoms: N_3  and  C_4 
REMARK    4  A    between atoms: C_4  and  C_5 
REMARK    5  A    between atoms: C_6  and  O_7 
REMARK    6  A    between atoms: C_13  and  C_14 
REMARK    7  A    between atoms: C_14  and  O_15 
REMARK    8  A    between atoms: O_15  and  P_16 
REMARK    9  A    between atoms: P_16  and  O_17 
REMARK   10  A    between atoms: P_16  and  O_18 
REMARK   11  A    between atoms: C_20  and  O_21 
ROOT
HETATM    1  C   UNK N   1      28.126  23.387  -5.664  0.00  0.00     0.004 A 
HETATM    2  C   UNK N   1      27.872  22.520  -6.744  0.00  0.00     0.096 A 
HETATM    3  C   UNK N   1      26.554  22.342  -7.188  0.00  0.00     0.039 A 
HETATM    4  C   UNK N   1      26.250  21.418  -8.318  0.00  0.00     0.071 C 
HETATM    5  N   UNK N   1      25.537  23.008  -6.583  0.00  0.00    -0.367 N 
ATOM      6  HN  UNK N   1      24.584  22.873  -6.920  1.00  0.00     0.165 HD
HETATM    7  C   UNK N   1      25.756  23.849  -5.537  0.00  0.00     0.098 A 
HETATM    8  C   UNK N   1      27.049  24.058  -5.055  0.00  0.00    -0.008 A 
ENDROOT
BRANCH   1   9
HETATM    9  C   UNK N   1      29.527  23.580  -5.165  0.00  0.00     0.157 C 
BRANCH   9  10
HETATM   10  N   UNK N   1      30.021  22.339  -4.592  0.00  0.00    -0.405 N 
HETATM   11  H   UNK N   1      29.518  21.452  -4.544  0.00  0.00     0.154 HD
BRANCH  10  12
HETATM   12  C   UNK N   1      31.365  22.597  -4.097  0.00  0.00     0.171 C 
HETATM   13  C   UNK N   1      31.735  24.043  -4.371  0.00  0.00     0.043 C 
BRANCH  12  14
HETATM   14  C   UNK N   1      31.456  22.311  -2.624  0.00  0.00     0.162 C 
HETATM   15  O   UNK N   1      30.779  22.937  -1.823  0.00  0.00    -0.648 OA
BRANCH  14  16
HETATM   16  O   UNK N   1      32.282  21.344  -2.181  0.00  0.00    -0.775 OA
HETATM   17  H   UNK N   1      32.674  21.287  -1.332  0.00  0.00     0.167 HD
ENDBRANCH  14  16
ENDBRANCH  12  14
ENDBRANCH  10  12
ENDBRANCH   9  10
ENDBRANCH   1   9
BRANCH   2  18
HETATM   18  O   UNK N   1      28.883  21.862  -7.343  0.00  0.00    -0.358 OA
HETATM   19  H   UNK N   1      29.493  21.310  -6.893  0.00  0.00     0.217 HD
ENDBRANCH   2  18
BRANCH   8  20
HETATM   20  C   UNK N   1      27.229  24.947  -3.861  0.00  0.00     0.221 C 
BRANCH  20  21
HETATM   21  O   UNK N   1      26.060  25.648  -3.548  0.00  0.00    -0.292 OA
BRANCH  21  22
HETATM   22  P   UNK N   1      26.484  27.311  -3.841  0.00  0.00     0.391 P 
HETATM   23  O   UNK N   1      25.243  27.155  -4.761  0.00  0.00    -0.632 OA
BRANCH  22  24
HETATM   24  O   UNK N   1      25.487  28.628  -3.308  0.00  0.00    -0.307 OA
HETATM   25  H   UNK N   1      24.531  28.757  -3.407  0.00  0.00     0.222 HD
ENDBRANCH  22  24
BRANCH  22  26
HETATM   26  O   UNK N   1      25.979  27.102  -2.192  0.00  0.00    -0.307 OA
HETATM   27  H   UNK N   1      25.764  26.331  -1.645  0.00  0.00     0.222 HD
ENDBRANCH  22  26
ENDBRANCH  21  22
ENDBRANCH  20  21
ENDBRANCH   8  20
TORSDOF 11
ENDMDL
MODEL 7
REMARK VINA RESULT:      -5.6     10.888     12.223
REMARK  11 active torsions:
REMARK  status: ('A' for Active; 'I' for Inactive)
REMARK    1  A    between atoms: C_2  and  N_3 
REMARK    2  A    between atoms: C_2  and  C_20 
REMARK    3  A    between atoms: N_3  and  C_4 
REMARK    4  A    between atoms: C_4  and  C_5 
REMARK    5  A    between atoms: C_6  and  O_7 
REMARK    6  A    between atoms: C_13  and  C_14 
REMARK    7  A    between atoms: C_14  and  O_15 
REMARK    8  A    between atoms: O_15  and  P_16 
REMARK    9  A    between atoms: P_16  and  O_17 
REMARK   10  A    between atoms: P_16  and  O_18 
REMARK   11  A    between atoms: C_20  and  O_21 
ROOT
HETATM    1  C   UNK N   1      31.507  16.298   6.071  0.00  0.00     0.004 A 
HETATM    2  C   UNK N   1      32.536  16.139   5.123  0.00  0.00     0.096 A 
HETATM    3  C   UNK N   1      32.218  16.131   3.757  0.00  0.00     0.039 A 
HETATM    4  C   UNK N   1      33.282  15.948   2.729  0.00  0.00     0.071 C 
HETATM    5  N   UNK N   1      30.928  16.283   3.359  0.00  0.00    -0.367 N 
ATOM      6  HN  UNK N   1      30.713  16.281   2.362  1.00  0.00     0.165 HD
HETATM    7  C   UNK N   1      29.917  16.437   4.254  0.00  0.00     0.098 A 
HETATM    8  C   UNK N   1      30.180  16.448   5.625  0.00  0.00    -0.008 A 
ENDROOT
BRANCH   1   9
HETATM    9  C   UNK N   1      31.825  16.296   7.537  0.00  0.00     0.157 C 
BRANCH   9  10
HETATM   10  N   UNK N   1      32.160  17.642   7.970  0.00  0.00    -0.405 N 
HETATM   11  H   UNK N   1      31.646  18.495   7.747  0.00  0.00     0.154 HD
BRANCH  10  12
HETATM   12  C   UNK N   1      33.367  17.548   8.778  0.00  0.00     0.171 C 
HETATM   13  C   UNK N   1      33.712  16.087   9.001  0.00  0.00     0.043 C 
BRANCH  12  14
HETATM   14  C   UNK N   1      34.514  18.253   8.110  0.00  0.00     0.162 C 
HETATM   15  O   UNK N   1      34.706  18.136   6.909  0.00  0.00    -0.648 OA
BRANCH  14  16
HETATM   16  O   UNK N   1      35.333  19.035   8.840  0.00  0.00    -0.775 OA
HETATM   17  H   UNK N   1      35.679  19.869   8.590  0.00  0.00     0.167 HD
ENDBRANCH  14  16
ENDBRANCH  12  14
ENDBRANCH  10  12
ENDBRANCH   9  10
ENDBRANCH   1   9
BRANCH   2  18
HETATM   18  O   UNK N   1      33.814  15.990   5.521  0.00  0.00    -0.358 OA
HETATM   19  H   UNK N   1      34.228  16.521   6.174  0.00  0.00     0.217 HD
ENDBRANCH   2  18
BRANCH   8  20
HETATM   20  C   UNK N   1      29.023  16.558   6.572  0.00  0.00     0.221 C 
BRANCH  20  21
HETATM   21  O   UNK N   1      28.461  17.839   6.566  0.00  0.00    -0.292 OA
BRANCH  21  22
HETATM   22  P   UNK N   1      28.622  18.369   8.216  0.00  0.00     0.391 P 
HETATM   23  O   UNK N   1      27.866  19.572   7.591  0.00  0.00    -0.632 OA
BRANCH  22  24
HETATM   24  O   UNK N   1      27.259  18.514   9.279  0.00  0.00    -0.307 OA
HETATM   25  H   UNK N   1      26.312  18.436   9.082  0.00  0.00     0.222 HD
ENDBRANCH  22  24
BRANCH  22  26
HETATM   26  O   UNK N   1      27.598  16.969   8.134  0.00  0.00    -0.307 OA
HETATM   27  H   UNK N   1      27.635  16.133   7.643  0.00  0.00     0.222 HD
ENDBRANCH  22  26
ENDBRANCH  21  22
ENDBRANCH  20  21
ENDBRANCH   8  20
TORSDOF 11
ENDMDL
MODEL 8
REMARK VINA RESULT:      -5.6      4.260      6.471
REMARK  11 active torsions:
REMARK  status: ('A' for Active; 'I' for Inactive)
REMARK    1  A    between atoms: C_2  and  N_3 
REMARK    2  A    between atoms: C_2  and  C_20 
REMARK    3  A    between atoms: N_3  and  C_4 
REMARK    4  A    between atoms: C_4  and  C_5 
REMARK    5  A    between atoms: C_6  and  O_7 
REMARK    6  A    between atoms: C_13  and  C_14 
REMARK    7  A    between atoms: C_14  and  O_15 
REMARK    8  A    between atoms: O_15  and  P_16 
REMARK    9  A    between atoms: P_16  and  O_17 
REMARK   10  A    between atoms: P_16  and  O_18 
REMARK   11  A    between atoms: C_20  and  O_21 
ROOT
HETATM    1  C   UNK N   1      23.505  17.971   4.706  0.00  0.00     0.004 A 
HETATM    2  C   UNK N   1      23.805  16.857   5.513  0.00  0.00     0.096 A 
HETATM    3  C   UNK N   1      22.772  15.992   5.902  0.00  0.00     0.039 A 
HETATM    4  C   UNK N   1      23.055  14.813   6.770  0.00  0.00     0.071 C 
HETATM    5  N   UNK N   1      21.499  16.226   5.493  0.00  0.00    -0.367 N 
ATOM      6  HN  UNK N   1      20.759  15.584   5.779  1.00  0.00     0.165 HD
HETATM    7  C   UNK N   1      21.183  17.295   4.714  0.00  0.00     0.098 A 
HETATM    8  C   UNK N   1      22.174  18.189   4.304  0.00  0.00    -0.008 A 
ENDROOT
BRANCH   1   9
HETATM    9  C   UNK N   1      24.593  18.917   4.291  0.00  0.00     0.157 C 
BRANCH   9  10
HETATM   10  N   UNK N   1      25.245  19.464   5.469  0.00  0.00    -0.405 N 
HETATM   11  H   UNK N   1      24.904  19.410   6.429  0.00  0.00     0.154 HD
BRANCH  10  12
HETATM   12  C   UNK N   1      26.473  20.104   5.025  0.00  0.00     0.171 C 
HETATM   13  C   UNK N   1      26.789  21.276   5.936  0.00  0.00     0.043 C 
BRANCH  12  14
HETATM   14  C   UNK N   1      27.616  19.127   5.025  0.00  0.00     0.162 C 
HETATM   15  O   UNK N   1      27.606  18.154   5.763  0.00  0.00    -0.648 OA
BRANCH  14  16
HETATM   16  O   UNK N   1      28.657  19.318   4.192  0.00  0.00    -0.775 OA
HETATM   17  H   UNK N   1      29.254  18.664   3.882  0.00  0.00     0.167 HD
ENDBRANCH  14  16
ENDBRANCH  12  14
ENDBRANCH  10  12
ENDBRANCH   9  10
ENDBRANCH   1   9
BRANCH   2  18
HETATM   18  O   UNK N   1      25.069  16.627   5.915  0.00  0.00    -0.358 OA
HETATM   19  H   UNK N   1      25.666  17.297   6.187  0.00  0.00     0.217 HD
ENDBRANCH   2  18
BRANCH   8  20
HETATM   20  C   UNK N   1      21.764  19.384   3.498  0.00  0.00     0.221 C 
BRANCH  20  21
HETATM   21  O   UNK N   1      21.231  19.023   2.256  0.00  0.00    -0.292 OA
BRANCH  21  22
HETATM   22  P   UNK N   1      20.686  20.533   1.584  0.00  0.00     0.391 P 
HETATM   23  O   UNK N   1      22.210  20.799   1.713  0.00  0.00    -0.632 OA
BRANCH  22  24
HETATM   24  O   UNK N   1      21.091  21.028  -0.029  0.00  0.00    -0.307 OA
HETATM   25  H   UNK N   1      21.137  21.920  -0.407  0.00  0.00     0.222 HD
ENDBRANCH  22  24
BRANCH  22  26
HETATM   26  O   UNK N   1      20.444  19.247   0.442  0.00  0.00    -0.307 OA
HETATM   27  H   UNK N   1      20.167  18.320   0.518  0.00  0.00     0.222 HD
ENDBRANCH  22  26
ENDBRANCH  21  22
ENDBRANCH  20  21
ENDBRANCH   8  20
TORSDOF 11
ENDMDL
MODEL 9
REMARK VINA RESULT:      -5.6     12.239     14.277
REMARK  11 active torsions:
REMARK  status: ('A' for Active; 'I' for Inactive)
REMARK    1  A    between atoms: C_2  and  N_3 
REMARK    2  A    between atoms: C_2  and  C_20 
REMARK    3  A    between atoms: N_3  and  C_4 
REMARK    4  A    between atoms: C_4  and  C_5 
REMARK    5  A    between atoms: C_6  and  O_7 
REMARK    6  A    between atoms: C_13  and  C_14 
REMARK    7  A    between atoms: C_14  and  O_15 
REMARK    8  A    between atoms: O_15  and  P_16 
REMARK    9  A    between atoms: P_16  and  O_17 
REMARK   10  A    between atoms: P_16  and  O_18 
REMARK   11  A    between atoms: C_20  and  O_21 
ROOT
HETATM    1  C   UNK N   1      27.577  26.131  -4.968  0.00  0.00     0.004 A 
HETATM    2  C   UNK N   1      27.572  27.423  -4.408  0.00  0.00     0.096 A 
HETATM    3  C   UNK N   1      26.374  28.150  -4.369  0.00  0.00     0.039 A 
HETATM    4  C   UNK N   1      26.338  29.527  -3.798  0.00  0.00     0.071 C 
HETATM    5  N   UNK N   1      25.231  27.606  -4.862  0.00  0.00    -0.367 N 
ATOM      6  HN  UNK N   1      24.366  28.144  -4.821  1.00  0.00     0.165 HD
HETATM    7  C   UNK N   1      25.211  26.360  -5.408  0.00  0.00     0.098 A 
HETATM    8  C   UNK N   1      26.377  25.597  -5.475  0.00  0.00    -0.008 A 
ENDROOT
BRANCH   1   9
HETATM    9  C   UNK N   1      28.851  25.342  -5.031  0.00  0.00     0.157 C 
BRANCH   9  10
HETATM   10  N   UNK N   1      29.315  25.047  -3.686  0.00  0.00    -0.405 N 
HETATM   11  H   UNK N   1      29.534  25.728  -2.958  0.00  0.00     0.154 HD
BRANCH  10  12
HETATM   12  C   UNK N   1      29.411  23.600  -3.569  0.00  0.00     0.171 C 
HETATM   13  C   UNK N   1      30.741  23.136  -4.135  0.00  0.00     0.043 C 
BRANCH  12  14
HETATM   14  C   UNK N   1      29.282  23.168  -2.135  0.00  0.00     0.162 C 
HETATM   15  O   UNK N   1      28.183  22.990  -1.633  0.00  0.00    -0.648 OA
BRANCH  14  16
HETATM   16  O   UNK N   1      30.390  22.960  -1.398  0.00  0.00    -0.775 OA
HETATM   17  H   UNK N   1      30.694  22.139  -1.064  0.00  0.00     0.167 HD
ENDBRANCH  14  16
ENDBRANCH  12  14
ENDBRANCH  10  12
ENDBRANCH   9  10
ENDBRANCH   1   9
BRANCH   2  18
HETATM   18  O   UNK N   1      28.706  27.959  -3.919  0.00  0.00    -0.358 OA
HETATM   19  H   UNK N   1      29.498  27.478  -3.777  0.00  0.00     0.217 HD
ENDBRANCH   2  18
BRANCH   8  20
HETATM   20  C   UNK N   1      26.314  24.256  -6.142  0.00  0.00     0.221 C 
BRANCH  20  21
HETATM   21  O   UNK N   1      25.535  24.284  -7.303  0.00  0.00    -0.292 OA
BRANCH  21  22
HETATM   22  P   UNK N   1      25.483  22.619  -7.807  0.00  0.00     0.391 P 
HETATM   23  O   UNK N   1      24.819  22.525  -6.406  0.00  0.00    -0.632 OA
BRANCH  22  24
HETATM   24  O   UNK N   1      23.993  21.811  -8.181  0.00  0.00    -0.307 OA
HETATM   25  H   UNK N   1      23.771  21.247  -8.937  0.00  0.00     0.222 HD
ENDBRANCH  22  24
BRANCH  22  26
HETATM   26  O   UNK N   1      24.471  23.588  -8.834  0.00  0.00    -0.307 OA
HETATM   27  H   UNK N   1      23.808  24.277  -8.672  0.00  0.00     0.222 HD
ENDBRANCH  22  26
ENDBRANCH  21  22
ENDBRANCH  20  21
ENDBRANCH   8  20
TORSDOF 11
ENDMDL
