MODEL 1
REMARK VINA RESULT:      -6.4      0.000      0.000
REMARK  7 active torsions:
REMARK  status: ('A' for Active; 'I' for Inactive)
REMARK    1  A    between atoms: O_2  and  N_3 
REMARK    2  A    between atoms: C_4  and  N_3 
REMARK    3  A    between atoms: C_6  and  C_20 
REMARK    4  A    between atoms: N_7  and  S_9 
REMARK    5  A    between atoms: S_9  and  C_12 
REMARK    6  A    between atoms: C_15  and  O_16 
REMARK       I    between atoms: C_20  and  N_22 
REMARK    7  A    between atoms: N_22  and  O_23 
ROOT
HETATM    1  C   UNK N   1      34.267  16.682   9.262  0.00  0.00     0.122 C 
HETATM    2  C   UNK N   1      34.323  17.532   8.007  0.00  0.00     0.058 C 
HETATM    3  C   UNK N   1      34.443  16.479   6.910  0.00  0.00     0.170 C 
HETATM    4  N   UNK N   1      34.045  15.170   7.458  0.00  0.00    -0.191 NA
HETATM    5  C   UNK N   1      34.630  15.279   8.795  0.00  0.00     0.135 C 
ENDROOT
BRANCH   4   6
HETATM    6  S   UNK N   1      32.251  14.992   7.654  0.00  0.00     0.244 S 
HETATM    7  O   UNK N   1      31.830  14.045   6.516  0.00  0.00    -0.206 OA
HETATM    8  O   UNK N   1      32.021  14.061   8.854  0.00  0.00    -0.206 OA
BRANCH   6   9
HETATM    9  C   UNK N   1      31.057  16.333   7.690  0.00  0.00     0.074 A 
HETATM   10  C   UNK N   1      30.718  16.975   8.884  0.00  0.00     0.027 A 
HETATM   11  C   UNK N   1      29.694  17.930   8.901  0.00  0.00     0.038 A 
HETATM   12  C   UNK N   1      28.993  18.239   7.721  0.00  0.00     0.068 A 
HETATM   13  C   UNK N   1      29.339  17.595   6.531  0.00  0.00     0.038 A 
HETATM   14  C   UNK N   1      30.360  16.643   6.517  0.00  0.00     0.027 A 
BRANCH  12  15
HETATM   15  O   UNK N   1      27.981  19.139   7.706  0.00  0.00    -0.356 OA
HETATM   16  C   UNK N   1      27.656  19.891   6.602  0.00  0.00     0.210 C 
ENDBRANCH  12  15
ENDBRANCH   6   9
ENDBRANCH   4   6
BRANCH   3  17
HETATM   17  C   UNK N   1      33.885  16.853   5.560  0.00  0.00     0.260 C 
HETATM   18  O   UNK N   1      33.530  17.995   5.334  0.00  0.00    -0.270 OA
HETATM   19  N   UNK N   1      33.745  15.899   4.611  0.00  0.00    -0.236 N 
HETATM   20  H   UNK N   1      34.007  14.972   4.810  0.00  0.00     0.197 HD
BRANCH  19  21
HETATM   21  O   UNK N   1      33.251  16.206   3.401  0.00  0.00    -0.287 OA
HETATM   22  H   UNK N   1      33.776  16.728   2.774  0.00  0.00     0.244 HD
ENDBRANCH  19  21
ENDBRANCH   3  17
BRANCH   1  23
HETATM   23  N   UNK N   1      35.061  17.177  10.385  0.00  0.00    -0.297 N 
HETATM   24  H   UNK N   1      34.837  17.999  10.946  0.00  0.00     0.188 HD
BRANCH  23  25
HETATM   25  O   UNK N   1      36.139  16.376  10.565  0.00  0.00    -0.290 OA
HETATM   26  C   UNK N   1      35.916  15.764  11.798  0.00  0.00     0.237 C 
ENDBRANCH  23  25
ENDBRANCH   1  23
TORSDOF 7
ENDMDL
MODEL 2
REMARK VINA RESULT:      -6.3      2.018      4.649
REMARK  7 active torsions:
REMARK  status: ('A' for Active; 'I' for Inactive)
REMARK    1  A    between atoms: O_2  and  N_3 
REMARK    2  A    between atoms: C_4  and  N_3 
REMARK    3  A    between atoms: C_6  and  C_20 
REMARK    4  A    between atoms: N_7  and  S_9 
REMARK    5  A    between atoms: S_9  and  C_12 
REMARK    6  A    between atoms: C_15  and  O_16 
REMARK       I    between atoms: C_20  and  N_22 
REMARK    7  A    between atoms: N_22  and  O_23 
ROOT
HETATM    1  C   UNK N   1      33.703  14.412   5.582  0.00  0.00     0.122 C 
HETATM    2  C   UNK N   1      33.489  14.030   7.034  0.00  0.00     0.058 C 
HETATM    3  C   UNK N   1      34.596  14.809   7.739  0.00  0.00     0.170 C 
HETATM    4  N   UNK N   1      35.090  15.862   6.832  0.00  0.00    -0.191 NA
HETATM    5  C   UNK N   1      35.045  15.132   5.565  0.00  0.00     0.135 C 
ENDROOT
BRANCH   4   6
HETATM    6  S   UNK N   1      33.962  17.275   6.696  0.00  0.00     0.244 S 
HETATM    7  O   UNK N   1      34.660  18.404   7.477  0.00  0.00    -0.206 OA
HETATM    8  O   UNK N   1      34.108  17.828   5.270  0.00  0.00    -0.206 OA
BRANCH   6   9
HETATM    9  C   UNK N   1      32.233  17.294   7.180  0.00  0.00     0.074 A 
HETATM   10  C   UNK N   1      31.222  16.929   6.287  0.00  0.00     0.027 A 
HETATM   11  C   UNK N   1      29.878  17.073   6.651  0.00  0.00     0.038 A 
HETATM   12  C   UNK N   1      29.537  17.598   7.912  0.00  0.00     0.068 A 
HETATM   13  C   UNK N   1      30.553  17.958   8.800  0.00  0.00     0.038 A 
HETATM   14  C   UNK N   1      31.892  17.813   8.434  0.00  0.00     0.027 A 
BRANCH  12  15
HETATM   15  O   UNK N   1      28.248  17.774   8.288  0.00  0.00    -0.356 OA
HETATM   16  C   UNK N   1      27.720  17.244   9.442  0.00  0.00     0.210 C 
ENDBRANCH  12  15
ENDBRANCH   6   9
ENDBRANCH   4   6
BRANCH   3  17
HETATM   17  C   UNK N   1      34.328  15.208   9.168  0.00  0.00     0.260 C 
HETATM   18  O   UNK N   1      35.074  15.977   9.744  0.00  0.00    -0.270 OA
HETATM   19  N   UNK N   1      33.270  14.672   9.820  0.00  0.00    -0.236 N 
HETATM   20  H   UNK N   1      32.687  14.029   9.357  0.00  0.00     0.197 HD
BRANCH  19  21
HETATM   21  O   UNK N   1      33.008  15.011  11.092  0.00  0.00    -0.287 OA
HETATM   22  H   UNK N   1      33.731  15.125  11.729  0.00  0.00     0.244 HD
ENDBRANCH  19  21
ENDBRANCH   3  17
BRANCH   1  23
HETATM   23  N   UNK N   1      33.588  13.313   4.626  0.00  0.00    -0.297 N 
HETATM   24  H   UNK N   1      34.354  12.709   4.329  0.00  0.00     0.188 HD
BRANCH  23  25
HETATM   25  O   UNK N   1      32.306  13.222   4.193  0.00  0.00    -0.290 OA
HETATM   26  C   UNK N   1      32.086  14.413   3.504  0.00  0.00     0.237 C 
ENDBRANCH  23  25
ENDBRANCH   1  23
TORSDOF 7
ENDMDL
MODEL 3
REMARK VINA RESULT:      -6.2      2.173      6.176
REMARK  7 active torsions:
REMARK  status: ('A' for Active; 'I' for Inactive)
REMARK    1  A    between atoms: O_2  and  N_3 
REMARK    2  A    between atoms: C_4  and  N_3 
REMARK    3  A    between atoms: C_6  and  C_20 
REMARK    4  A    between atoms: N_7  and  S_9 
REMARK    5  A    between atoms: S_9  and  C_12 
REMARK    6  A    between atoms: C_15  and  O_16 
REMARK       I    between atoms: C_20  and  N_22 
REMARK    7  A    between atoms: N_22  and  O_23 
ROOT
HETATM    1  C   UNK N   1      31.678  17.541   8.380  0.00  0.00     0.122 C 
HETATM    2  C   UNK N   1      31.478  16.110   8.841  0.00  0.00     0.058 C 
HETATM    3  C   UNK N   1      31.837  15.316   7.588  0.00  0.00     0.170 C 
HETATM    4  N   UNK N   1      32.588  16.189   6.667  0.00  0.00    -0.191 NA
HETATM    5  C   UNK N   1      31.858  17.441   6.872  0.00  0.00     0.135 C 
ENDROOT
BRANCH   4   6
HETATM    6  S   UNK N   1      34.305  16.462   7.181  0.00  0.00     0.244 S 
HETATM    7  O   UNK N   1      35.149  15.807   6.073  0.00  0.00    -0.206 OA
HETATM    8  O   UNK N   1      34.627  17.939   6.903  0.00  0.00    -0.206 OA
BRANCH   6   9
HETATM    9  C   UNK N   1      35.027  15.969   8.750  0.00  0.00     0.074 A 
HETATM   10  C   UNK N   1      35.594  14.705   8.928  0.00  0.00     0.027 A 
HETATM   11  C   UNK N   1      36.035  14.304  10.195  0.00  0.00     0.038 A 
HETATM   12  C   UNK N   1      35.898  15.167  11.298  0.00  0.00     0.068 A 
HETATM   13  C   UNK N   1      35.333  16.431  11.113  0.00  0.00     0.038 A 
HETATM   14  C   UNK N   1      34.894  16.827   9.848  0.00  0.00     0.027 A 
BRANCH  12  15
HETATM   15  O   UNK N   1      36.291  14.803  12.542  0.00  0.00    -0.356 OA
HETATM   16  C   UNK N   1      35.646  13.843  13.286  0.00  0.00     0.210 C 
ENDBRANCH  12  15
ENDBRANCH   6   9
ENDBRANCH   4   6
BRANCH   3  17
HETATM   17  C   UNK N   1      32.382  13.928   7.810  0.00  0.00     0.260 C 
HETATM   18  O   UNK N   1      32.782  13.265   6.871  0.00  0.00    -0.270 OA
HETATM   19  N   UNK N   1      32.387  13.407   9.059  0.00  0.00    -0.236 N 
HETATM   20  H   UNK N   1      32.035  13.938   9.809  0.00  0.00     0.197 HD
BRANCH  19  21
HETATM   21  O   UNK N   1      32.867  12.174   9.283  0.00  0.00    -0.287 OA
HETATM   22  H   UNK N   1      33.712  12.051   9.743  0.00  0.00     0.244 HD
ENDBRANCH  19  21
ENDBRANCH   3  17
BRANCH   1  23
HETATM   23  N   UNK N   1      30.648  18.484   8.811  0.00  0.00    -0.297 N 
HETATM   24  H   UNK N   1      30.776  19.217   9.509  0.00  0.00     0.188 HD
BRANCH  23  25
HETATM   25  O   UNK N   1      29.496  18.233   8.142  0.00  0.00    -0.290 OA
HETATM   26  C   UNK N   1      28.500  18.340   9.111  0.00  0.00     0.237 C 
ENDBRANCH  23  25
ENDBRANCH   1  23
TORSDOF 7
ENDMDL
MODEL 4
REMARK VINA RESULT:      -5.8      2.177      4.347
REMARK  7 active torsions:
REMARK  status: ('A' for Active; 'I' for Inactive)
REMARK    1  A    between atoms: O_2  and  N_3 
REMARK    2  A    between atoms: C_4  and  N_3 
REMARK    3  A    between atoms: C_6  and  C_20 
REMARK    4  A    between atoms: N_7  and  S_9 
REMARK    5  A    between atoms: S_9  and  C_12 
REMARK    6  A    between atoms: C_15  and  O_16 
REMARK       I    between atoms: C_20  and  N_22 
REMARK    7  A    between atoms: N_22  and  O_23 
ROOT
HETATM    1  C   UNK N   1      32.946  13.892   6.526  0.00  0.00     0.122 C 
HETATM    2  C   UNK N   1      32.866  13.972   8.039  0.00  0.00     0.058 C 
HETATM    3  C   UNK N   1      34.193  14.633   8.396  0.00  0.00     0.170 C 
HETATM    4  N   UNK N   1      34.756  15.262   7.187  0.00  0.00    -0.191 NA
HETATM    5  C   UNK N   1      34.388  14.250   6.195  0.00  0.00     0.135 C 
ENDROOT
BRANCH   4   6
HETATM    6  S   UNK N   1      33.926  16.808   6.733  0.00  0.00     0.244 S 
HETATM    7  O   UNK N   1      34.842  17.916   7.282  0.00  0.00    -0.206 OA
HETATM    8  O   UNK N   1      34.156  17.014   5.227  0.00  0.00    -0.206 OA
BRANCH   6   9
HETATM    9  C   UNK N   1      32.241  17.263   7.156  0.00  0.00     0.074 A 
HETATM   10  C   UNK N   1      31.914  17.759   8.421  0.00  0.00     0.027 A 
HETATM   11  C   UNK N   1      30.576  17.987   8.762  0.00  0.00     0.038 A 
HETATM   12  C   UNK N   1      29.551  17.706   7.839  0.00  0.00     0.068 A 
HETATM   13  C   UNK N   1      29.885  17.213   6.576  0.00  0.00     0.038 A 
HETATM   14  C   UNK N   1      31.221  16.987   6.239  0.00  0.00     0.027 A 
BRANCH  12  15
HETATM   15  O   UNK N   1      28.245  17.891   8.144  0.00  0.00    -0.356 OA
HETATM   16  C   UNK N   1      27.660  17.396   9.287  0.00  0.00     0.210 C 
ENDBRANCH  12  15
ENDBRANCH   6   9
ENDBRANCH   4   6
BRANCH   3  17
HETATM   17  C   UNK N   1      34.213  15.450   9.663  0.00  0.00     0.260 C 
HETATM   18  O   UNK N   1      33.400  15.242  10.544  0.00  0.00    -0.270 OA
HETATM   19  N   UNK N   1      35.120  16.445   9.799  0.00  0.00    -0.236 N 
HETATM   20  H   UNK N   1      35.757  16.626   9.070  0.00  0.00     0.197 HD
BRANCH  19  21
HETATM   21  O   UNK N   1      35.160  17.186  10.917  0.00  0.00    -0.287 OA
HETATM   22  H   UNK N   1      35.717  16.919  11.665  0.00  0.00     0.244 HD
ENDBRANCH  19  21
ENDBRANCH   3  17
BRANCH   1  23
HETATM   23  N   UNK N   1      32.480  12.635   5.943  0.00  0.00    -0.297 N 
HETATM   24  H   UNK N   1      32.088  12.530   5.008  0.00  0.00     0.188 HD
BRANCH  23  25
HETATM   25  O   UNK N   1      32.647  11.631   6.839  0.00  0.00    -0.290 OA
HETATM   26  C   UNK N   1      33.050  10.542   6.068  0.00  0.00     0.237 C 
ENDBRANCH  23  25
ENDBRANCH   1  23
TORSDOF 7
ENDMDL
MODEL 5
REMARK VINA RESULT:      -5.7     10.842     12.756
REMARK  7 active torsions:
REMARK  status: ('A' for Active; 'I' for Inactive)
REMARK    1  A    between atoms: O_2  and  N_3 
REMARK    2  A    between atoms: C_4  and  N_3 
REMARK    3  A    between atoms: C_6  and  C_20 
REMARK    4  A    between atoms: N_7  and  S_9 
REMARK    5  A    between atoms: S_9  and  C_12 
REMARK    6  A    between atoms: C_15  and  O_16 
REMARK       I    between atoms: C_20  and  N_22 
REMARK    7  A    between atoms: N_22  and  O_23 
ROOT
HETATM    1  C   UNK N   1      20.915  15.858   3.577  0.00  0.00     0.122 C 
HETATM    2  C   UNK N   1      21.334  17.115   2.839  0.00  0.00     0.058 C 
HETATM    3  C   UNK N   1      20.479  18.183   3.513  0.00  0.00     0.170 C 
HETATM    4  N   UNK N   1      19.970  17.652   4.791  0.00  0.00    -0.191 NA
HETATM    5  C   UNK N   1      19.695  16.273   4.388  0.00  0.00     0.135 C 
ENDROOT
BRANCH   4   6
HETATM    6  S   UNK N   1      21.226  17.606   6.097  0.00  0.00     0.244 S 
HETATM    7  O   UNK N   1      22.537  17.987   5.387  0.00  0.00    -0.206 OA
HETATM    8  O   UNK N   1      21.028  18.867   6.953  0.00  0.00    -0.206 OA
BRANCH   6   9
HETATM    9  C   UNK N   1      21.592  16.205   7.159  0.00  0.00     0.074 A 
HETATM   10  C   UNK N   1      22.574  15.270   6.821  0.00  0.00     0.027 A 
HETATM   11  C   UNK N   1      22.750  14.122   7.603  0.00  0.00     0.038 A 
HETATM   12  C   UNK N   1      21.933  13.897   8.725  0.00  0.00     0.068 A 
HETATM   13  C   UNK N   1      20.955  14.837   9.059  0.00  0.00     0.038 A 
HETATM   14  C   UNK N   1      20.781  15.980   8.277  0.00  0.00     0.027 A 
BRANCH  12  15
HETATM   15  O   UNK N   1      22.059  12.786   9.490  0.00  0.00    -0.356 OA
HETATM   16  C   UNK N   1      21.299  12.552  10.612  0.00  0.00     0.210 C 
ENDBRANCH  12  15
ENDBRANCH   6   9
ENDBRANCH   4   6
BRANCH   3  17
HETATM   17  C   UNK N   1      21.046  19.580   3.531  0.00  0.00     0.260 C 
HETATM   18  O   UNK N   1      20.414  20.496   4.024  0.00  0.00    -0.270 OA
HETATM   19  N   UNK N   1      22.249  19.817   2.959  0.00  0.00    -0.236 N 
HETATM   20  H   UNK N   1      22.742  19.077   2.537  0.00  0.00     0.197 HD
BRANCH  19  21
HETATM   21  O   UNK N   1      22.777  21.051   2.962  0.00  0.00    -0.287 OA
HETATM   22  H   UNK N   1      22.859  21.549   3.791  0.00  0.00     0.244 HD
ENDBRANCH  19  21
ENDBRANCH   3  17
BRANCH   1  23
HETATM   23  N   UNK N   1      20.718  14.679   2.736  0.00  0.00    -0.297 N 
HETATM   24  H   UNK N   1      20.638  13.720   3.076  0.00  0.00     0.188 HD
BRANCH  23  25
HETATM   25  O   UNK N   1      20.660  15.055   1.435  0.00  0.00    -0.290 OA
HETATM   26  C   UNK N   1      19.519  14.425   0.941  0.00  0.00     0.237 C 
ENDBRANCH  23  25
ENDBRANCH   1  23
TORSDOF 7
ENDMDL
MODEL 6
REMARK VINA RESULT:      -5.6     11.227     12.783
REMARK  7 active torsions:
REMARK  status: ('A' for Active; 'I' for Inactive)
REMARK    1  A    between atoms: O_2  and  N_3 
REMARK    2  A    between atoms: C_4  and  N_3 
REMARK    3  A    between atoms: C_6  and  C_20 
REMARK    4  A    between atoms: N_7  and  S_9 
REMARK    5  A    between atoms: S_9  and  C_12 
REMARK    6  A    between atoms: C_15  and  O_16 
REMARK       I    between atoms: C_20  and  N_22 
REMARK    7  A    between atoms: N_22  and  O_23 
ROOT
HETATM    1  C   UNK N   1      20.936  13.896   8.119  0.00  0.00     0.122 C 
HETATM    2  C   UNK N   1      20.068  14.785   8.988  0.00  0.00     0.058 C 
HETATM    3  C   UNK N   1      20.633  16.172   8.695  0.00  0.00     0.170 C 
HETATM    4  N   UNK N   1      21.433  16.111   7.458  0.00  0.00    -0.191 NA
HETATM    5  C   UNK N   1      22.062  14.802   7.641  0.00  0.00     0.135 C 
ENDROOT
BRANCH   4   6
HETATM    6  S   UNK N   1      20.421  16.032   5.956  0.00  0.00     0.244 S 
HETATM    7  O   UNK N   1      20.714  14.641   5.364  0.00  0.00    -0.206 OA
HETATM    8  O   UNK N   1      18.968  15.812   6.406  0.00  0.00    -0.206 OA
BRANCH   6   9
HETATM    9  C   UNK N   1      20.463  17.201   4.594  0.00  0.00     0.074 A 
HETATM   10  C   UNK N   1      19.793  16.948   3.394  0.00  0.00     0.027 A 
HETATM   11  C   UNK N   1      19.947  17.817   2.307  0.00  0.00     0.038 A 
HETATM   12  C   UNK N   1      20.785  18.942   2.412  0.00  0.00     0.068 A 
HETATM   13  C   UNK N   1      21.449  19.191   3.615  0.00  0.00     0.038 A 
HETATM   14  C   UNK N   1      21.294  18.322   4.697  0.00  0.00     0.027 A 
BRANCH  12  15
HETATM   15  O   UNK N   1      20.976  19.790   1.373  0.00  0.00    -0.356 OA
HETATM   16  C   UNK N   1      20.589  21.110   1.396  0.00  0.00     0.210 C 
ENDBRANCH  12  15
ENDBRANCH   6   9
ENDBRANCH   4   6
BRANCH   3  17
HETATM   17  C   UNK N   1      19.675  17.328   8.833  0.00  0.00     0.260 C 
HETATM   18  O   UNK N   1      20.067  18.473   8.703  0.00  0.00    -0.270 OA
HETATM   19  N   UNK N   1      18.381  17.085   9.142  0.00  0.00    -0.236 N 
HETATM   20  H   UNK N   1      18.077  16.158   9.274  0.00  0.00     0.197 HD
BRANCH  19  21
HETATM   21  O   UNK N   1      17.507  18.096   9.270  0.00  0.00    -0.287 OA
HETATM   22  H   UNK N   1      17.594  18.732   9.997  0.00  0.00     0.244 HD
ENDBRANCH  19  21
ENDBRANCH   3  17
BRANCH   1  23
HETATM   23  N   UNK N   1      21.378  12.652   8.747  0.00  0.00    -0.297 N 
HETATM   24  H   UNK N   1      20.939  11.740   8.618  0.00  0.00     0.188 HD
BRANCH  23  25
HETATM   25  O   UNK N   1      22.458  12.897   9.527  0.00  0.00    -0.290 OA
HETATM   26  C   UNK N   1      22.239  12.137  10.674  0.00  0.00     0.237 C 
ENDBRANCH  23  25
ENDBRANCH   1  23
TORSDOF 7
ENDMDL
MODEL 7
REMARK VINA RESULT:      -5.5      2.635      6.613
REMARK  7 active torsions:
REMARK  status: ('A' for Active; 'I' for Inactive)
REMARK    1  A    between atoms: O_2  and  N_3 
REMARK    2  A    between atoms: C_4  and  N_3 
REMARK    3  A    between atoms: C_6  and  C_20 
REMARK    4  A    between atoms: N_7  and  S_9 
REMARK    5  A    between atoms: S_9  and  C_12 
REMARK    6  A    between atoms: C_15  and  O_16 
REMARK       I    between atoms: C_20  and  N_22 
REMARK    7  A    between atoms: N_22  and  O_23 
ROOT
HETATM    1  C   UNK N   1      32.351  16.902   5.456  0.00  0.00     0.122 C 
HETATM    2  C   UNK N   1      33.469  17.784   5.978  0.00  0.00     0.058 C 
HETATM    3  C   UNK N   1      33.175  17.824   7.475  0.00  0.00     0.170 C 
HETATM    4  N   UNK N   1      32.256  16.721   7.811  0.00  0.00    -0.191 NA
HETATM    5  C   UNK N   1      31.392  16.756   6.630  0.00  0.00     0.135 C 
ENDROOT
BRANCH   4   6
HETATM    6  S   UNK N   1      33.069  15.101   7.853  0.00  0.00     0.244 S 
HETATM    7  O   UNK N   1      33.022  14.683   9.334  0.00  0.00    -0.206 OA
HETATM    8  O   UNK N   1      32.073  14.085   7.273  0.00  0.00    -0.206 OA
BRANCH   6   9
HETATM    9  C   UNK N   1      34.723  14.736   7.256  0.00  0.00     0.074 A 
HETATM   10  C   UNK N   1      35.011  14.686   5.890  0.00  0.00     0.027 A 
HETATM   11  C   UNK N   1      36.277  14.276   5.454  0.00  0.00     0.038 A 
HETATM   12  C   UNK N   1      37.261  13.902   6.387  0.00  0.00     0.068 A 
HETATM   13  C   UNK N   1      36.967  13.958   7.751  0.00  0.00     0.038 A 
HETATM   14  C   UNK N   1      35.704  14.366   8.183  0.00  0.00     0.027 A 
BRANCH  12  15
HETATM   15  O   UNK N   1      38.487  13.478   5.999  0.00  0.00    -0.356 OA
HETATM   16  C   UNK N   1      38.730  12.877   4.786  0.00  0.00     0.210 C 
ENDBRANCH  12  15
ENDBRANCH   6   9
ENDBRANCH   4   6
BRANCH   3  17
HETATM   17  C   UNK N   1      34.359  18.028   8.384  0.00  0.00     0.260 C 
HETATM   18  O   UNK N   1      35.282  18.746   8.044  0.00  0.00    -0.270 OA
HETATM   19  N   UNK N   1      34.409  17.376   9.569  0.00  0.00    -0.236 N 
HETATM   20  H   UNK N   1      33.672  16.775   9.825  0.00  0.00     0.197 HD
BRANCH  19  21
HETATM   21  O   UNK N   1      35.452  17.541  10.397  0.00  0.00    -0.287 OA
HETATM   22  H   UNK N   1      36.275  17.942  10.078  0.00  0.00     0.244 HD
ENDBRANCH  19  21
ENDBRANCH   3  17
BRANCH   1  23
HETATM   23  N   UNK N   1      31.730  17.356   4.213  0.00  0.00    -0.297 N 
HETATM   24  H   UNK N   1      30.858  17.882   4.149  0.00  0.00     0.188 HD
BRANCH  23  25
HETATM   25  O   UNK N   1      32.489  16.969   3.160  0.00  0.00    -0.290 OA
HETATM   26  C   UNK N   1      32.469  15.576   3.209  0.00  0.00     0.237 C 
ENDBRANCH  23  25
ENDBRANCH   1  23
TORSDOF 7
ENDMDL
MODEL 8
REMARK VINA RESULT:      -5.5     13.644     16.651
REMARK  7 active torsions:
REMARK  status: ('A' for Active; 'I' for Inactive)
REMARK    1  A    between atoms: O_2  and  N_3 
REMARK    2  A    between atoms: C_4  and  N_3 
REMARK    3  A    between atoms: C_6  and  C_20 
REMARK    4  A    between atoms: N_7  and  S_9 
REMARK    5  A    between atoms: S_9  and  C_12 
REMARK    6  A    between atoms: C_15  and  O_16 
REMARK       I    between atoms: C_20  and  N_22 
REMARK    7  A    between atoms: N_22  and  O_23 
ROOT
HETATM    1  C   UNK N   1      27.095  27.996  -3.736  0.00  0.00     0.122 C 
HETATM    2  C   UNK N   1      26.352  26.721  -3.383  0.00  0.00     0.058 C 
HETATM    3  C   UNK N   1      25.841  26.260  -4.744  0.00  0.00     0.170 C 
HETATM    4  N   UNK N   1      26.595  26.959  -5.801  0.00  0.00    -0.191 NA
HETATM    5  C   UNK N   1      26.711  28.280  -5.182  0.00  0.00     0.135 C 
ENDROOT
BRANCH   4   6
HETATM    6  S   UNK N   1      28.271  26.308  -6.032  0.00  0.00     0.244 S 
HETATM    7  O   UNK N   1      28.208  25.542  -7.366  0.00  0.00    -0.206 OA
HETATM    8  O   UNK N   1      29.155  27.490  -6.463  0.00  0.00    -0.206 OA
BRANCH   6   9
HETATM    9  C   UNK N   1      29.169  25.271  -4.873  0.00  0.00     0.074 A 
HETATM   10  C   UNK N   1      30.087  25.813  -3.969  0.00  0.00     0.027 A 
HETATM   11  C   UNK N   1      30.862  24.969  -3.165  0.00  0.00     0.038 A 
HETATM   12  C   UNK N   1      30.731  23.572  -3.271  0.00  0.00     0.068 A 
HETATM   13  C   UNK N   1      29.809  23.038  -4.174  0.00  0.00     0.038 A 
HETATM   14  C   UNK N   1      29.038  23.882  -4.975  0.00  0.00     0.027 A 
BRANCH  12  15
HETATM   15  O   UNK N   1      31.482  22.726  -2.527  0.00  0.00    -0.356 OA
HETATM   16  C   UNK N   1      32.072  21.593  -3.037  0.00  0.00     0.210 C 
ENDBRANCH  12  15
ENDBRANCH   6   9
ENDBRANCH   4   6
BRANCH   3  17
HETATM   17  C   UNK N   1      25.641  24.776  -4.916  0.00  0.00     0.260 C 
HETATM   18  O   UNK N   1      25.760  24.023  -3.966  0.00  0.00    -0.270 OA
HETATM   19  N   UNK N   1      25.365  24.279  -6.144  0.00  0.00    -0.236 N 
HETATM   20  H   UNK N   1      25.298  24.890  -6.912  0.00  0.00     0.197 HD
BRANCH  19  21
HETATM   21  O   UNK N   1      25.182  22.961  -6.323  0.00  0.00    -0.287 OA
HETATM   22  H   UNK N   1      24.662  22.635  -7.074  0.00  0.00     0.244 HD
ENDBRANCH  19  21
ENDBRANCH   3  17
BRANCH   1  23
HETATM   23  N   UNK N   1      26.885  29.113  -2.817  0.00  0.00    -0.297 N 
HETATM   24  H   UNK N   1      26.015  29.636  -2.716  0.00  0.00     0.188 HD
BRANCH  23  25
HETATM   25  O   UNK N   1      28.024  29.348  -2.122  0.00  0.00    -0.290 OA
HETATM   26  C   UNK N   1      28.514  30.542  -2.649  0.00  0.00     0.237 C 
ENDBRANCH  23  25
ENDBRANCH   1  23
TORSDOF 7
ENDMDL
MODEL 9
REMARK VINA RESULT:      -5.5      2.241      5.650
REMARK  7 active torsions:
REMARK  status: ('A' for Active; 'I' for Inactive)
REMARK    1  A    between atoms: O_2  and  N_3 
REMARK    2  A    between atoms: C_4  and  N_3 
REMARK    3  A    between atoms: C_6  and  C_20 
REMARK    4  A    between atoms: N_7  and  S_9 
REMARK    5  A    between atoms: S_9  and  C_12 
REMARK    6  A    between atoms: C_15  and  O_16 
REMARK       I    between atoms: C_20  and  N_22 
REMARK    7  A    between atoms: N_22  and  O_23 
ROOT
HETATM    1  C   UNK N   1      31.400  16.812   8.829  0.00  0.00     0.122 C 
HETATM    2  C   UNK N   1      31.238  15.822   7.691  0.00  0.00     0.058 C 
HETATM    3  C   UNK N   1      31.774  16.612   6.500  0.00  0.00     0.170 C 
HETATM    4  N   UNK N   1      32.563  17.753   6.998  0.00  0.00    -0.191 NA
HETATM    5  C   UNK N   1      31.742  18.131   8.150  0.00  0.00     0.135 C 
ENDROOT
BRANCH   4   6
HETATM    6  S   UNK N   1      34.198  17.274   7.619  0.00  0.00     0.244 S 
HETATM    7  O   UNK N   1      34.931  16.716   6.387  0.00  0.00    -0.206 OA
HETATM    8  O   UNK N   1      34.997  18.571   7.821  0.00  0.00    -0.206 OA
BRANCH   6   9
HETATM    9  C   UNK N   1      34.520  16.146   8.979  0.00  0.00     0.074 A 
HETATM   10  C   UNK N   1      34.257  14.778   8.870  0.00  0.00     0.027 A 
HETATM   11  C   UNK N   1      34.400  13.944   9.985  0.00  0.00     0.038 A 
HETATM   12  C   UNK N   1      34.797  14.480  11.224  0.00  0.00     0.068 A 
HETATM   13  C   UNK N   1      35.061  15.847  11.325  0.00  0.00     0.038 A 
HETATM   14  C   UNK N   1      34.918  16.676  10.211  0.00  0.00     0.027 A 
BRANCH  12  15
HETATM   15  O   UNK N   1      34.921  13.707  12.329  0.00  0.00    -0.356 OA
HETATM   16  C   UNK N   1      35.738  14.030  13.388  0.00  0.00     0.210 C 
ENDBRANCH  12  15
ENDBRANCH   6   9
ENDBRANCH   4   6
BRANCH   3  17
HETATM   17  C   UNK N   1      32.374  15.804   5.378  0.00  0.00     0.260 C 
HETATM   18  O   UNK N   1      32.492  14.597   5.481  0.00  0.00    -0.270 OA
HETATM   19  N   UNK N   1      32.817  16.436   4.266  0.00  0.00    -0.236 N 
HETATM   20  H   UNK N   1      32.744  17.415   4.202  0.00  0.00     0.197 HD
BRANCH  19  21
HETATM   21  O   UNK N   1      33.355  15.740   3.252  0.00  0.00    -0.287 OA
HETATM   22  H   UNK N   1      34.260  15.923   2.956  0.00  0.00     0.244 HD
ENDBRANCH  19  21
ENDBRANCH   3  17
BRANCH   1  23
HETATM   23  N   UNK N   1      30.276  16.879   9.760  0.00  0.00    -0.297 N 
HETATM   24  H   UNK N   1      30.043  16.167  10.453  0.00  0.00     0.188 HD
BRANCH  23  25
HETATM   25  O   UNK N   1      29.590  18.030   9.561  0.00  0.00    -0.290 OA
HETATM   26  C   UNK N   1      28.287  17.617   9.286  0.00  0.00     0.237 C 
ENDBRANCH  23  25
ENDBRANCH   1  23
TORSDOF 7
ENDMDL
