MODEL 1
REMARK VINA RESULT:      -3.5      0.000      0.000
REMARK  0 active torsions:
REMARK  status: ('A' for Active; 'I' for Inactive)
ROOT
HETATM    1  C   UNK N   1      21.250  12.313  11.035  0.00  0.00     0.049 C 
HETATM    2  C   UNK N   1      23.327  13.017   9.732  0.00  0.00     0.025 A 
HETATM    3  C   UNK N   1      24.684  12.892   9.965  0.00  0.00     0.088 A 
HETATM    4  C   UNK N   1      23.689  11.975  11.664  0.00  0.00     0.094 A 
HETATM    5  C   UNK N   1      22.714  12.432  10.815  0.00  0.00    -0.045 A 
HETATM    6  N   UNK N   1      24.895  12.259  11.138  0.00  0.00    -0.375 N 
HETATM    7  H   UNK N   1      25.770  12.045  11.535  0.00  0.00     0.164 HD
ENDROOT
TORSDOF 0
ENDMDL
MODEL 2
REMARK VINA RESULT:      -3.3      1.758      2.276
REMARK  0 active torsions:
REMARK  status: ('A' for Active; 'I' for Inactive)
ROOT
HETATM    1  C   UNK N   1      20.861  14.258   9.417  0.00  0.00     0.049 C 
HETATM    2  C   UNK N   1      22.921  12.970  10.194  0.00  0.00     0.025 A 
HETATM    3  C   UNK N   1      23.116  11.949  11.105  0.00  0.00     0.088 A 
HETATM    4  C   UNK N   1      20.989  12.387  11.132  0.00  0.00     0.094 A 
HETATM    5  C   UNK N   1      21.572  13.234  10.224  0.00  0.00    -0.045 A 
HETATM    6  N   UNK N   1      21.940  11.601  11.670  0.00  0.00    -0.375 N 
HETATM    7  H   UNK N   1      21.804  10.902  12.349  0.00  0.00     0.164 HD
ENDROOT
TORSDOF 0
ENDMDL
MODEL 3
REMARK VINA RESULT:      -3.3      1.513      2.579
REMARK  0 active torsions:
REMARK  status: ('A' for Active; 'I' for Inactive)
ROOT
HETATM    1  C   UNK N   1      24.754  12.731  10.134  0.00  0.00     0.049 C 
HETATM    2  C   UNK N   1      22.222  13.005   9.980  0.00  0.00     0.025 A 
HETATM    3  C   UNK N   1      21.169  12.553  10.752  0.00  0.00     0.088 A 
HETATM    4  C   UNK N   1      22.975  11.797  11.691  0.00  0.00     0.094 A 
HETATM    5  C   UNK N   1      23.356  12.518  10.588  0.00  0.00    -0.045 A 
HETATM    6  N   UNK N   1      21.633  11.822  11.787  0.00  0.00    -0.375 N 
HETATM    7  H   UNK N   1      21.090  11.387  12.484  0.00  0.00     0.164 HD
ENDROOT
TORSDOF 0
ENDMDL
MODEL 4
REMARK VINA RESULT:      -3.2      1.704      2.276
REMARK  0 active torsions:
REMARK  status: ('A' for Active; 'I' for Inactive)
ROOT
HETATM    1  C   UNK N   1      23.158  11.867  12.995  0.00  0.00     0.049 C 
HETATM    2  C   UNK N   1      23.738  12.056  10.518  0.00  0.00     0.025 A 
HETATM    3  C   UNK N   1      22.983  12.256   9.378  0.00  0.00     0.088 A 
HETATM    4  C   UNK N   1      21.582  12.242  11.037  0.00  0.00     0.094 A 
HETATM    5  C   UNK N   1      22.836  12.050  11.557  0.00  0.00    -0.045 A 
HETATM    6  N   UNK N   1      21.677  12.368   9.700  0.00  0.00    -0.375 N 
HETATM    7  H   UNK N   1      20.933  12.515   9.073  0.00  0.00     0.164 HD
ENDROOT
TORSDOF 0
ENDMDL
MODEL 5
REMARK VINA RESULT:      -3.2     21.072     21.896
REMARK  0 active torsions:
REMARK  status: ('A' for Active; 'I' for Inactive)
ROOT
HETATM    1  C   UNK N   1      24.799  27.122  -5.692  0.00  0.00     0.049 C 
HETATM    2  C   UNK N   1      26.669  28.742  -5.071  0.00  0.00     0.025 A 
HETATM    3  C   UNK N   1      27.239  29.120  -3.870  0.00  0.00     0.088 A 
HETATM    4  C   UNK N   1      25.697  27.672  -3.379  0.00  0.00     0.094 A 
HETATM    5  C   UNK N   1      25.697  27.826  -4.742  0.00  0.00    -0.045 A 
HETATM    6  N   UNK N   1      26.644  28.467  -2.849  0.00  0.00    -0.375 N 
HETATM    7  H   UNK N   1      26.863  28.557  -1.893  0.00  0.00     0.164 HD
ENDROOT
TORSDOF 0
ENDMDL
MODEL 6
REMARK VINA RESULT:      -3.2     13.274     14.050
REMARK  0 active torsions:
REMARK  status: ('A' for Active; 'I' for Inactive)
ROOT
HETATM    1  C   UNK N   1      35.295  13.066  15.772  0.00  0.00     0.049 C 
HETATM    2  C   UNK N   1      35.351  11.672  17.907  0.00  0.00     0.025 A 
HETATM    3  C   UNK N   1      35.283  11.988  19.251  0.00  0.00     0.088 A 
HETATM    4  C   UNK N   1      35.154  13.872  18.178  0.00  0.00     0.094 A 
HETATM    5  C   UNK N   1      35.267  12.874  17.244  0.00  0.00    -0.045 A 
HETATM    6  N   UNK N   1      35.165  13.324  19.407  0.00  0.00    -0.375 N 
HETATM    7  H   UNK N   1      35.098  13.807  20.262  0.00  0.00     0.164 HD
ENDROOT
TORSDOF 0
ENDMDL
MODEL 7
REMARK VINA RESULT:      -3.1      1.192      2.241
REMARK  0 active torsions:
REMARK  status: ('A' for Active; 'I' for Inactive)
ROOT
HETATM    1  C   UNK N   1      23.731  11.669   8.246  0.00  0.00     0.049 C 
HETATM    2  C   UNK N   1      22.512  11.707  10.487  0.00  0.00     0.025 A 
HETATM    3  C   UNK N   1      22.906  12.006  11.778  0.00  0.00     0.088 A 
HETATM    4  C   UNK N   1      24.667  12.260  10.534  0.00  0.00     0.094 A 
HETATM    5  C   UNK N   1      23.638  11.873   9.714  0.00  0.00    -0.045 A 
HETATM    6  N   UNK N   1      24.213  12.341  11.798  0.00  0.00    -0.375 N 
HETATM    7  H   UNK N   1      24.737  12.597  12.591  0.00  0.00     0.164 HD
ENDROOT
TORSDOF 0
ENDMDL
MODEL 8
REMARK VINA RESULT:      -3.0     21.956     22.873
REMARK  0 active torsions:
REMARK  status: ('A' for Active; 'I' for Inactive)
ROOT
HETATM    1  C   UNK N   1      27.822  28.600  -6.801  0.00  0.00     0.049 C 
HETATM    2  C   UNK N   1      26.076  27.588  -5.239  0.00  0.00     0.025 A 
HETATM    3  C   UNK N   1      25.501  28.011  -4.055  0.00  0.00     0.088 A 
HETATM    4  C   UNK N   1      26.897  29.568  -4.641  0.00  0.00     0.094 A 
HETATM    5  C   UNK N   1      26.955  28.585  -5.594  0.00  0.00    -0.045 A 
HETATM    6  N   UNK N   1      26.004  29.212  -3.699  0.00  0.00    -0.375 N 
HETATM    7  H   UNK N   1      25.762  29.731  -2.898  0.00  0.00     0.164 HD
ENDROOT
TORSDOF 0
ENDMDL
MODEL 9
REMARK VINA RESULT:      -2.9      7.781      8.655
REMARK  0 active torsions:
REMARK  status: ('A' for Active; 'I' for Inactive)
ROOT
HETATM    1  C   UNK N   1      30.112  17.110   6.434  0.00  0.00     0.049 C 
HETATM    2  C   UNK N   1      30.166  18.087   8.790  0.00  0.00     0.025 A 
HETATM    3  C   UNK N   1      29.184  18.499   9.670  0.00  0.00     0.088 A 
HETATM    4  C   UNK N   1      28.150  17.808   7.890  0.00  0.00     0.094 A 
HETATM    5  C   UNK N   1      29.494  17.653   7.670  0.00  0.00    -0.045 A 
HETATM    6  N   UNK N   1      27.964  18.328   9.118  0.00  0.00    -0.375 N 
HETATM    7  H   UNK N   1      27.099  18.542   9.536  0.00  0.00     0.164 HD
ENDROOT
TORSDOF 0
ENDMDL
