REMARK  7 active torsions:
REMARK  status: ('A' for Active; 'I' for Inactive)
REMARK    1  A    between atoms: O_2  and  N_3 
REMARK    2  A    between atoms: C_4  and  N_3 
REMARK    3  A    between atoms: C_6  and  C_20 
REMARK    4  A    between atoms: N_7  and  S_9 
REMARK    5  A    between atoms: S_9  and  C_12 
REMARK    6  A    between atoms: C_15  and  O_16 
REMARK       I    between atoms: C_20  and  N_22 
REMARK    7  A    between atoms: N_22  and  O_23 
ROOT
HETATM    1  C   UNK N   1       1.257  -0.917  -0.510  0.00  0.00     0.122 C 
HETATM    2  C   UNK N   1       2.425  -1.881  -0.596  0.00  0.00     0.058 C 
HETATM    3  C   UNK N   1       2.110  -2.868   0.524  0.00  0.00     0.170 C 
HETATM    4  N   UNK N   1       0.691  -2.728   0.900  0.00  0.00    -0.191 NA
HETATM    5  C   UNK N   1       0.554  -1.275   0.792  0.00  0.00     0.135 C 
ENDROOT
BRANCH   4   6
HETATM    6  S   UNK N   1      -0.443  -3.480  -0.298  0.00  0.00     0.244 S 
HETATM    7  O   UNK N   1      -1.498  -2.392  -0.568  0.00  0.00    -0.206 OA
HETATM    8  O   UNK N   1       0.275  -3.477  -1.657  0.00  0.00    -0.206 OA
BRANCH   6   9
HETATM    9  C   UNK N   1      -1.328  -5.028  -0.084  0.00  0.00     0.074 A 
HETATM   10  C   UNK N   1      -0.674  -6.191   0.331  0.00  0.00     0.027 A 
HETATM   11  C   UNK N   1      -1.363  -7.409   0.368  0.00  0.00     0.038 A 
HETATM   12  C   UNK N   1      -2.713  -7.472  -0.024  0.00  0.00     0.068 A 
HETATM   13  C   UNK N   1      -3.361  -6.305  -0.435  0.00  0.00     0.038 A 
HETATM   14  C   UNK N   1      -2.671  -5.092  -0.471  0.00  0.00     0.027 A 
BRANCH  12  15
HETATM   15  O   UNK N   1      -3.403  -8.637  -0.024  0.00  0.00    -0.356 OA
HETATM   16  C   UNK N   1      -2.846  -9.844   0.330  0.00  0.00     0.210 C 
ENDBRANCH  12  15
ENDBRANCH   6   9
ENDBRANCH   4   6
BRANCH   3  17
HETATM   17  C   UNK N   1       2.635  -4.270   0.347  0.00  0.00     0.260 C 
HETATM   18  O   UNK N   1       1.957  -5.228   0.670  0.00  0.00    -0.270 OA
HETATM   19  N   UNK N   1       3.884  -4.456  -0.139  0.00  0.00    -0.236 N 
HETATM   20  H   UNK N   1       4.437  -3.676  -0.371  0.00  0.00     0.197 HD
BRANCH  19  21
HETATM   21  O   UNK N   1       4.375  -5.694  -0.307  0.00  0.00    -0.287 OA
HETATM   22  H   UNK N   1       3.777  -6.448  -0.428  0.00  0.00     0.244 HD
ENDBRANCH  19  21
ENDBRANCH   3  17
BRANCH   1  23
HETATM   23  N   UNK N   1       1.605   0.496  -0.648  0.00  0.00    -0.297 N 
HETATM   24  H   UNK N   1       1.089   1.177  -1.205  0.00  0.00     0.188 HD
BRANCH  23  25
HETATM   25  O   UNK N   1       2.719   0.761   0.077  0.00  0.00    -0.290 OA
HETATM   26  C   UNK N   1       2.468   2.002   0.660  0.00  0.00     0.237 C 
ENDBRANCH  23  25
ENDBRANCH   1  23
TORSDOF 7
