MODEL 1
REMARK VINA RESULT:      -4.0      0.000      0.000
REMARK  3 active torsions:
REMARK  status: ('A' for Active; 'I' for Inactive)
REMARK       I    between atoms: N_2  and  C_3 
REMARK    1  A    between atoms: C_3  and  C_5 
REMARK    2  A    between atoms: C_5  and  N_6 
REMARK    3  A    between atoms: C_5  and  C_7 
ROOT
HETATM    1  C   UNK N   1      26.876  27.225  -4.660  0.00  0.00     0.174 C 
ENDROOT
BRANCH   1   2
HETATM    2  C   UNK N   1      26.262  27.806  -3.388  0.00  0.00     0.240 C 
HETATM    3  N   UNK N   1      26.140  29.148  -3.214  0.00  0.00    -0.364 N 
HETATM    4  C   UNK N   1      26.566  30.111  -4.196  0.00  0.00     0.149 C 
HETATM    5  H   UNK N   1      25.742  29.477  -2.376  0.00  0.00     0.161 HD
HETATM    6  O   UNK N   1      25.869  27.064  -2.504  0.00  0.00    -0.271 OA
ENDBRANCH   1   2
BRANCH   1   7
HETATM    7  N   UNK N   1      27.928  26.282  -4.305  0.00  0.00    -0.418 N 
HETATM    8  H   UNK N   1      28.573  25.599  -4.705  0.00  0.00     0.150 HD
HETATM    9  H   UNK N   1      28.071  26.315  -3.296  0.00  0.00     0.150 HD
ENDBRANCH   1   7
BRANCH   1  10
HETATM   10  C   UNK N   1      25.872  26.563  -5.638  0.00  0.00    -0.023 C 
HETATM   11  C   UNK N   1      24.532  27.278  -5.592  0.00  0.00     0.017 C 
HETATM   12  C   UNK N   1      26.391  26.663  -7.062  0.00  0.00     0.017 C 
HETATM   13  C   UNK N   1      25.663  25.091  -5.315  0.00  0.00     0.017 C 
ENDBRANCH   1  10
TORSDOF 3
ENDMDL
MODEL 2
REMARK VINA RESULT:      -3.8     17.320     18.226
REMARK  3 active torsions:
REMARK  status: ('A' for Active; 'I' for Inactive)
REMARK       I    between atoms: N_2  and  C_3 
REMARK    1  A    between atoms: C_3  and  C_5 
REMARK    2  A    between atoms: C_5  and  N_6 
REMARK    3  A    between atoms: C_5  and  C_7 
ROOT
HETATM    1  C   UNK N   1      33.351  17.145   8.311  0.00  0.00     0.174 C 
ENDROOT
BRANCH   1   2
HETATM    2  C   UNK N   1      34.571  17.898   8.833  0.00  0.00     0.240 C 
HETATM    3  N   UNK N   1      35.277  17.443   9.900  0.00  0.00    -0.364 N 
HETATM    4  C   UNK N   1      34.941  16.234  10.608  0.00  0.00     0.149 C 
HETATM    5  H   UNK N   1      36.055  17.964  10.206  0.00  0.00     0.161 HD
HETATM    6  O   UNK N   1      34.932  18.929   8.292  0.00  0.00    -0.271 OA
ENDBRANCH   1   2
BRANCH   1   7
HETATM    7  N   UNK N   1      32.203  18.041   8.276  0.00  0.00    -0.418 N 
HETATM    8  H   UNK N   1      31.234  18.106   7.963  0.00  0.00     0.150 HD
HETATM    9  H   UNK N   1      32.461  18.921   8.724  0.00  0.00     0.150 HD
ENDBRANCH   1   7
BRANCH   1  10
HETATM   10  C   UNK N   1      33.535  16.458   6.933  0.00  0.00    -0.023 C 
HETATM   11  C   UNK N   1      34.863  15.723   6.877  0.00  0.00     0.017 C 
HETATM   12  C   UNK N   1      32.438  15.431   6.713  0.00  0.00     0.017 C 
HETATM   13  C   UNK N   1      33.473  17.464   5.794  0.00  0.00     0.017 C 
ENDBRANCH   1  10
TORSDOF 3
ENDMDL
MODEL 3
REMARK VINA RESULT:      -3.8      2.087      3.069
REMARK  3 active torsions:
REMARK  status: ('A' for Active; 'I' for Inactive)
REMARK       I    between atoms: N_2  and  C_3 
REMARK    1  A    between atoms: C_3  and  C_5 
REMARK    2  A    between atoms: C_5  and  N_6 
REMARK    3  A    between atoms: C_5  and  C_7 
ROOT
HETATM    1  C   UNK N   1      26.396  25.308  -5.486  0.00  0.00     0.174 C 
ENDROOT
BRANCH   1   2
HETATM    2  C   UNK N   1      27.034  25.476  -4.109  0.00  0.00     0.240 C 
HETATM    3  N   UNK N   1      28.359  25.254  -3.914  0.00  0.00    -0.364 N 
HETATM    4  C   UNK N   1      29.254  24.855  -4.971  0.00  0.00     0.149 C 
HETATM    5  H   UNK N   1      28.726  25.369  -3.008  0.00  0.00     0.161 HD
HETATM    6  O   UNK N   1      26.352  25.816  -3.156  0.00  0.00    -0.271 OA
ENDBRANCH   1   2
BRANCH   1   7
HETATM    7  N   UNK N   1      25.248  24.418  -5.385  0.00  0.00    -0.418 N 
HETATM    8  H   UNK N   1      24.228  24.411  -5.354  0.00  0.00     0.150 HD
HETATM    9  H   UNK N   1      25.583  23.457  -5.324  0.00  0.00     0.150 HD
ENDBRANCH   1   7
BRANCH   1  10
HETATM   10  C   UNK N   1      25.990  26.626  -6.193  0.00  0.00    -0.023 C 
HETATM   11  C   UNK N   1      27.040  27.700  -5.965  0.00  0.00     0.017 C 
HETATM   12  C   UNK N   1      25.889  26.403  -7.692  0.00  0.00     0.017 C 
HETATM   13  C   UNK N   1      24.643  27.134  -5.701  0.00  0.00     0.017 C 
ENDBRANCH   1  10
TORSDOF 3
ENDMDL
MODEL 4
REMARK VINA RESULT:      -3.7     25.395     26.291
REMARK  3 active torsions:
REMARK  status: ('A' for Active; 'I' for Inactive)
REMARK       I    between atoms: N_2  and  C_3 
REMARK    1  A    between atoms: C_3  and  C_5 
REMARK    2  A    between atoms: C_5  and  N_6 
REMARK    3  A    between atoms: C_5  and  C_7 
ROOT
HETATM    1  C   UNK N   1      36.324  12.415  14.565  0.00  0.00     0.174 C 
ENDROOT
BRANCH   1   2
HETATM    2  C   UNK N   1      36.762  13.875  14.657  0.00  0.00     0.240 C 
HETATM    3  N   UNK N   1      36.450  14.768  13.683  0.00  0.00    -0.364 N 
HETATM    4  C   UNK N   1      35.692  14.418  12.509  0.00  0.00     0.149 C 
HETATM    5  H   UNK N   1      36.757  15.697  13.782  0.00  0.00     0.161 HD
HETATM    6  O   UNK N   1      37.404  14.261  15.619  0.00  0.00    -0.271 OA
ENDBRANCH   1   2
BRANCH   1   7
HETATM    7  N   UNK N   1      37.495  11.552  14.615  0.00  0.00    -0.418 N 
HETATM    8  H   UNK N   1      38.118  11.066  15.262  0.00  0.00     0.150 HD
HETATM    9  H   UNK N   1      37.806  11.365  13.661  0.00  0.00     0.150 HD
ENDBRANCH   1   7
BRANCH   1  10
HETATM   10  C   UNK N   1      35.284  11.967  15.623  0.00  0.00    -0.023 C 
HETATM   11  C   UNK N   1      34.530  13.166  16.172  0.00  0.00     0.017 C 
HETATM   12  C   UNK N   1      34.262  11.040  14.989  0.00  0.00     0.017 C 
HETATM   13  C   UNK N   1      35.943  11.223  16.775  0.00  0.00     0.017 C 
ENDBRANCH   1  10
TORSDOF 3
ENDMDL
MODEL 5
REMARK VINA RESULT:      -3.6      2.411      3.489
REMARK  3 active torsions:
REMARK  status: ('A' for Active; 'I' for Inactive)
REMARK       I    between atoms: N_2  and  C_3 
REMARK    1  A    between atoms: C_3  and  C_5 
REMARK    2  A    between atoms: C_5  and  N_6 
REMARK    3  A    between atoms: C_5  and  C_7 
ROOT
HETATM    1  C   UNK N   1      26.767  25.961  -5.269  0.00  0.00     0.174 C 
ENDROOT
BRANCH   1   2
HETATM    2  C   UNK N   1      26.001  24.690  -4.909  0.00  0.00     0.240 C 
HETATM    3  N   UNK N   1      26.382  23.909  -3.865  0.00  0.00    -0.364 N 
HETATM    4  C   UNK N   1      27.513  24.214  -3.026  0.00  0.00     0.149 C 
HETATM    5  H   UNK N   1      25.862  23.096  -3.673  0.00  0.00     0.161 HD
HETATM    6  O   UNK N   1      25.027  24.357  -5.562  0.00  0.00    -0.271 OA
ENDBRANCH   1   2
BRANCH   1   7
HETATM    7  N   UNK N   1      27.176  25.904  -6.665  0.00  0.00    -0.418 N 
HETATM    8  H   UNK N   1      27.598  26.460  -7.410  0.00  0.00     0.150 HD
HETATM    9  H   UNK N   1      26.965  24.976  -7.031  0.00  0.00     0.150 HD
ENDBRANCH   1   7
BRANCH   1  10
HETATM   10  C   UNK N   1      26.018  27.288  -4.984  0.00  0.00    -0.023 C 
HETATM   11  C   UNK N   1      25.853  27.498  -3.489  0.00  0.00     0.017 C 
HETATM   12  C   UNK N   1      26.819  28.462  -5.521  0.00  0.00     0.017 C 
HETATM   13  C   UNK N   1      24.648  27.312  -5.646  0.00  0.00     0.017 C 
ENDBRANCH   1  10
TORSDOF 3
ENDMDL
MODEL 6
REMARK VINA RESULT:      -3.6     18.744     19.633
REMARK  3 active torsions:
REMARK  status: ('A' for Active; 'I' for Inactive)
REMARK       I    between atoms: N_2  and  C_3 
REMARK    1  A    between atoms: C_3  and  C_5 
REMARK    2  A    between atoms: C_5  and  N_6 
REMARK    3  A    between atoms: C_5  and  C_7 
ROOT
HETATM    1  C   UNK N   1      43.795  21.916   1.956  0.00  0.00     0.174 C 
ENDROOT
BRANCH   1   2
HETATM    2  C   UNK N   1      43.409  23.377   2.171  0.00  0.00     0.240 C 
HETATM    3  N   UNK N   1      42.121  23.791   2.053  0.00  0.00    -0.364 N 
HETATM    4  C   UNK N   1      41.035  22.901   1.728  0.00  0.00     0.149 C 
HETATM    5  H   UNK N   1      41.919  24.744   2.196  0.00  0.00     0.161 HD
HETATM    6  O   UNK N   1      44.263  24.200   2.455  0.00  0.00    -0.271 OA
ENDBRANCH   1   2
BRANCH   1   7
HETATM    7  N   UNK N   1      45.066  21.848   1.247  0.00  0.00    -0.418 N 
HETATM    8  H   UNK N   1      45.965  21.364   1.240  0.00  0.00     0.150 HD
HETATM    9  H   UNK N   1      45.054  22.526   0.486  0.00  0.00     0.150 HD
ENDBRANCH   1   7
BRANCH   1  10
HETATM   10  C   UNK N   1      43.851  21.049   3.239  0.00  0.00    -0.023 C 
HETATM   11  C   UNK N   1      42.729  20.026   3.241  0.00  0.00     0.017 C 
HETATM   12  C   UNK N   1      45.162  20.284   3.294  0.00  0.00     0.017 C 
HETATM   13  C   UNK N   1      43.751  21.902   4.496  0.00  0.00     0.017 C 
ENDBRANCH   1  10
TORSDOF 3
ENDMDL
MODEL 7
REMARK VINA RESULT:      -3.6     25.267     26.267
REMARK  3 active torsions:
REMARK  status: ('A' for Active; 'I' for Inactive)
REMARK       I    between atoms: N_2  and  C_3 
REMARK    1  A    between atoms: C_3  and  C_5 
REMARK    2  A    between atoms: C_5  and  N_6 
REMARK    3  A    between atoms: C_5  and  C_7 
ROOT
HETATM    1  C   UNK N   1      36.281  12.369  14.530  0.00  0.00     0.174 C 
ENDROOT
BRANCH   1   2
HETATM    2  C   UNK N   1      35.570  12.746  13.234  0.00  0.00     0.240 C 
HETATM    3  N   UNK N   1      35.668  11.971  12.123  0.00  0.00    -0.364 N 
HETATM    4  C   UNK N   1      36.432  10.750  12.082  0.00  0.00     0.149 C 
HETATM    5  H   UNK N   1      35.196  12.256  11.308  0.00  0.00     0.161 HD
HETATM    6  O   UNK N   1      34.896  13.761  13.179  0.00  0.00    -0.271 OA
ENDBRANCH   1   2
BRANCH   1   7
HETATM    7  N   UNK N   1      37.101  13.486  14.980  0.00  0.00    -0.418 N 
HETATM    8  H   UNK N   1      38.028  13.901  14.883  0.00  0.00     0.150 HD
HETATM    9  H   UNK N   1      36.552  14.058  15.621  0.00  0.00     0.150 HD
ENDBRANCH   1   7
BRANCH   1  10
HETATM   10  C   UNK N   1      35.357  11.888  15.678  0.00  0.00    -0.023 C 
HETATM   11  C   UNK N   1      34.196  11.079  15.125  0.00  0.00     0.017 C 
HETATM   12  C   UNK N   1      36.128  10.986  16.625  0.00  0.00     0.017 C 
HETATM   13  C   UNK N   1      34.810  13.058  16.483  0.00  0.00     0.017 C 
ENDBRANCH   1  10
TORSDOF 3
ENDMDL
MODEL 8
REMARK VINA RESULT:      -3.5     20.660     21.532
REMARK  3 active torsions:
REMARK  status: ('A' for Active; 'I' for Inactive)
REMARK       I    between atoms: N_2  and  C_3 
REMARK    1  A    between atoms: C_3  and  C_5 
REMARK    2  A    between atoms: C_5  and  N_6 
REMARK    3  A    between atoms: C_5  and  C_7 
ROOT
HETATM    1  C   UNK N   1      34.436  14.720  10.665  0.00  0.00     0.174 C 
ENDROOT
BRANCH   1   2
HETATM    2  C   UNK N   1      35.319  15.777  11.325  0.00  0.00     0.240 C 
HETATM    3  N   UNK N   1      36.167  15.457  12.335  0.00  0.00    -0.364 N 
HETATM    4  C   UNK N   1      36.304  14.119  12.854  0.00  0.00     0.149 C 
HETATM    5  H   UNK N   1      36.713  16.171  12.734  0.00  0.00     0.161 HD
HETATM    6  O   UNK N   1      35.272  16.935  10.946  0.00  0.00    -0.271 OA
ENDBRANCH   1   2
BRANCH   1   7
HETATM    7  N   UNK N   1      33.051  15.172  10.667  0.00  0.00    -0.418 N 
HETATM    8  H   UNK N   1      32.088  14.833  10.659  0.00  0.00     0.150 HD
HETATM    9  H   UNK N   1      33.039  16.191  10.682  0.00  0.00     0.150 HD
ENDBRANCH   1   7
BRANCH   1  10
HETATM   10  C   UNK N   1      34.859  14.302   9.234  0.00  0.00    -0.023 C 
HETATM   11  C   UNK N   1      34.309  12.927   8.895  0.00  0.00     0.017 C 
HETATM   12  C   UNK N   1      34.295  15.279   8.217  0.00  0.00     0.017 C 
HETATM   13  C   UNK N   1      36.373  14.284   9.080  0.00  0.00     0.017 C 
ENDBRANCH   1  10
TORSDOF 3
ENDMDL
MODEL 9
REMARK VINA RESULT:      -3.4     26.066     27.030
REMARK  3 active torsions:
REMARK  status: ('A' for Active; 'I' for Inactive)
REMARK       I    between atoms: N_2  and  C_3 
REMARK    1  A    between atoms: C_3  and  C_5 
REMARK    2  A    between atoms: C_5  and  N_6 
REMARK    3  A    between atoms: C_5  and  C_7 
ROOT
HETATM    1  C   UNK N   1      35.184  12.835  16.032  0.00  0.00     0.174 C 
ENDROOT
BRANCH   1   2
HETATM    2  C   UNK N   1      35.232  11.358  16.414  0.00  0.00     0.240 C 
HETATM    3  N   UNK N   1      34.492  10.433  15.749  0.00  0.00    -0.364 N 
HETATM    4  C   UNK N   1      33.624  10.764  14.648  0.00  0.00     0.149 C 
HETATM    5  H   UNK N   1      34.550   9.493  16.034  0.00  0.00     0.161 HD
HETATM    6  O   UNK N   1      35.944  10.986  17.331  0.00  0.00    -0.271 OA
ENDBRANCH   1   2
BRANCH   1   7
HETATM    7  N   UNK N   1      35.233  13.652  17.236  0.00  0.00    -0.418 N 
HETATM    8  H   UNK N   1      35.374  14.609  17.562  0.00  0.00     0.150 HD
HETATM    9  H   UNK N   1      35.068  13.053  18.045  0.00  0.00     0.150 HD
ENDBRANCH   1   7
BRANCH   1  10
HETATM   10  C   UNK N   1      36.273  13.296  15.029  0.00  0.00    -0.023 C 
HETATM   11  C   UNK N   1      35.638  13.762  13.729  0.00  0.00     0.017 C 
HETATM   12  C   UNK N   1      37.045  14.471  15.603  0.00  0.00     0.017 C 
HETATM   13  C   UNK N   1      37.265  12.182  14.728  0.00  0.00     0.017 C 
ENDBRANCH   1  10
TORSDOF 3
ENDMDL
