MODEL 1
REMARK VINA RESULT:      -5.9      0.000      0.000
REMARK  1 active torsions:
REMARK  status: ('A' for Active; 'I' for Inactive)
REMARK    1  A    between atoms: N_12  and  C_5 
ROOT
HETATM    1  C   UNK N   1      32.916  17.253   5.231  0.00  0.00     0.003 A 
HETATM    2  C   UNK N   1      31.564  17.123   5.594  0.00  0.00     0.017 A 
HETATM    3  C   UNK N   1      33.890  17.582   6.202  0.00  0.00     0.038 A 
HETATM    4  C   UNK N   1      31.234  17.329   6.930  0.00  0.00     0.030 A 
HETATM    5  C   UNK N   1      33.519  17.785   7.552  0.00  0.00     0.131 A 
HETATM    6  C   UNK N   1      32.164  17.646   7.872  0.00  0.00     0.094 A 
HETATM    7  C   UNK N   1      30.041  17.280   7.597  0.00  0.00     0.107 A 
HETATM    8 Br   UNK N   1      28.337  16.886   6.848  0.00  0.00    -0.029 Br
HETATM    9  N   UNK N   1      31.565  17.786   9.069  0.00  0.00    -0.296 N 
HETATM   10  N   UNK N   1      30.265  17.562   8.902  0.00  0.00    -0.292 N 
ATOM     11  HN  UNK N   1      29.556  17.597   9.634  1.00  0.00     0.187 HD
HETATM   12  H   UNK N   1      32.010  18.014   9.917  0.00  0.00     0.187 HD
ENDROOT
BRANCH   5  13
HETATM   13  N   UNK N   1      34.493  18.117   8.536  0.00  0.00    -0.113 N 
HETATM   14  O   UNK N   1      34.617  17.434   9.508  0.00  0.00    -0.532 OA
HETATM   15  O   UNK N   1      35.191  19.075   8.400  0.00  0.00    -0.532 OA
ENDBRANCH   5  13
TORSDOF 1
ENDMDL
MODEL 2
REMARK VINA RESULT:      -5.4     11.519     12.693
REMARK  1 active torsions:
REMARK  status: ('A' for Active; 'I' for Inactive)
REMARK    1  A    between atoms: N_12  and  C_5 
ROOT
HETATM    1  C   UNK N   1      22.787  17.067   3.912  0.00  0.00     0.003 A 
HETATM    2  C   UNK N   1      21.995  16.219   3.118  0.00  0.00     0.017 A 
HETATM    3  C   UNK N   1      22.527  18.456   3.956  0.00  0.00     0.038 A 
HETATM    4  C   UNK N   1      20.961  16.800   2.390  0.00  0.00     0.030 A 
HETATM    5  C   UNK N   1      21.468  19.013   3.203  0.00  0.00     0.131 A 
HETATM    6  C   UNK N   1      20.704  18.136   2.426  0.00  0.00     0.094 A 
HETATM    7  C   UNK N   1      20.028  16.271   1.540  0.00  0.00     0.107 A 
HETATM    8 Br   UNK N   1      19.843  14.441   1.057  0.00  0.00    -0.029 Br
HETATM    9  N   UNK N   1      19.654  18.415   1.630  0.00  0.00    -0.296 N 
HETATM   10  N   UNK N   1      19.240  17.274   1.088  0.00  0.00    -0.292 N 
ATOM     11  HN  UNK N   1      18.459  17.172   0.439  1.00  0.00     0.187 HD
HETATM   12  H   UNK N   1      19.263  19.306   1.477  0.00  0.00     0.187 HD
ENDROOT
BRANCH   5  13
HETATM   13  N   UNK N   1      21.199  20.411   3.241  0.00  0.00    -0.113 N 
HETATM   14  O   UNK N   1      20.213  20.816   3.778  0.00  0.00    -0.532 OA
HETATM   15  O   UNK N   1      21.954  21.188   2.740  0.00  0.00    -0.532 OA
ENDBRANCH   5  13
TORSDOF 1
ENDMDL
MODEL 3
REMARK VINA RESULT:      -5.3      2.029      2.879
REMARK  1 active torsions:
REMARK  status: ('A' for Active; 'I' for Inactive)
REMARK    1  A    between atoms: N_12  and  C_5 
ROOT
HETATM    1  C   UNK N   1      30.547  17.543   8.033  0.00  0.00     0.003 A 
HETATM    2  C   UNK N   1      30.443  17.180   6.678  0.00  0.00     0.017 A 
HETATM    3  C   UNK N   1      31.806  17.849   8.598  0.00  0.00     0.038 A 
HETATM    4  C   UNK N   1      31.617  17.137   5.933  0.00  0.00     0.030 A 
HETATM    5  C   UNK N   1      32.980  17.794   7.811  0.00  0.00     0.131 A 
HETATM    6  C   UNK N   1      32.834  17.430   6.469  0.00  0.00     0.094 A 
HETATM    7  C   UNK N   1      31.860  16.830   4.622  0.00  0.00     0.107 A 
HETATM    8 Br   UNK N   1      30.570  16.329   3.317  0.00  0.00    -0.029 Br
HETATM    9  N   UNK N   1      33.785  17.306   5.524  0.00  0.00    -0.296 N 
HETATM   10  N   UNK N   1      33.190  16.939   4.393  0.00  0.00    -0.292 N 
ATOM     11  HN  UNK N   1      33.656  16.769   3.502  1.00  0.00     0.187 HD
HETATM   12  H   UNK N   1      34.749  17.461   5.648  0.00  0.00     0.187 HD
ENDROOT
BRANCH   5  13
HETATM   13  N   UNK N   1      34.252  18.101   8.373  0.00  0.00    -0.113 N 
HETATM   14  O   UNK N   1      34.600  17.576   9.387  0.00  0.00    -0.532 OA
HETATM   15  O   UNK N   1      34.979  18.881   7.838  0.00  0.00    -0.532 OA
ENDBRANCH   5  13
TORSDOF 1
ENDMDL
MODEL 4
REMARK VINA RESULT:      -5.3      3.599      4.493
REMARK  1 active torsions:
REMARK  status: ('A' for Active; 'I' for Inactive)
REMARK    1  A    between atoms: N_12  and  C_5 
ROOT
HETATM    1  C   UNK N   1      29.911  17.143   6.025  0.00  0.00     0.003 A 
HETATM    2  C   UNK N   1      28.988  17.988   5.383  0.00  0.00     0.017 A 
HETATM    3  C   UNK N   1      29.994  17.112   7.436  0.00  0.00     0.038 A 
HETATM    4  C   UNK N   1      28.174  18.779   6.188  0.00  0.00     0.030 A 
HETATM    5  C   UNK N   1      29.151  17.930   8.223  0.00  0.00     0.131 A 
HETATM    6  C   UNK N   1      28.247  18.757   7.547  0.00  0.00     0.094 A 
HETATM    7  C   UNK N   1      27.196  19.688   5.890  0.00  0.00     0.107 A 
HETATM    8 Br   UNK N   1      26.603  20.187   4.153  0.00  0.00    -0.029 Br
HETATM    9  N   UNK N   1      27.348  19.617   8.061  0.00  0.00    -0.296 N 
HETATM   10  N   UNK N   1      26.705  20.188   7.047  0.00  0.00    -0.292 N 
ATOM     11  HN  UNK N   1      25.965  20.886   7.129  1.00  0.00     0.187 HD
HETATM   12  H   UNK N   1      27.195  19.793   9.018  0.00  0.00     0.187 HD
ENDROOT
BRANCH   5  13
HETATM   13  N   UNK N   1      29.227  17.906   9.645  0.00  0.00    -0.113 N 
HETATM   14  O   UNK N   1      28.898  16.928  10.245  0.00  0.00    -0.532 OA
HETATM   15  O   UNK N   1      29.619  18.858  10.248  0.00  0.00    -0.532 OA
ENDBRANCH   5  13
TORSDOF 1
ENDMDL
MODEL 5
REMARK VINA RESULT:      -5.2     16.574     17.264
REMARK  1 active torsions:
REMARK  status: ('A' for Active; 'I' for Inactive)
REMARK    1  A    between atoms: N_12  and  C_5 
ROOT
HETATM    1  C   UNK N   1      27.413  28.075  -6.812  0.00  0.00     0.003 A 
HETATM    2  C   UNK N   1      27.045  27.001  -7.642  0.00  0.00     0.017 A 
HETATM    3  C   UNK N   1      27.082  28.064  -5.437  0.00  0.00     0.038 A 
HETATM    4  C   UNK N   1      26.351  25.946  -7.058  0.00  0.00     0.030 A 
HETATM    5  C   UNK N   1      26.376  26.975  -4.877  0.00  0.00     0.131 A 
HETATM    6  C   UNK N   1      26.028  25.927  -5.736  0.00  0.00     0.094 A 
HETATM    7  C   UNK N   1      25.858  24.777  -7.571  0.00  0.00     0.107 A 
HETATM    8 Br   UNK N   1      25.979  24.192  -9.377  0.00  0.00    -0.029 Br
HETATM    9  N   UNK N   1      25.363  24.791  -5.450  0.00  0.00    -0.296 N 
HETATM   10  N   UNK N   1      25.259  24.087  -6.573  0.00  0.00    -0.292 N 
ATOM     11  HN  UNK N   1      24.804  23.179  -6.667  1.00  0.00     0.187 HD
HETATM   12  H   UNK N   1      25.016  24.530  -4.567  0.00  0.00     0.187 HD
ENDROOT
BRANCH   5  13
HETATM   13  N   UNK N   1      26.038  26.956  -3.493  0.00  0.00    -0.113 N 
HETATM   14  O   UNK N   1      26.332  26.016  -2.819  0.00  0.00    -0.532 OA
HETATM   15  O   UNK N   1      25.461  27.875  -2.997  0.00  0.00    -0.532 OA
ENDBRANCH   5  13
TORSDOF 1
ENDMDL
MODEL 6
REMARK VINA RESULT:      -5.2      3.843      4.614
REMARK  1 active torsions:
REMARK  status: ('A' for Active; 'I' for Inactive)
REMARK    1  A    between atoms: N_12  and  C_5 
ROOT
HETATM    1  C   UNK N   1      33.866  14.091   7.791  0.00  0.00     0.003 A 
HETATM    2  C   UNK N   1      34.263  13.962   9.134  0.00  0.00     0.017 A 
HETATM    3  C   UNK N   1      33.820  15.364   7.177  0.00  0.00     0.038 A 
HETATM    4  C   UNK N   1      34.601  15.125   9.818  0.00  0.00     0.030 A 
HETATM    5  C   UNK N   1      34.171  16.525   7.903  0.00  0.00     0.131 A 
HETATM    6  C   UNK N   1      34.559  16.354   9.236  0.00  0.00     0.094 A 
HETATM    7  C   UNK N   1      35.018  15.344  11.103  0.00  0.00     0.107 A 
HETATM    8 Br   UNK N   1      35.284  14.027  12.449  0.00  0.00    -0.029 Br
HETATM    9  N   UNK N   1      34.936  17.290  10.128  0.00  0.00    -0.296 N 
HETATM   10  N   UNK N   1      35.217  16.672  11.271  0.00  0.00    -0.292 N 
ATOM     11  HN  UNK N   1      35.530  17.123  12.130  1.00  0.00     0.187 HD
HETATM   12  H   UNK N   1      34.993  18.259   9.962  0.00  0.00     0.187 HD
ENDROOT
BRANCH   5  13
HETATM   13  N   UNK N   1      34.127  17.811   7.292  0.00  0.00    -0.113 N 
HETATM   14  O   UNK N   1      34.198  17.912   6.105  0.00  0.00    -0.532 OA
HETATM   15  O   UNK N   1      34.019  18.796   7.958  0.00  0.00    -0.532 OA
ENDBRANCH   5  13
TORSDOF 1
ENDMDL
MODEL 7
REMARK VINA RESULT:      -5.1     11.855     12.225
REMARK  1 active torsions:
REMARK  status: ('A' for Active; 'I' for Inactive)
REMARK    1  A    between atoms: N_12  and  C_5 
ROOT
HETATM    1  C   UNK N   1      42.036  19.880   2.544  0.00  0.00     0.003 A 
HETATM    2  C   UNK N   1      41.264  20.468   1.526  0.00  0.00     0.017 A 
HETATM    3  C   UNK N   1      42.806  20.686   3.415  0.00  0.00     0.038 A 
HETATM    4  C   UNK N   1      41.292  21.855   1.418  0.00  0.00     0.030 A 
HETATM    5  C   UNK N   1      42.811  22.093   3.276  0.00  0.00     0.131 A 
HETATM    6  C   UNK N   1      42.029  22.638   2.252  0.00  0.00     0.094 A 
HETATM    7  C   UNK N   1      40.671  22.720   0.559  0.00  0.00     0.107 A 
HETATM    8 Br   UNK N   1      39.489  22.258  -0.858  0.00  0.00    -0.029 Br
HETATM    9  N   UNK N   1      41.867  23.932   1.917  0.00  0.00    -0.296 N 
HETATM   10  N   UNK N   1      41.035  23.983   0.881  0.00  0.00    -0.292 N 
ATOM     11  HN  UNK N   1      40.724  24.831   0.408  1.00  0.00     0.187 HD
HETATM   12  H   UNK N   1      42.288  24.703   2.361  0.00  0.00     0.187 HD
ENDROOT
BRANCH   5  13
HETATM   13  N   UNK N   1      43.583  22.911   4.149  0.00  0.00    -0.113 N 
HETATM   14  O   UNK N   1      43.886  22.510   5.232  0.00  0.00    -0.532 OA
HETATM   15  O   UNK N   1      43.932  24.000   3.809  0.00  0.00    -0.532 OA
ENDBRANCH   5  13
TORSDOF 1
ENDMDL
MODEL 8
REMARK VINA RESULT:      -5.0     16.829     17.376
REMARK  1 active torsions:
REMARK  status: ('A' for Active; 'I' for Inactive)
REMARK    1  A    between atoms: N_12  and  C_5 
ROOT
HETATM    1  C   UNK N   1      27.785  27.870  -7.257  0.00  0.00     0.003 A 
HETATM    2  C   UNK N   1      27.505  28.870  -6.309  0.00  0.00     0.017 A 
HETATM    3  C   UNK N   1      27.349  26.541  -7.047  0.00  0.00     0.038 A 
HETATM    4  C   UNK N   1      26.791  28.497  -5.174  0.00  0.00     0.030 A 
HETATM    5  C   UNK N   1      26.626  26.198  -5.882  0.00  0.00     0.131 A 
HETATM    6  C   UNK N   1      26.367  27.221  -4.964  0.00  0.00     0.094 A 
HETATM    7  C   UNK N   1      26.364  29.208  -4.085  0.00  0.00     0.107 A 
HETATM    8 Br   UNK N   1      26.635  31.062  -3.764  0.00  0.00    -0.029 Br
HETATM    9  N   UNK N   1      25.707  27.152  -3.793  0.00  0.00    -0.296 N 
HETATM   10  N   UNK N   1      25.704  28.367  -3.254  0.00  0.00    -0.292 N 
ATOM     11  HN  UNK N   1      25.277  28.624  -2.365  1.00  0.00     0.187 HD
HETATM   12  H   UNK N   1      25.298  26.344  -3.404  0.00  0.00     0.187 HD
ENDROOT
BRANCH   5  13
HETATM   13  N   UNK N   1      26.183  24.862  -5.663  0.00  0.00    -0.113 N 
HETATM   14  O   UNK N   1      26.973  23.968  -5.630  0.00  0.00    -0.532 OA
HETATM   15  O   UNK N   1      25.023  24.625  -5.512  0.00  0.00    -0.532 OA
ENDBRANCH   5  13
TORSDOF 1
ENDMDL
MODEL 9
REMARK VINA RESULT:      -5.0      3.177      4.245
REMARK  1 active torsions:
REMARK  status: ('A' for Active; 'I' for Inactive)
REMARK    1  A    between atoms: N_12  and  C_5 
ROOT
HETATM    1  C   UNK N   1      29.409  16.694   5.837  0.00  0.00     0.003 A 
HETATM    2  C   UNK N   1      30.807  16.546   5.873  0.00  0.00     0.017 A 
HETATM    3  C   UNK N   1      28.705  17.127   6.985  0.00  0.00     0.038 A 
HETATM    4  C   UNK N   1      31.455  16.841   7.069  0.00  0.00     0.030 A 
HETATM    5  C   UNK N   1      29.395  17.417   8.184  0.00  0.00     0.131 A 
HETATM    6  C   UNK N   1      30.785  17.258   8.178  0.00  0.00     0.094 A 
HETATM    7  C   UNK N   1      32.773  16.802   7.431  0.00  0.00     0.107 A 
HETATM    8 Br   UNK N   1      34.238  16.297   6.328  0.00  0.00    -0.029 Br
HETATM    9  N   UNK N   1      31.659  17.467   9.181  0.00  0.00    -0.296 N 
HETATM   10  N   UNK N   1      32.876  17.188   8.724  0.00  0.00    -0.292 N 
ATOM     11  HN  UNK N   1      33.743  17.254   9.259  1.00  0.00     0.187 HD
HETATM   12  H   UNK N   1      31.437  17.771  10.090  0.00  0.00     0.187 HD
ENDROOT
BRANCH   5  13
HETATM   13  N   UNK N   1      28.694  17.853   9.345  0.00  0.00    -0.113 N 
HETATM   14  O   UNK N   1      27.650  17.353   9.636  0.00  0.00    -0.532 OA
HETATM   15  O   UNK N   1      29.142  18.719  10.034  0.00  0.00    -0.532 OA
ENDBRANCH   5  13
TORSDOF 1
ENDMDL
