REMARK  1 active torsions:
REMARK  status: ('A' for Active; 'I' for Inactive)
REMARK    1  A    between atoms: N_1  and  C_2 
ROOT
HETATM    1  C   UNK N   1       4.442  -0.891   0.000  0.00  0.00     0.036 A 
HETATM    2  C   UNK N   1       5.632  -0.157   0.000  0.00  0.00     0.030 A 
HETATM    3  C   UNK N   1       5.601   1.241   0.000  0.00  0.00     0.003 A 
HETATM    4  C   UNK N   1       4.379   1.918  -0.000  0.00  0.00     0.012 A 
HETATM    5  C   UNK N   1       3.183   1.197  -0.000  0.00  0.00    -0.023 A 
HETATM    6  C   UNK N   1       3.210  -0.218  -0.000  0.00  0.00     0.001 A 
HETATM    7  C   UNK N   1       2.007  -0.935  -0.000  0.00  0.00     0.027 A 
HETATM    8  C   UNK N   1       0.791  -0.257  -0.000  0.00  0.00    -0.025 A 
HETATM    9  C   UNK N   1      -0.406  -0.976   0.000  0.00  0.00     0.012 A 
HETATM   10  C   UNK N   1      -1.626  -0.295   0.000  0.00  0.00     0.001 A 
HETATM   11  C   UNK N   1      -1.651   1.104   0.000  0.00  0.00     0.001 A 
HETATM   12  C   UNK N   1      -0.456   1.830  -0.000  0.00  0.00     0.012 A 
HETATM   13  C   UNK N   1       0.766   1.156  -0.000  0.00  0.00    -0.025 A 
HETATM   14  C   UNK N   1       1.963   1.876  -0.000  0.00  0.00     0.024 A 
ENDROOT
BRANCH   1  15
HETATM   15  N   UNK N   1       4.494  -2.301   0.000  0.00  0.00    -0.398 N 
HETATM   16  H   UNK N   1       3.661  -2.825   0.000  0.00  0.00     0.156 HD
HETATM   17  H   UNK N   1       5.365  -2.761   0.000  0.00  0.00     0.156 HD
ENDBRANCH   1  15
TORSDOF 1
