MODEL 1
REMARK VINA RESULT:      -5.4      0.000      0.000
REMARK  4 active torsions:
REMARK  status: ('A' for Active; 'I' for Inactive)
REMARK    1  A    between atoms: C_2  and  C_1 
REMARK    2  A    between atoms: O_7  and  C_1 
REMARK    3  A    between atoms: C_4  and  O_9 
REMARK    4  A    between atoms: C_5  and  O_10 
ROOT
HETATM    1  C   UNK N   1      34.828  16.048   9.637  0.00  0.00     0.186 C 
HETATM    2  C   UNK N   1      33.506  15.677   8.922  0.00  0.00     0.181 C 
HETATM    3  C   UNK N   1      33.621  16.134   7.469  0.00  0.00     0.188 C 
HETATM    4  C   UNK N   1      33.790  17.659   7.391  0.00  0.00     0.248 C 
HETATM    5  C   UNK N   1      34.743  18.173   8.445  0.00  0.00     0.291 C 
HETATM    6  O   UNK N   1      32.411  16.290   9.539  0.00  0.00    -0.390 OA
HETATM    7  O   UNK N   1      35.081  19.348   8.423  0.00  0.00    -0.262 OA
HETATM    8  O   UNK N   1      35.171  17.383   9.467  0.00  0.00    -0.309 OA
HETATM    9  H   UNK N   1      31.689  16.725  10.021  0.00  0.00     0.210 HD
ENDROOT
BRANCH   1  10
HETATM   10  C   UNK N   1      34.768  15.728  11.128  0.00  0.00     0.199 C 
BRANCH  10  11
HETATM   11  O   UNK N   1      33.727  14.836  11.398  0.00  0.00    -0.398 OA
HETATM   12  H   UNK N   1      33.761  14.156  12.089  0.00  0.00     0.209 HD
ENDBRANCH  10  11
ENDBRANCH   1  10
BRANCH   3  13
HETATM   13  O   UNK N   1      32.499  15.740   6.734  0.00  0.00    -0.390 OA
HETATM   14  H   UNK N   1      31.598  15.864   7.074  0.00  0.00     0.210 HD
ENDBRANCH   3  13
BRANCH   4  15
HETATM   15  O   UNK N   1      34.241  18.003   6.115  0.00  0.00    -0.383 OA
HETATM   16  H   UNK N   1      33.741  18.315   5.344  0.00  0.00     0.210 HD
ENDBRANCH   4  15
TORSDOF 4
ENDMDL
MODEL 2
REMARK VINA RESULT:      -5.1     14.016     15.380
REMARK  4 active torsions:
REMARK  status: ('A' for Active; 'I' for Inactive)
REMARK    1  A    between atoms: C_2  and  C_1 
REMARK    2  A    between atoms: O_7  and  C_1 
REMARK    3  A    between atoms: C_4  and  O_9 
REMARK    4  A    between atoms: C_5  and  O_10 
ROOT
HETATM    1  C   UNK N   1      19.748  18.131   3.288  0.00  0.00     0.186 C 
HETATM    2  C   UNK N   1      20.763  19.268   3.562  0.00  0.00     0.181 C 
HETATM    3  C   UNK N   1      20.611  20.304   2.450  0.00  0.00     0.188 C 
HETATM    4  C   UNK N   1      20.947  19.687   1.084  0.00  0.00     0.248 C 
HETATM    5  C   UNK N   1      20.370  18.299   0.936  0.00  0.00     0.291 C 
HETATM    6  O   UNK N   1      22.072  18.776   3.592  0.00  0.00    -0.390 OA
HETATM    7  O   UNK N   1      20.441  17.734  -0.146  0.00  0.00    -0.262 OA
HETATM    8  O   UNK N   1      19.846  17.627   1.998  0.00  0.00    -0.309 OA
HETATM    9  H   UNK N   1      22.955  18.374   3.622  0.00  0.00     0.210 HD
ENDROOT
BRANCH   1  10
HETATM   10  C   UNK N   1      19.899  16.990   4.289  0.00  0.00     0.199 C 
BRANCH  10  11
HETATM   11  O   UNK N   1      18.657  16.417   4.572  0.00  0.00    -0.398 OA
HETATM   12  H   UNK N   1      18.512  15.751   5.262  0.00  0.00     0.209 HD
ENDBRANCH  10  11
ENDBRANCH   1  10
BRANCH   3  13
HETATM   13  O   UNK N   1      21.429  21.412   2.688  0.00  0.00    -0.390 OA
HETATM   14  H   UNK N   1      21.058  22.294   2.852  0.00  0.00     0.210 HD
ENDBRANCH   3  13
BRANCH   4  15
HETATM   15  O   UNK N   1      20.468  20.526   0.075  0.00  0.00    -0.383 OA
HETATM   16  H   UNK N   1      19.558  20.797  -0.125  0.00  0.00     0.210 HD
ENDBRANCH   4  15
TORSDOF 4
ENDMDL
MODEL 3
REMARK VINA RESULT:      -5.1     13.392     15.021
REMARK  4 active torsions:
REMARK  status: ('A' for Active; 'I' for Inactive)
REMARK    1  A    between atoms: C_2  and  C_1 
REMARK    2  A    between atoms: O_7  and  C_1 
REMARK    3  A    between atoms: C_4  and  O_9 
REMARK    4  A    between atoms: C_5  and  O_10 
ROOT
HETATM    1  C   UNK N   1      21.627  19.509   3.339  0.00  0.00     0.186 C 
HETATM    2  C   UNK N   1      20.343  19.633   2.485  0.00  0.00     0.181 C 
HETATM    3  C   UNK N   1      19.375  18.544   2.941  0.00  0.00     0.188 C 
HETATM    4  C   UNK N   1      19.973  17.149   2.698  0.00  0.00     0.248 C 
HETATM    5  C   UNK N   1      21.436  17.093   3.069  0.00  0.00     0.291 C 
HETATM    6  O   UNK N   1      20.630  19.490   1.123  0.00  0.00    -0.390 OA
HETATM    7  O   UNK N   1      22.015  16.016   3.056  0.00  0.00    -0.262 OA
HETATM    8  O   UNK N   1      22.149  18.222   3.337  0.00  0.00    -0.309 OA
HETATM    9  H   UNK N   1      20.892  19.403   0.193  0.00  0.00     0.210 HD
ENDROOT
BRANCH   1  10
HETATM   10  C   UNK N   1      22.703  20.491   2.883  0.00  0.00     0.199 C 
BRANCH  10  11
HETATM   11  O   UNK N   1      22.158  21.763   2.690  0.00  0.00    -0.398 OA
HETATM   12  H   UNK N   1      22.665  22.586   2.761  0.00  0.00     0.209 HD
ENDBRANCH  10  11
ENDBRANCH   1  10
BRANCH   3  13
HETATM   13  O   UNK N   1      18.149  18.659   2.278  0.00  0.00    -0.390 OA
HETATM   14  H   UNK N   1      18.017  18.300   1.386  0.00  0.00     0.210 HD
ENDBRANCH   3  13
BRANCH   4  15
HETATM   15  O   UNK N   1      19.246  16.208   3.430  0.00  0.00    -0.383 OA
HETATM   16  H   UNK N   1      19.517  15.673   4.193  0.00  0.00     0.210 HD
ENDBRANCH   4  15
TORSDOF 4
ENDMDL
MODEL 4
REMARK VINA RESULT:      -4.9      1.444      3.771
REMARK  4 active torsions:
REMARK  status: ('A' for Active; 'I' for Inactive)
REMARK    1  A    between atoms: C_2  and  C_1 
REMARK    2  A    between atoms: O_7  and  C_1 
REMARK    3  A    between atoms: C_4  and  O_9 
REMARK    4  A    between atoms: C_5  and  O_10 
ROOT
HETATM    1  C   UNK N   1      33.956  17.327   9.077  0.00  0.00     0.186 C 
HETATM    2  C   UNK N   1      33.481  15.974   8.494  0.00  0.00     0.181 C 
HETATM    3  C   UNK N   1      33.132  15.059   9.665  0.00  0.00     0.188 C 
HETATM    4  C   UNK N   1      34.372  14.792  10.533  0.00  0.00     0.248 C 
HETATM    5  C   UNK N   1      35.192  16.043  10.742  0.00  0.00     0.291 C 
HETATM    6  O   UNK N   1      34.476  15.391   7.701  0.00  0.00    -0.390 OA
HETATM    7  O   UNK N   1      36.136  16.017  11.519  0.00  0.00    -0.262 OA
HETATM    8  O   UNK N   1      34.961  17.177  10.024  0.00  0.00    -0.309 OA
HETATM    9  H   UNK N   1      35.195  15.047   7.148  0.00  0.00     0.210 HD
ENDROOT
BRANCH   1  10
HETATM   10  C   UNK N   1      34.433  18.275   7.981  0.00  0.00     0.199 C 
BRANCH  10  11
HETATM   11  O   UNK N   1      35.303  19.235   8.505  0.00  0.00    -0.398 OA
HETATM   12  H   UNK N   1      35.499  19.330   9.450  0.00  0.00     0.209 HD
ENDBRANCH  10  11
ENDBRANCH   1  10
BRANCH   3  13
HETATM   13  O   UNK N   1      32.599  13.850   9.211  0.00  0.00    -0.390 OA
HETATM   14  H   UNK N   1      33.168  13.121   8.917  0.00  0.00     0.210 HD
ENDBRANCH   3  13
BRANCH   4  15
HETATM   15  O   UNK N   1      33.964  14.265  11.760  0.00  0.00    -0.383 OA
HETATM   16  H   UNK N   1      33.336  13.549  11.949  0.00  0.00     0.210 HD
ENDBRANCH   4  15
TORSDOF 4
ENDMDL
MODEL 5
REMARK VINA RESULT:      -4.9      2.884      5.680
REMARK  4 active torsions:
REMARK  status: ('A' for Active; 'I' for Inactive)
REMARK    1  A    between atoms: C_2  and  C_1 
REMARK    2  A    between atoms: O_7  and  C_1 
REMARK    3  A    between atoms: C_4  and  O_9 
REMARK    4  A    between atoms: C_5  and  O_10 
ROOT
HETATM    1  C   UNK N   1      35.092  14.667  10.314  0.00  0.00     0.186 C 
HETATM    2  C   UNK N   1      36.635  14.773  10.269  0.00  0.00     0.181 C 
HETATM    3  C   UNK N   1      37.207  13.517  10.922  0.00  0.00     0.188 C 
HETATM    4  C   UNK N   1      36.780  13.430  12.396  0.00  0.00     0.248 C 
HETATM    5  C   UNK N   1      35.332  13.814  12.585  0.00  0.00     0.291 C 
HETATM    6  O   UNK N   1      37.081  15.917  10.941  0.00  0.00    -0.390 OA
HETATM    7  O   UNK N   1      34.812  13.666  13.683  0.00  0.00    -0.262 OA
HETATM    8  O   UNK N   1      34.611  14.399  11.589  0.00  0.00    -0.309 OA
HETATM    9  H   UNK N   1      37.327  16.734  11.403  0.00  0.00     0.210 HD
ENDROOT
BRANCH   1  10
HETATM   10  C   UNK N   1      34.426  15.932   9.779  0.00  0.00     0.199 C 
BRANCH  10  11
HETATM   11  O   UNK N   1      34.623  17.000  10.657  0.00  0.00    -0.398 OA
HETATM   12  H   UNK N   1      33.931  17.632  10.907  0.00  0.00     0.209 HD
ENDBRANCH  10  11
ENDBRANCH   1  10
BRANCH   3  13
HETATM   13  O   UNK N   1      38.601  13.497  10.828  0.00  0.00    -0.390 OA
HETATM   14  H   UNK N   1      39.055  13.587   9.974  0.00  0.00     0.210 HD
ENDBRANCH   3  13
BRANCH   4  15
HETATM   15  O   UNK N   1      37.007  12.132  12.860  0.00  0.00    -0.383 OA
HETATM   16  H   UNK N   1      37.512  11.409  12.456  0.00  0.00     0.210 HD
ENDBRANCH   4  15
TORSDOF 4
ENDMDL
MODEL 6
REMARK VINA RESULT:      -4.9      2.670      4.671
REMARK  4 active torsions:
REMARK  status: ('A' for Active; 'I' for Inactive)
REMARK    1  A    between atoms: C_2  and  C_1 
REMARK    2  A    between atoms: O_7  and  C_1 
REMARK    3  A    between atoms: C_4  and  O_9 
REMARK    4  A    between atoms: C_5  and  O_10 
ROOT
HETATM    1  C   UNK N   1      36.734  13.759   9.841  0.00  0.00     0.186 C 
HETATM    2  C   UNK N   1      36.380  13.348  11.290  0.00  0.00     0.181 C 
HETATM    3  C   UNK N   1      34.871  13.504  11.463  0.00  0.00     0.188 C 
HETATM    4  C   UNK N   1      34.452  14.970  11.270  0.00  0.00     0.248 C 
HETATM    5  C   UNK N   1      35.172  15.612  10.108  0.00  0.00     0.291 C 
HETATM    6  O   UNK N   1      37.061  14.143  12.219  0.00  0.00    -0.390 OA
HETATM    7  O   UNK N   1      34.845  16.734   9.749  0.00  0.00    -0.262 OA
HETATM    8  O   UNK N   1      36.231  15.008   9.502  0.00  0.00    -0.309 OA
HETATM    9  H   UNK N   1      37.574  14.712  12.814  0.00  0.00     0.210 HD
ENDROOT
BRANCH   1  10
HETATM   10  C   UNK N   1      38.241  13.740   9.603  0.00  0.00     0.199 C 
BRANCH  10  11
HETATM   11  O   UNK N   1      38.814  14.957   9.980  0.00  0.00    -0.398 OA
HETATM   12  H   UNK N   1      38.637  15.800   9.534  0.00  0.00     0.209 HD
ENDBRANCH  10  11
ENDBRANCH   1  10
BRANCH   3  13
HETATM   13  O   UNK N   1      34.465  13.053  12.722  0.00  0.00    -0.390 OA
HETATM   14  H   UNK N   1      33.560  13.193  13.045  0.00  0.00     0.210 HD
ENDBRANCH   3  13
BRANCH   4  15
HETATM   15  O   UNK N   1      33.069  15.027  11.080  0.00  0.00    -0.383 OA
HETATM   16  H   UNK N   1      32.559  15.086  10.258  0.00  0.00     0.210 HD
ENDBRANCH   4  15
TORSDOF 4
ENDMDL
MODEL 7
REMARK VINA RESULT:      -4.9     11.218     12.479
REMARK  4 active torsions:
REMARK  status: ('A' for Active; 'I' for Inactive)
REMARK    1  A    between atoms: C_2  and  C_1 
REMARK    2  A    between atoms: O_7  and  C_1 
REMARK    3  A    between atoms: C_4  and  O_9 
REMARK    4  A    between atoms: C_5  and  O_10 
ROOT
HETATM    1  C   UNK N   1      42.890  20.329   3.218  0.00  0.00     0.186 C 
HETATM    2  C   UNK N   1      44.395  20.659   3.355  0.00  0.00     0.181 C 
HETATM    3  C   UNK N   1      44.514  21.999   4.077  0.00  0.00     0.188 C 
HETATM    4  C   UNK N   1      43.856  23.119   3.254  0.00  0.00     0.248 C 
HETATM    5  C   UNK N   1      42.545  22.675   2.650  0.00  0.00     0.291 C 
HETATM    6  O   UNK N   1      45.011  20.726   2.100  0.00  0.00    -0.390 OA
HETATM    7  O   UNK N   1      41.841  23.496   2.079  0.00  0.00    -0.262 OA
HETATM    8  O   UNK N   1      42.164  21.368   2.650  0.00  0.00    -0.309 OA
HETATM    9  H   UNK N   1      45.386  20.740   1.205  0.00  0.00     0.210 HD
ENDROOT
BRANCH   1  10
HETATM   10  C   UNK N   1      42.665  19.054   2.410  0.00  0.00     0.199 C 
BRANCH  10  11
HETATM   11  O   UNK N   1      43.661  18.115   2.687  0.00  0.00    -0.398 OA
HETATM   12  H   UNK N   1      44.224  18.138   3.477  0.00  0.00     0.209 HD
ENDBRANCH  10  11
ENDBRANCH   1  10
BRANCH   3  13
HETATM   13  O   UNK N   1      45.853  22.315   4.325  0.00  0.00    -0.390 OA
HETATM   14  H   UNK N   1      46.183  22.461   5.226  0.00  0.00     0.210 HD
ENDBRANCH   3  13
BRANCH   4  15
HETATM   15  O   UNK N   1      43.664  24.233   4.074  0.00  0.00    -0.383 OA
HETATM   16  H   UNK N   1      43.699  24.305   5.041  0.00  0.00     0.210 HD
ENDBRANCH   4  15
TORSDOF 4
ENDMDL
MODEL 8
REMARK VINA RESULT:      -4.9      1.753      2.561
REMARK  4 active torsions:
REMARK  status: ('A' for Active; 'I' for Inactive)
REMARK    1  A    between atoms: C_2  and  C_1 
REMARK    2  A    between atoms: O_7  and  C_1 
REMARK    3  A    between atoms: C_4  and  O_9 
REMARK    4  A    between atoms: C_5  and  O_10 
ROOT
HETATM    1  C   UNK N   1      34.754  16.045   9.692  0.00  0.00     0.186 C 
HETATM    2  C   UNK N   1      33.921  14.793  10.060  0.00  0.00     0.181 C 
HETATM    3  C   UNK N   1      33.074  14.425   8.845  0.00  0.00     0.188 C 
HETATM    4  C   UNK N   1      32.096  15.560   8.500  0.00  0.00     0.248 C 
HETATM    5  C   UNK N   1      32.751  16.917   8.609  0.00  0.00     0.291 C 
HETATM    6  O   UNK N   1      33.102  15.042  11.167  0.00  0.00    -0.390 OA
HETATM    7  O   UNK N   1      32.138  17.907   8.237  0.00  0.00    -0.262 OA
HETATM    8  O   UNK N   1      33.974  17.076   9.186  0.00  0.00    -0.309 OA
HETATM    9  H   UNK N   1      32.573  15.267  11.948  0.00  0.00     0.210 HD
ENDROOT
BRANCH   1  10
HETATM   10  C   UNK N   1      35.557  16.557  10.885  0.00  0.00     0.199 C 
BRANCH  10  11
HETATM   11  O   UNK N   1      36.882  16.119  10.809  0.00  0.00    -0.398 OA
HETATM   12  H   UNK N   1      37.148  15.188  10.856  0.00  0.00     0.209 HD
ENDBRANCH  10  11
ENDBRANCH   1  10
BRANCH   3  13
HETATM   13  O   UNK N   1      32.368  13.240   9.071  0.00  0.00    -0.390 OA
HETATM   14  H   UNK N   1      31.805  13.124   9.854  0.00  0.00     0.210 HD
ENDBRANCH   3  13
BRANCH   4  15
HETATM   15  O   UNK N   1      31.600  15.357   7.210  0.00  0.00    -0.383 OA
HETATM   16  H   UNK N   1      31.656  14.574   6.641  0.00  0.00     0.210 HD
ENDBRANCH   4  15
TORSDOF 4
ENDMDL
MODEL 9
REMARK VINA RESULT:      -4.9     14.010     15.133
REMARK  4 active torsions:
REMARK  status: ('A' for Active; 'I' for Inactive)
REMARK    1  A    between atoms: C_2  and  C_1 
REMARK    2  A    between atoms: O_7  and  C_1 
REMARK    3  A    between atoms: C_4  and  O_9 
REMARK    4  A    between atoms: C_5  and  O_10 
ROOT
HETATM    1  C   UNK N   1      20.862  17.262   2.641  0.00  0.00     0.186 C 
HETATM    2  C   UNK N   1      20.113  18.192   1.657  0.00  0.00     0.181 C 
HETATM    3  C   UNK N   1      20.819  19.546   1.668  0.00  0.00     0.188 C 
HETATM    4  C   UNK N   1      20.751  20.182   3.066  0.00  0.00     0.248 C 
HETATM    5  C   UNK N   1      20.999  19.166   4.157  0.00  0.00     0.291 C 
HETATM    6  O   UNK N   1      18.772  18.340   2.027  0.00  0.00    -0.390 OA
HETATM    7  O   UNK N   1      21.108  19.547   5.314  0.00  0.00    -0.262 OA
HETATM    8  O   UNK N   1      21.021  17.830   3.898  0.00  0.00    -0.309 OA
HETATM    9  H   UNK N   1      17.848  18.387   2.321  0.00  0.00     0.210 HD
ENDROOT
BRANCH   1  10
HETATM   10  C   UNK N   1      20.164  15.912   2.780  0.00  0.00     0.199 C 
BRANCH  10  11
HETATM   11  O   UNK N   1      19.418  15.624   1.634  0.00  0.00    -0.398 OA
HETATM   12  H   UNK N   1      18.701  14.972   1.604  0.00  0.00     0.209 HD
ENDBRANCH  10  11
ENDBRANCH   1  10
BRANCH   3  13
HETATM   13  O   UNK N   1      20.255  20.410   0.725  0.00  0.00    -0.390 OA
HETATM   14  H   UNK N   1      20.713  21.214   0.433  0.00  0.00     0.210 HD
ENDBRANCH   3  13
BRANCH   4  15
HETATM   15  O   UNK N   1      21.684  21.218   3.141  0.00  0.00    -0.383 OA
HETATM   16  H   UNK N   1      22.608  21.199   3.437  0.00  0.00     0.210 HD
ENDBRANCH   4  15
TORSDOF 4
ENDMDL
