MODEL 1
REMARK VINA RESULT:      -5.7      0.000      0.000
REMARK  6 active torsions:
REMARK  status: ('A' for Active; 'I' for Inactive)
REMARK    1  A    between atoms: C_1  and  O_7 
REMARK    2  A    between atoms: C_2  and  O_8 
REMARK    3  A    between atoms: C_3  and  O_9 
REMARK    4  A    between atoms: C_4  and  C_5 
REMARK    5  A    between atoms: O_11  and  C_5 
REMARK    6  A    between atoms: C_6  and  O_12 
ROOT
HETATM    1  C   UNK N   1      35.021  13.481  11.406  0.00  0.00     0.183 C 
HETATM    2  C   UNK N   1      34.576  14.947  11.308  0.00  0.00     0.189 C 
HETATM    3  C   UNK N   1      36.552  13.412  11.469  0.00  0.00     0.204 C 
HETATM    4  C   UNK N   1      35.274  15.573  10.078  0.00  0.00     0.253 C 
HETATM    5  C   UNK N   1      37.139  14.178  10.266  0.00  0.00     0.289 C 
HETATM    6  O   UNK N   1      36.685  15.522  10.247  0.00  0.00    -0.340 OA
ENDROOT
BRANCH   4   7
HETATM    7  C   UNK N   1      34.877  17.009   9.842  0.00  0.00     0.172 C 
HETATM    8  O   UNK N   1      35.691  17.898  10.035  0.00  0.00    -0.648 OA
BRANCH   7   9
HETATM    9  O   UNK N   1      33.641  17.329   9.408  0.00  0.00    -0.774 OA
HETATM   10  H   UNK N   1      32.831  16.970   9.716  0.00  0.00     0.167 HD
ENDBRANCH   7   9
ENDBRANCH   4   7
BRANCH   2  11
HETATM   11  O   UNK N   1      33.186  15.004  11.167  0.00  0.00    -0.390 OA
HETATM   12  H   UNK N   1      32.577  15.638  11.577  0.00  0.00     0.210 HD
ENDBRANCH   2  11
BRANCH   1  13
HETATM   13  O   UNK N   1      34.458  12.870  12.530  0.00  0.00    -0.390 OA
HETATM   14  H   UNK N   1      34.536  13.288  13.401  0.00  0.00     0.210 HD
ENDBRANCH   1  13
BRANCH   5  15
HETATM   15  O   UNK N   1      38.532  14.175  10.358  0.00  0.00    -0.368 OA
HETATM   16  H   UNK N   1      39.092  14.757  10.896  0.00  0.00     0.212 HD
ENDBRANCH   5  15
BRANCH   3  17
HETATM   17  O   UNK N   1      37.007  13.983  12.662  0.00  0.00    -0.388 OA
HETATM   18  H   UNK N   1      37.035  14.494  13.487  0.00  0.00     0.210 HD
ENDBRANCH   3  17
TORSDOF 6
ENDMDL
MODEL 2
REMARK VINA RESULT:      -5.3     16.203     17.822
REMARK  6 active torsions:
REMARK  status: ('A' for Active; 'I' for Inactive)
REMARK    1  A    between atoms: C_1  and  O_7 
REMARK    2  A    between atoms: C_2  and  O_8 
REMARK    3  A    between atoms: C_3  and  O_9 
REMARK    4  A    between atoms: C_4  and  C_5 
REMARK    5  A    between atoms: O_11  and  C_5 
REMARK    6  A    between atoms: C_6  and  O_12 
ROOT
HETATM    1  C   UNK N   1      20.372  16.576   2.009  0.00  0.00     0.183 C 
HETATM    2  C   UNK N   1      20.081  17.911   1.307  0.00  0.00     0.189 C 
HETATM    3  C   UNK N   1      20.258  16.759   3.528  0.00  0.00     0.204 C 
HETATM    4  C   UNK N   1      21.054  18.969   1.877  0.00  0.00     0.253 C 
HETATM    5  C   UNK N   1      21.172  17.922   3.963  0.00  0.00     0.289 C 
HETATM    6  O   UNK N   1      20.838  19.117   3.275  0.00  0.00    -0.340 OA
ENDROOT
BRANCH   4   7
HETATM    7  C   UNK N   1      20.901  20.322   1.228  0.00  0.00     0.172 C 
HETATM    8  O   UNK N   1      21.065  21.331   1.896  0.00  0.00    -0.648 OA
BRANCH   7   9
HETATM    9  O   UNK N   1      20.599  20.437  -0.080  0.00  0.00    -0.774 OA
HETATM   10  H   UNK N   1      19.803  20.164  -0.496  0.00  0.00     0.167 HD
ENDBRANCH   7   9
ENDBRANCH   4   7
BRANCH   2  11
HETATM   11  O   UNK N   1      20.267  17.763  -0.071  0.00  0.00    -0.390 OA
HETATM   12  H   UNK N   1      19.609  17.491  -0.729  0.00  0.00     0.210 HD
ENDBRANCH   2  11
BRANCH   1  13
HETATM   13  O   UNK N   1      19.491  15.586   1.568  0.00  0.00    -0.390 OA
HETATM   14  H   UNK N   1      18.534  15.709   1.662  0.00  0.00     0.210 HD
ENDBRANCH   1  13
BRANCH   5  15
HETATM   15  O   UNK N   1      21.017  18.135   5.334  0.00  0.00    -0.368 OA
HETATM   16  H   UNK N   1      21.658  17.949   6.039  0.00  0.00     0.212 HD
ENDBRANCH   5  15
BRANCH   3  17
HETATM   17  O   UNK N   1      18.934  17.040   3.876  0.00  0.00    -0.388 OA
HETATM   18  H   UNK N   1      17.967  17.122   3.834  0.00  0.00     0.210 HD
ENDBRANCH   3  17
TORSDOF 6
ENDMDL
MODEL 3
REMARK VINA RESULT:      -5.2     14.661     17.046
REMARK  6 active torsions:
REMARK  status: ('A' for Active; 'I' for Inactive)
REMARK    1  A    between atoms: C_1  and  O_7 
REMARK    2  A    between atoms: C_2  and  O_8 
REMARK    3  A    between atoms: C_3  and  O_9 
REMARK    4  A    between atoms: C_4  and  C_5 
REMARK    5  A    between atoms: O_11  and  C_5 
REMARK    6  A    between atoms: C_6  and  O_12 
ROOT
HETATM    1  C   UNK N   1      20.437  19.152   3.147  0.00  0.00     0.183 C 
HETATM    2  C   UNK N   1      21.959  19.045   3.320  0.00  0.00     0.189 C 
HETATM    3  C   UNK N   1      20.108  19.499   1.689  0.00  0.00     0.204 C 
HETATM    4  C   UNK N   1      22.585  20.378   2.845  0.00  0.00     0.253 C 
HETATM    5  C   UNK N   1      20.887  20.768   1.288  0.00  0.00     0.289 C 
HETATM    6  O   UNK N   1      22.282  20.589   1.472  0.00  0.00    -0.340 OA
ENDROOT
BRANCH   4   7
HETATM    7  C   UNK N   1      24.083  20.418   3.012  0.00  0.00     0.172 C 
HETATM    8  O   UNK N   1      24.773  20.918   2.137  0.00  0.00    -0.648 OA
BRANCH   7   9
HETATM    9  O   UNK N   1      24.675  19.923   4.117  0.00  0.00    -0.774 OA
HETATM   10  H   UNK N   1      24.349  19.973   4.995  0.00  0.00     0.167 HD
ENDBRANCH   7   9
ENDBRANCH   4   7
BRANCH   2  11
HETATM   11  O   UNK N   1      22.260  18.812   4.665  0.00  0.00    -0.390 OA
HETATM   12  H   UNK N   1      22.777  18.079   5.036  0.00  0.00     0.210 HD
ENDBRANCH   2  11
BRANCH   1  13
HETATM   13  O   UNK N   1      19.815  17.957   3.517  0.00  0.00    -0.390 OA
HETATM   14  H   UNK N   1      19.238  17.930   4.296  0.00  0.00     0.210 HD
ENDBRANCH   1  13
BRANCH   5  15
HETATM   15  O   UNK N   1      20.643  21.046  -0.058  0.00  0.00    -0.368 OA
HETATM   16  H   UNK N   1      20.526  21.916  -0.473  0.00  0.00     0.212 HD
ENDBRANCH   5  15
BRANCH   3  17
HETATM   17  O   UNK N   1      20.469  18.437   0.854  0.00  0.00    -0.388 OA
HETATM   18  H   UNK N   1      20.917  17.651   0.505  0.00  0.00     0.210 HD
ENDBRANCH   3  17
TORSDOF 6
ENDMDL
MODEL 4
REMARK VINA RESULT:      -5.0      1.981      3.017
REMARK  6 active torsions:
REMARK  status: ('A' for Active; 'I' for Inactive)
REMARK    1  A    between atoms: C_1  and  O_7 
REMARK    2  A    between atoms: C_2  and  O_8 
REMARK    3  A    between atoms: C_3  and  O_9 
REMARK    4  A    between atoms: C_4  and  C_5 
REMARK    5  A    between atoms: O_11  and  C_5 
REMARK    6  A    between atoms: C_6  and  O_12 
ROOT
HETATM    1  C   UNK N   1      33.583  14.422   9.009  0.00  0.00     0.183 C 
HETATM    2  C   UNK N   1      33.320  15.832   8.460  0.00  0.00     0.189 C 
HETATM    3  C   UNK N   1      34.363  14.520  10.326  0.00  0.00     0.204 C 
HETATM    4  C   UNK N   1      34.683  16.547   8.319  0.00  0.00     0.253 C 
HETATM    5  C   UNK N   1      35.634  15.362  10.094  0.00  0.00     0.289 C 
HETATM    6  O   UNK N   1      35.309  16.648   9.592  0.00  0.00    -0.340 OA
ENDROOT
BRANCH   4   7
HETATM    7  C   UNK N   1      34.565  17.935   7.738  0.00  0.00     0.172 C 
HETATM    8  O   UNK N   1      34.121  18.079   6.610  0.00  0.00    -0.648 OA
BRANCH   7   9
HETATM    9  O   UNK N   1      34.929  19.021   8.448  0.00  0.00    -0.774 OA
HETATM   10  H   UNK N   1      35.765  19.447   8.428  0.00  0.00     0.167 HD
ENDBRANCH   7   9
ENDBRANCH   4   7
BRANCH   2  11
HETATM   11  O   UNK N   1      32.682  15.738   7.220  0.00  0.00    -0.390 OA
HETATM   12  H   UNK N   1      31.847  16.154   6.952  0.00  0.00     0.210 HD
ENDBRANCH   2  11
BRANCH   1  13
HETATM   13  O   UNK N   1      32.380  13.738   9.204  0.00  0.00    -0.390 OA
HETATM   14  H   UNK N   1      32.014  13.643  10.096  0.00  0.00     0.210 HD
ENDBRANCH   1  13
BRANCH   5  15
HETATM   15  O   UNK N   1      36.311  15.510  11.306  0.00  0.00    -0.368 OA
HETATM   16  H   UNK N   1      37.270  15.517  11.453  0.00  0.00     0.212 HD
ENDBRANCH   5  15
BRANCH   3  17
HETATM   17  O   UNK N   1      33.569  15.121  11.307  0.00  0.00    -0.388 OA
HETATM   18  H   UNK N   1      32.936  15.711  11.746  0.00  0.00     0.210 HD
ENDBRANCH   3  17
TORSDOF 6
ENDMDL
MODEL 5
REMARK VINA RESULT:      -4.9     12.285     13.280
REMARK  6 active torsions:
REMARK  status: ('A' for Active; 'I' for Inactive)
REMARK    1  A    between atoms: C_1  and  O_7 
REMARK    2  A    between atoms: C_2  and  O_8 
REMARK    3  A    between atoms: C_3  and  O_9 
REMARK    4  A    between atoms: C_4  and  C_5 
REMARK    5  A    between atoms: O_11  and  C_5 
REMARK    6  A    between atoms: C_6  and  O_12 
ROOT
HETATM    1  C   UNK N   1      44.561  21.800   3.994  0.00  0.00     0.183 C 
HETATM    2  C   UNK N   1      43.732  22.713   3.079  0.00  0.00     0.189 C 
HETATM    3  C   UNK N   1      44.710  20.419   3.343  0.00  0.00     0.204 C 
HETATM    4  C   UNK N   1      42.382  22.010   2.804  0.00  0.00     0.253 C 
HETATM    5  C   UNK N   1      43.311  19.874   2.995  0.00  0.00     0.289 C 
HETATM    6  O   UNK N   1      42.611  20.770   2.147  0.00  0.00    -0.340 OA
ENDROOT
BRANCH   4   7
HETATM    7  C   UNK N   1      41.451  22.834   1.951  0.00  0.00     0.172 C 
HETATM    8  O   UNK N   1      40.659  22.273   1.209  0.00  0.00    -0.648 OA
BRANCH   7   9
HETATM    9  O   UNK N   1      41.467  24.181   2.001  0.00  0.00    -0.774 OA
HETATM   10  H   UNK N   1      42.081  24.748   1.574  0.00  0.00     0.167 HD
ENDBRANCH   7   9
ENDBRANCH   4   7
BRANCH   2  11
HETATM   11  O   UNK N   1      43.527  23.943   3.710  0.00  0.00    -0.390 OA
HETATM   12  H   UNK N   1      42.847  24.165   4.366  0.00  0.00     0.210 HD
ENDBRANCH   2  11
BRANCH   1  13
HETATM   13  O   UNK N   1      45.816  22.361   4.243  0.00  0.00    -0.390 OA
HETATM   14  H   UNK N   1      46.570  21.791   4.457  0.00  0.00     0.210 HD
ENDBRANCH   1  13
BRANCH   5  15
HETATM   15  O   UNK N   1      43.447  18.649   2.341  0.00  0.00    -0.368 OA
HETATM   16  H   UNK N   1      44.216  18.323   1.847  0.00  0.00     0.212 HD
ENDBRANCH   5  15
BRANCH   3  17
HETATM   17  O   UNK N   1      45.481  20.521   2.181  0.00  0.00    -0.388 OA
HETATM   18  H   UNK N   1      45.785  20.781   1.296  0.00  0.00     0.210 HD
ENDBRANCH   3  17
TORSDOF 6
ENDMDL
MODEL 6
REMARK VINA RESULT:      -4.8      1.499      4.251
REMARK  6 active torsions:
REMARK  status: ('A' for Active; 'I' for Inactive)
REMARK    1  A    between atoms: C_1  and  O_7 
REMARK    2  A    between atoms: C_2  and  O_8 
REMARK    3  A    between atoms: C_3  and  O_9 
REMARK    4  A    between atoms: C_4  and  C_5 
REMARK    5  A    between atoms: O_11  and  C_5 
REMARK    6  A    between atoms: C_6  and  O_12 
ROOT
HETATM    1  C   UNK N   1      34.971  15.887   9.910  0.00  0.00     0.183 C 
HETATM    2  C   UNK N   1      36.031  15.284  10.843  0.00  0.00     0.189 C 
HETATM    3  C   UNK N   1      33.738  14.974   9.874  0.00  0.00     0.204 C 
HETATM    4  C   UNK N   1      36.337  13.851  10.350  0.00  0.00     0.253 C 
HETATM    5  C   UNK N   1      34.182  13.546   9.498  0.00  0.00     0.289 C 
HETATM    6  O   UNK N   1      35.157  13.060  10.407  0.00  0.00    -0.340 OA
ENDROOT
BRANCH   4   7
HETATM    7  C   UNK N   1      37.408  13.164  11.160  0.00  0.00     0.172 C 
HETATM    8  O   UNK N   1      38.557  13.149  10.749  0.00  0.00    -0.648 OA
BRANCH   7   9
HETATM    9  O   UNK N   1      37.120  12.575  12.338  0.00  0.00    -0.774 OA
HETATM   10  H   UNK N   1      37.716  12.099  12.885  0.00  0.00     0.167 HD
ENDBRANCH   7   9
ENDBRANCH   4   7
BRANCH   2  11
HETATM   11  O   UNK N   1      37.184  16.073  10.810  0.00  0.00    -0.390 OA
HETATM   12  H   UNK N   1      37.237  17.039  10.735  0.00  0.00     0.210 HD
ENDBRANCH   2  11
BRANCH   1  13
HETATM   13  O   UNK N   1      34.616  17.171  10.332  0.00  0.00    -0.390 OA
HETATM   14  H   UNK N   1      34.548  17.370  11.278  0.00  0.00     0.210 HD
ENDBRANCH   1  13
BRANCH   5  15
HETATM   15  O   UNK N   1      33.073  12.700   9.532  0.00  0.00    -0.368 OA
HETATM   16  H   UNK N   1      33.028  11.794   9.878  0.00  0.00     0.212 HD
ENDBRANCH   5  15
BRANCH   3  17
HETATM   17  O   UNK N   1      33.117  14.963  11.127  0.00  0.00    -0.388 OA
HETATM   18  H   UNK N   1      32.927  14.773  12.059  0.00  0.00     0.210 HD
ENDBRANCH   3  17
TORSDOF 6
ENDMDL
MODEL 7
REMARK VINA RESULT:      -4.7     14.294     16.825
REMARK  6 active torsions:
REMARK  status: ('A' for Active; 'I' for Inactive)
REMARK    1  A    between atoms: C_1  and  O_7 
REMARK    2  A    between atoms: C_2  and  O_8 
REMARK    3  A    between atoms: C_3  and  O_9 
REMARK    4  A    between atoms: C_4  and  C_5 
REMARK    5  A    between atoms: O_11  and  C_5 
REMARK    6  A    between atoms: C_6  and  O_12 
ROOT
HETATM    1  C   UNK N   1      22.038  20.290   2.648  0.00  0.00     0.183 C 
HETATM    2  C   UNK N   1      22.577  19.403   3.780  0.00  0.00     0.189 C 
HETATM    3  C   UNK N   1      20.505  20.230   2.634  0.00  0.00     0.204 C 
HETATM    4  C   UNK N   1      22.017  17.977   3.573  0.00  0.00     0.253 C 
HETATM    5  C   UNK N   1      20.061  18.755   2.557  0.00  0.00     0.289 C 
HETATM    6  O   UNK N   1      20.596  18.005   3.635  0.00  0.00    -0.340 OA
ENDROOT
BRANCH   4   7
HETATM    7  C   UNK N   1      22.516  16.992   4.600  0.00  0.00     0.172 C 
HETATM    8  O   UNK N   1      22.365  15.795   4.409  0.00  0.00    -0.648 OA
BRANCH   7   9
HETATM    9  O   UNK N   1      23.139  17.408   5.720  0.00  0.00    -0.774 OA
HETATM   10  H   UNK N   1      23.654  18.187   5.817  0.00  0.00     0.167 HD
ENDBRANCH   7   9
ENDBRANCH   4   7
BRANCH   2  11
HETATM   11  O   UNK N   1      23.975  19.393   3.738  0.00  0.00    -0.390 OA
HETATM   12  H   UNK N   1      24.565  18.642   3.903  0.00  0.00     0.210 HD
ENDBRANCH   2  11
BRANCH   1  13
HETATM   13  O   UNK N   1      22.474  21.608   2.805  0.00  0.00    -0.390 OA
HETATM   14  H   UNK N   1      22.849  21.899   3.651  0.00  0.00     0.210 HD
ENDBRANCH   1  13
BRANCH   5  15
HETATM   15  O   UNK N   1      18.668  18.694   2.613  0.00  0.00    -0.368 OA
HETATM   16  H   UNK N   1      18.040  19.433   2.570  0.00  0.00     0.212 HD
ENDBRANCH   5  15
BRANCH   3  17
HETATM   17  O   UNK N   1      19.994  20.818   3.796  0.00  0.00    -0.388 OA
HETATM   18  H   UNK N   1      19.902  21.110   4.717  0.00  0.00     0.210 HD
ENDBRANCH   3  17
TORSDOF 6
ENDMDL
MODEL 8
REMARK VINA RESULT:      -4.7     14.395     15.781
REMARK  6 active torsions:
REMARK  status: ('A' for Active; 'I' for Inactive)
REMARK    1  A    between atoms: C_1  and  O_7 
REMARK    2  A    between atoms: C_2  and  O_8 
REMARK    3  A    between atoms: C_3  and  O_9 
REMARK    4  A    between atoms: C_4  and  C_5 
REMARK    5  A    between atoms: O_11  and  C_5 
REMARK    6  A    between atoms: C_6  and  O_12 
ROOT
HETATM    1  C   UNK N   1      20.096  15.186   7.386  0.00  0.00     0.183 C 
HETATM    2  C   UNK N   1      19.834  16.010   8.655  0.00  0.00     0.189 C 
HETATM    3  C   UNK N   1      21.302  15.767   6.636  0.00  0.00     0.204 C 
HETATM    4  C   UNK N   1      19.647  17.486   8.233  0.00  0.00     0.253 C 
HETATM    5  C   UNK N   1      21.060  17.269   6.384  0.00  0.00     0.289 C 
HETATM    6  O   UNK N   1      20.831  17.959   7.602  0.00  0.00    -0.340 OA
ENDROOT
BRANCH   4   7
HETATM    7  C   UNK N   1      19.333  18.396   9.393  0.00  0.00     0.172 C 
HETATM    8  O   UNK N   1      20.168  19.204   9.768  0.00  0.00    -0.648 OA
BRANCH   7   9
HETATM    9  O   UNK N   1      18.139  18.343  10.017  0.00  0.00    -0.774 OA
HETATM   10  H   UNK N   1      17.296  18.460   9.622  0.00  0.00     0.167 HD
ENDBRANCH   7   9
ENDBRANCH   4   7
BRANCH   2  11
HETATM   11  O   UNK N   1      18.686  15.531   9.293  0.00  0.00    -0.390 OA
HETATM   12  H   UNK N   1      17.987  16.051   9.718  0.00  0.00     0.210 HD
ENDBRANCH   2  11
BRANCH   1  13
HETATM   13  O   UNK N   1      20.320  13.845   7.706  0.00  0.00    -0.390 OA
HETATM   14  H   UNK N   1      21.107  13.389   7.370  0.00  0.00     0.210 HD
ENDBRANCH   1  13
BRANCH   5  15
HETATM   15  O   UNK N   1      22.185  17.814   5.763  0.00  0.00    -0.368 OA
HETATM   16  H   UNK N   1      23.054  17.991   6.158  0.00  0.00     0.212 HD
ENDBRANCH   5  15
BRANCH   3  17
HETATM   17  O   UNK N   1      22.463  15.594   7.394  0.00  0.00    -0.388 OA
HETATM   18  H   UNK N   1      23.183  15.179   7.895  0.00  0.00     0.210 HD
ENDBRANCH   3  17
TORSDOF 6
ENDMDL
MODEL 9
REMARK VINA RESULT:      -4.7      2.117      4.382
REMARK  6 active torsions:
REMARK  status: ('A' for Active; 'I' for Inactive)
REMARK    1  A    between atoms: C_1  and  O_7 
REMARK    2  A    between atoms: C_2  and  O_8 
REMARK    3  A    between atoms: C_3  and  O_9 
REMARK    4  A    between atoms: C_4  and  C_5 
REMARK    5  A    between atoms: O_11  and  C_5 
REMARK    6  A    between atoms: C_6  and  O_12 
ROOT
HETATM    1  C   UNK N   1      33.147  15.749   8.200  0.00  0.00     0.183 C 
HETATM    2  C   UNK N   1      34.181  15.114   9.142  0.00  0.00     0.189 C 
HETATM    3  C   UNK N   1      33.781  16.938   7.467  0.00  0.00     0.204 C 
HETATM    4  C   UNK N   1      34.699  16.220  10.091  0.00  0.00     0.253 C 
HETATM    5  C   UNK N   1      34.378  17.908   8.507  0.00  0.00     0.289 C 
HETATM    6  O   UNK N   1      35.324  17.249   9.334  0.00  0.00    -0.340 OA
ENDROOT
BRANCH   4   7
HETATM    7  C   UNK N   1      35.692  15.709  11.105  0.00  0.00     0.172 C 
HETATM    8  O   UNK N   1      35.305  15.002  12.022  0.00  0.00    -0.648 OA
BRANCH   7   9
HETATM    9  O   UNK N   1      37.002  16.009  11.010  0.00  0.00    -0.774 OA
HETATM   10  H   UNK N   1      37.709  15.400  10.913  0.00  0.00     0.167 HD
ENDBRANCH   7   9
ENDBRANCH   4   7
BRANCH   2  11
HETATM   11  O   UNK N   1      33.577  14.084   9.869  0.00  0.00    -0.390 OA
HETATM   12  H   UNK N   1      32.630  13.950  10.028  0.00  0.00     0.210 HD
ENDBRANCH   2  11
BRANCH   1  13
HETATM   13  O   UNK N   1      32.673  14.807   7.283  0.00  0.00    -0.390 OA
HETATM   14  H   UNK N   1      32.170  15.095   6.506  0.00  0.00     0.210 HD
ENDBRANCH   1  13
BRANCH   5  15
HETATM   15  O   UNK N   1      35.016  18.956   7.841  0.00  0.00    -0.368 OA
HETATM   16  H   UNK N   1      35.380  19.769   8.225  0.00  0.00     0.212 HD
ENDBRANCH   5  15
BRANCH   3  17
HETATM   17  O   UNK N   1      34.788  16.487   6.608  0.00  0.00    -0.388 OA
HETATM   18  H   UNK N   1      35.334  15.908   6.053  0.00  0.00     0.210 HD
ENDBRANCH   3  17
TORSDOF 6
ENDMDL
