MODEL 1
REMARK VINA RESULT:      -6.0      0.000      0.000
REMARK WARNING: 32 MAX_TORS EXCEEDED!!!
REMARK  45 active torsions:
REMARK  status: ('A' for Active; 'I' for Inactive)
REMARK    1  A    between atoms: C_2  and  C_3 
REMARK    2  A    between atoms: C_3  and  C_4 
REMARK    3  A    between atoms: C_4  and  C_5 
REMARK    4  A    between atoms: C_5  and  C_6 
REMARK    5  A    between atoms: C_6  and  C_7 
REMARK    6  A    between atoms: C_7  and  C_8 
REMARK    7  A    between atoms: C_8  and  C_9 
REMARK    8  A    between atoms: C_9  and  C_10 
REMARK    9  A    between atoms: C_10  and  C_11 
REMARK   10  A    between atoms: C_11  and  C_12 
REMARK   11  A    between atoms: C_12  and  C_13 
REMARK   12  A    between atoms: C_13  and  C_14 
REMARK   13  A    between atoms: C_14  and  C_15 
REMARK   14  A    between atoms: C_15  and  C_16 
REMARK   15  A    between atoms: C_16  and  C_17 
REMARK   16  A    between atoms: C_17  and  C_18 
REMARK   17  A    between atoms: C_18  and  O_20 
REMARK   18  A    between atoms: O_20  and  C_21 
REMARK   19  A    between atoms: C_21  and  C_22 
REMARK   20  A    between atoms: C_22  and  C_23 
REMARK   21  A    between atoms: C_22  and  O_32 
REMARK   22  A    between atoms: C_23  and  O_24 
REMARK   23  A    between atoms: P_25  and  O_24 
REMARK   24  A    between atoms: P_25  and  O_26 
REMARK   25  A    between atoms: P_25  and  O_28 
REMARK   26  A    between atoms: O_28  and  C_29 
REMARK   27  A    between atoms: C_29  and  C_30 
REMARK   28  A    between atoms: C_30  and  N_31 
REMARK   29  A    between atoms: O_32  and  C_33 
REMARK   30  A    between atoms: C_33  and  C_35 
REMARK   31  A    between atoms: C_35  and  C_36 
REMARK   32  A    between atoms: C_36  and  C_37 
REMARK   33  A    between atoms: C_37  and  C_38 
REMARK   34  A    between atoms: C_38  and  C_39 
REMARK   35  A    between atoms: C_39  and  C_40 
REMARK   36  A    between atoms: C_40  and  C_41 
REMARK   37  A    between atoms: C_41  and  C_42 
REMARK   38  A    between atoms: C_42  and  C_43 
REMARK   39  A    between atoms: C_43  and  C_44 
REMARK   40  A    between atoms: C_44  and  C_45 
REMARK   41  A    between atoms: C_45  and  C_46 
REMARK   42  A    between atoms: C_46  and  C_47 
REMARK   43  A    between atoms: C_47  and  C_48 
REMARK   44  A    between atoms: C_48  and  C_49 
REMARK   45  A    between atoms: C_49  and  C_50 
ROOT
HETATM    1  C   UNK N   1      21.101  19.060   4.007  0.00  0.00     0.180 C 
ENDROOT
BRANCH   1   2
HETATM    2  C   UNK N   1      21.856  19.794   2.900  0.00  0.00     0.213 C 
BRANCH   2   3
HETATM    3  O   UNK N   1      22.855  20.580   3.432  0.00  0.00    -0.319 OA
BRANCH   3   4
HETATM    4  C   UNK N   1      24.146  20.477   3.033  0.00  0.00     0.258 C 
HETATM    5  O   UNK N   1      24.470  20.884   1.931  0.00  0.00    -0.265 OA
BRANCH   4   6
HETATM    6  C   UNK N   1      25.176  19.865   3.932  0.00  0.00     0.111 C 
BRANCH   6   7
HETATM    7  C   UNK N   1      26.561  20.188   3.416  0.00  0.00     0.010 C 
BRANCH   7   8
HETATM    8  C   UNK N   1      27.545  20.123   4.565  0.00  0.00     0.000 C 
BRANCH   8   9
HETATM    9  C   UNK N   1      27.114  21.092   5.649  0.00  0.00     0.000 C 
BRANCH   9  10
HETATM   10  C   UNK N   1      27.347  20.508   7.041  0.00  0.00     0.000 C 
BRANCH  10  11
HETATM   11  C   UNK N   1      27.950  19.108   7.012  0.00  0.00     0.000 C 
BRANCH  11  12
HETATM   12  C   UNK N   1      28.384  18.664   8.401  0.00  0.00     0.000 C 
BRANCH  12  13
HETATM   13  C   UNK N   1      29.423  17.561   8.292  0.00  0.00     0.000 C 
BRANCH  13  14
HETATM   14  C   UNK N   1      30.795  18.087   8.675  0.00  0.00     0.000 C 
BRANCH  14  15
HETATM   15  C   UNK N   1      31.869  17.200   8.081  0.00  0.00     0.000 C 
BRANCH  15  16
HETATM   16  C   UNK N   1      33.137  18.000   7.879  0.00  0.00     0.000 C 
BRANCH  16  17
HETATM   17  C   UNK N   1      33.746  17.581   6.564  0.00  0.00     0.000 C 
BRANCH  17  18
HETATM   18  C   UNK N   1      32.721  16.895   5.691  0.00  0.00     0.000 C 
BRANCH  18  19
HETATM   19  C   UNK N   1      32.569  17.724   4.434  0.00  0.00     0.000 C 
BRANCH  19  20
HETATM   20  C   UNK N   1      32.506  16.839   3.211  0.00  0.00    -0.000 C 
BRANCH  20  21
HETATM   21  C   UNK N   1      32.810  15.418   3.637  0.00  0.00    -0.005 C 
HETATM   22  C   UNK N   1      33.883  14.834   2.745  0.00  0.00     0.005 C 
ENDBRANCH  20  21
ENDBRANCH  19  20
ENDBRANCH  18  19
ENDBRANCH  17  18
ENDBRANCH  16  17
ENDBRANCH  15  16
ENDBRANCH  14  15
ENDBRANCH  13  14
ENDBRANCH  12  13
ENDBRANCH  11  12
ENDBRANCH  10  11
ENDBRANCH   9  10
ENDBRANCH   8   9
ENDBRANCH   7   8
ENDBRANCH   6   7
ENDBRANCH   4   6
ENDBRANCH   3   4
ENDBRANCH   2   3
ENDBRANCH   1   2
BRANCH   1  23
HETATM   23  C   UNK N   1      20.159  18.024   3.395  0.00  0.00     0.215 C 
BRANCH  23  24
HETATM   24  O   UNK N   1      20.145  18.131   2.001  0.00  0.00    -0.294 OA
BRANCH  24  25
HETATM   25  P   UNK N   1      19.833  16.515   1.432  0.00  0.00     0.393 P 
HETATM   26  O   UNK N   1      21.025  16.302   2.403  0.00  0.00    -0.631 OA
BRANCH  25  27
HETATM   27  O   UNK N   1      20.323  17.526   0.105  0.00  0.00    -0.307 OA
HETATM   28  H   UNK N   1      20.017  17.368  -0.802  0.00  0.00     0.222 HD
ENDBRANCH  25  27
BRANCH  25  29
HETATM   29  O   UNK N   1      20.988  15.686   0.430  0.00  0.00    -0.295 OA
BRANCH  29  30
HETATM   30  C   UNK N   1      21.763  14.919   1.306  0.00  0.00     0.199 C 
BRANCH  30  31
HETATM   31  C   UNK N   1      22.104  13.588   0.658  0.00  0.00     0.138 C 
BRANCH  31  32
HETATM   32  N   UNK N   1      20.925  12.744   0.610  0.00  0.00    -0.428 N 
HETATM   33  H   UNK N   1      21.016  11.728   0.609  0.00  0.00     0.149 HD
HETATM   34  H   UNK N   1      19.998  13.170   0.577  0.00  0.00     0.149 HD
ENDBRANCH  31  32
ENDBRANCH  30  31
ENDBRANCH  29  30
ENDBRANCH  25  29
ENDBRANCH  24  25
ENDBRANCH  23  24
ENDBRANCH   1  23
BRANCH   1  35
HETATM   35  O   UNK N   1      22.005  18.494   4.887  0.00  0.00    -0.312 OA
BRANCH  35  36
HETATM   36  C   UNK N   1      21.622  18.009   6.093  0.00  0.00     0.259 C 
HETATM   37  O   UNK N   1      21.077  18.739   6.903  0.00  0.00    -0.265 OA
BRANCH  36  38
HETATM   38  C   UNK N   1      21.781  16.553   6.393  0.00  0.00     0.111 C 
BRANCH  38  39
HETATM   39  C   UNK N   1      20.901  16.141   7.559  0.00  0.00     0.010 C 
BRANCH  39  40
HETATM   40  C   UNK N   1      21.104  14.674   7.904  0.00  0.00     0.000 C 
BRANCH  40  41
HETATM   41  C   UNK N   1      21.394  14.499   9.385  0.00  0.00     0.000 C 
BRANCH  41  42
HETATM   42  C   UNK N   1      20.735  13.227   9.891  0.00  0.00     0.000 C 
BRANCH  42  43
HETATM   43  C   UNK N   1      21.647  12.490  10.864  0.00  0.00     0.000 C 
BRANCH  43  44
HETATM   44  C   UNK N   1      22.821  11.805  10.173  0.00  0.00     0.000 C 
BRANCH  44  45
HETATM   45  C   UNK N   1      24.131  12.470  10.545  0.00  0.00     0.000 C 
BRANCH  45  46
HETATM   46  C   UNK N   1      24.854  12.916   9.291  0.00  0.00     0.000 C 
BRANCH  46  47
HETATM   47  C   UNK N   1      24.135  12.362   8.078  0.00  0.00     0.000 C 
BRANCH  47  48
HETATM   48  C   UNK N   1      24.779  12.862   6.799  0.00  0.00     0.000 C 
BRANCH  48  49
HETATM   49  C   UNK N   1      24.914  14.369   6.866  0.00  0.00     0.000 C 
BRANCH  49  50
HETATM   50  C   UNK N   1      25.332  14.911   5.519  0.00  0.00     0.000 C 
BRANCH  50  51
HETATM   51  C   UNK N   1      25.912  16.293   5.722  0.00  0.00     0.000 C 
BRANCH  51  52
HETATM   52  C   UNK N   1      27.046  16.523   4.749  0.00  0.00    -0.000 C 
BRANCH  52  53
HETATM   53  C   UNK N   1      27.849  15.247   4.615  0.00  0.00    -0.005 C 
HETATM   54  C   UNK N   1      29.135  15.374   5.402  0.00  0.00     0.005 C 
ENDBRANCH  52  53
ENDBRANCH  51  52
ENDBRANCH  50  51
ENDBRANCH  49  50
ENDBRANCH  48  49
ENDBRANCH  47  48
ENDBRANCH  46  47
ENDBRANCH  45  46
ENDBRANCH  44  45
ENDBRANCH  43  44
ENDBRANCH  42  43
ENDBRANCH  41  42
ENDBRANCH  40  41
ENDBRANCH  39  40
ENDBRANCH  38  39
ENDBRANCH  36  38
ENDBRANCH  35  36
ENDBRANCH   1  35
TORSDOF 45
ENDMDL
MODEL 2
REMARK VINA RESULT:      -5.9      1.222      2.177
REMARK WARNING: 32 MAX_TORS EXCEEDED!!!
REMARK  45 active torsions:
REMARK  status: ('A' for Active; 'I' for Inactive)
REMARK    1  A    between atoms: C_2  and  C_3 
REMARK    2  A    between atoms: C_3  and  C_4 
REMARK    3  A    between atoms: C_4  and  C_5 
REMARK    4  A    between atoms: C_5  and  C_6 
REMARK    5  A    between atoms: C_6  and  C_7 
REMARK    6  A    between atoms: C_7  and  C_8 
REMARK    7  A    between atoms: C_8  and  C_9 
REMARK    8  A    between atoms: C_9  and  C_10 
REMARK    9  A    between atoms: C_10  and  C_11 
REMARK   10  A    between atoms: C_11  and  C_12 
REMARK   11  A    between atoms: C_12  and  C_13 
REMARK   12  A    between atoms: C_13  and  C_14 
REMARK   13  A    between atoms: C_14  and  C_15 
REMARK   14  A    between atoms: C_15  and  C_16 
REMARK   15  A    between atoms: C_16  and  C_17 
REMARK   16  A    between atoms: C_17  and  C_18 
REMARK   17  A    between atoms: C_18  and  O_20 
REMARK   18  A    between atoms: O_20  and  C_21 
REMARK   19  A    between atoms: C_21  and  C_22 
REMARK   20  A    between atoms: C_22  and  C_23 
REMARK   21  A    between atoms: C_22  and  O_32 
REMARK   22  A    between atoms: C_23  and  O_24 
REMARK   23  A    between atoms: P_25  and  O_24 
REMARK   24  A    between atoms: P_25  and  O_26 
REMARK   25  A    between atoms: P_25  and  O_28 
REMARK   26  A    between atoms: O_28  and  C_29 
REMARK   27  A    between atoms: C_29  and  C_30 
REMARK   28  A    between atoms: C_30  and  N_31 
REMARK   29  A    between atoms: O_32  and  C_33 
REMARK   30  A    between atoms: C_33  and  C_35 
REMARK   31  A    between atoms: C_35  and  C_36 
REMARK   32  A    between atoms: C_36  and  C_37 
REMARK   33  A    between atoms: C_37  and  C_38 
REMARK   34  A    between atoms: C_38  and  C_39 
REMARK   35  A    between atoms: C_39  and  C_40 
REMARK   36  A    between atoms: C_40  and  C_41 
REMARK   37  A    between atoms: C_41  and  C_42 
REMARK   38  A    between atoms: C_42  and  C_43 
REMARK   39  A    between atoms: C_43  and  C_44 
REMARK   40  A    between atoms: C_44  and  C_45 
REMARK   41  A    between atoms: C_45  and  C_46 
REMARK   42  A    between atoms: C_46  and  C_47 
REMARK   43  A    between atoms: C_47  and  C_48 
REMARK   44  A    between atoms: C_48  and  C_49 
REMARK   45  A    between atoms: C_49  and  C_50 
ROOT
HETATM    1  C   UNK N   1      20.904  18.640   4.088  0.00  0.00     0.180 C 
ENDROOT
BRANCH   1   2
HETATM    2  C   UNK N   1      21.650  19.470   3.044  0.00  0.00     0.213 C 
BRANCH   2   3
HETATM    3  O   UNK N   1      22.989  19.551   3.356  0.00  0.00    -0.319 OA
BRANCH   3   4
HETATM    4  C   UNK N   1      23.757  20.602   2.975  0.00  0.00     0.258 C 
HETATM    5  O   UNK N   1      23.270  21.719   2.929  0.00  0.00    -0.265 OA
BRANCH   4   6
HETATM    6  C   UNK N   1      25.195  20.402   2.608  0.00  0.00     0.111 C 
BRANCH   6   7
HETATM    7  C   UNK N   1      25.825  19.391   3.540  0.00  0.00     0.010 C 
BRANCH   7   8
HETATM    8  C   UNK N   1      26.962  20.051   4.293  0.00  0.00     0.000 C 
BRANCH   8   9
HETATM    9  C   UNK N   1      26.401  20.821   5.473  0.00  0.00     0.000 C 
BRANCH   9  10
HETATM   10  C   UNK N   1      27.087  20.419   6.776  0.00  0.00     0.000 C 
BRANCH  10  11
HETATM   11  C   UNK N   1      28.086  19.279   6.602  0.00  0.00     0.000 C 
BRANCH  11  12
HETATM   12  C   UNK N   1      28.654  18.833   7.941  0.00  0.00     0.000 C 
BRANCH  12  13
HETATM   13  C   UNK N   1      29.650  17.705   7.732  0.00  0.00     0.000 C 
BRANCH  13  14
HETATM   14  C   UNK N   1      30.878  17.916   8.598  0.00  0.00     0.000 C 
BRANCH  14  15
HETATM   15  C   UNK N   1      31.996  17.004   8.136  0.00  0.00     0.000 C 
BRANCH  15  16
HETATM   16  C   UNK N   1      31.810  16.673   6.672  0.00  0.00     0.000 C 
BRANCH  16  17
HETATM   17  C   UNK N   1      32.926  17.337   5.901  0.00  0.00     0.000 C 
BRANCH  17  18
HETATM   18  C   UNK N   1      32.470  17.710   4.510  0.00  0.00     0.000 C 
BRANCH  18  19
HETATM   19  C   UNK N   1      31.063  17.182   4.337  0.00  0.00     0.000 C 
BRANCH  19  20
HETATM   20  C   UNK N   1      30.907  16.495   3.000  0.00  0.00    -0.000 C 
BRANCH  20  21
HETATM   21  C   UNK N   1      29.548  15.828   2.964  0.00  0.00    -0.005 C 
HETATM   22  C   UNK N   1      28.489  16.797   3.441  0.00  0.00     0.005 C 
ENDBRANCH  20  21
ENDBRANCH  19  20
ENDBRANCH  18  19
ENDBRANCH  17  18
ENDBRANCH  16  17
ENDBRANCH  15  16
ENDBRANCH  14  15
ENDBRANCH  13  14
ENDBRANCH  12  13
ENDBRANCH  11  12
ENDBRANCH  10  11
ENDBRANCH   9  10
ENDBRANCH   8   9
ENDBRANCH   7   8
ENDBRANCH   6   7
ENDBRANCH   4   6
ENDBRANCH   3   4
ENDBRANCH   2   3
ENDBRANCH   1   2
BRANCH   1  23
HETATM   23  C   UNK N   1      20.091  17.545   3.399  0.00  0.00     0.215 C 
BRANCH  23  24
HETATM   24  O   UNK N   1      20.403  17.481   2.037  0.00  0.00    -0.294 OA
BRANCH  24  25
HETATM   25  P   UNK N   1      20.443  15.780   1.669  0.00  0.00     0.393 P 
HETATM   26  O   UNK N   1      21.806  15.999   2.378  0.00  0.00    -0.631 OA
BRANCH  25  27
HETATM   27  O   UNK N   1      20.386  16.704   0.197  0.00  0.00    -0.307 OA
HETATM   28  H   UNK N   1      20.402  17.673   0.198  0.00  0.00     0.222 HD
ENDBRANCH  25  27
BRANCH  25  29
HETATM   29  O   UNK N   1      21.575  15.147   0.509  0.00  0.00    -0.295 OA
BRANCH  29  30
HETATM   30  C   UNK N   1      22.011  13.927   1.037  0.00  0.00     0.199 C 
BRANCH  30  31
HETATM   31  C   UNK N   1      23.314  13.518   0.374  0.00  0.00     0.138 C 
BRANCH  31  32
HETATM   32  N   UNK N   1      23.467  12.076   0.429  0.00  0.00    -0.428 N 
HETATM   33  H   UNK N   1      23.992  11.583  -0.294  0.00  0.00     0.149 HD
HETATM   34  H   UNK N   1      23.045  11.551   1.196  0.00  0.00     0.149 HD
ENDBRANCH  31  32
ENDBRANCH  30  31
ENDBRANCH  29  30
ENDBRANCH  25  29
ENDBRANCH  24  25
ENDBRANCH  23  24
ENDBRANCH   1  23
BRANCH   1  35
HETATM   35  O   UNK N   1      21.805  18.129   5.004  0.00  0.00    -0.312 OA
BRANCH  35  36
HETATM   36  C   UNK N   1      21.463  17.900   6.295  0.00  0.00     0.259 C 
HETATM   37  O   UNK N   1      20.983  18.796   6.970  0.00  0.00    -0.265 OA
BRANCH  36  38
HETATM   38  C   UNK N   1      21.584  16.524   6.863  0.00  0.00     0.111 C 
BRANCH  38  39
HETATM   39  C   UNK N   1      22.247  15.584   5.872  0.00  0.00     0.010 C 
BRANCH  39  40
HETATM   40  C   UNK N   1      21.292  14.480   5.444  0.00  0.00     0.000 C 
BRANCH  40  41
HETATM   41  C   UNK N   1      21.923  13.111   5.635  0.00  0.00     0.000 C 
BRANCH  41  42
HETATM   42  C   UNK N   1      21.073  12.281   6.581  0.00  0.00     0.000 C 
BRANCH  42  43
HETATM   43  C   UNK N   1      21.593  12.377   8.010  0.00  0.00     0.000 C 
BRANCH  43  44
HETATM   44  C   UNK N   1      20.932  13.496   8.806  0.00  0.00     0.000 C 
BRANCH  44  45
HETATM   45  C   UNK N   1      21.200  13.335  10.290  0.00  0.00     0.000 C 
BRANCH  45  46
HETATM   46  C   UNK N   1      21.926  12.029  10.540  0.00  0.00     0.000 C 
BRANCH  46  47
HETATM   47  C   UNK N   1      23.149  12.295  11.393  0.00  0.00     0.000 C 
BRANCH  47  48
HETATM   48  C   UNK N   1      24.416  11.942  10.637  0.00  0.00     0.000 C 
BRANCH  48  49
HETATM   49  C   UNK N   1      24.861  13.141   9.826  0.00  0.00     0.000 C 
BRANCH  49  50
HETATM   50  C   UNK N   1      24.863  12.797   8.354  0.00  0.00     0.000 C 
BRANCH  50  51
HETATM   51  C   UNK N   1      25.065  14.073   7.568  0.00  0.00     0.000 C 
BRANCH  51  52
HETATM   52  C   UNK N   1      25.556  13.748   6.176  0.00  0.00    -0.000 C 
BRANCH  52  53
HETATM   53  C   UNK N   1      26.682  14.693   5.817  0.00  0.00    -0.005 C 
HETATM   54  C   UNK N   1      26.601  15.930   6.683  0.00  0.00     0.005 C 
ENDBRANCH  52  53
ENDBRANCH  51  52
ENDBRANCH  50  51
ENDBRANCH  49  50
ENDBRANCH  48  49
ENDBRANCH  47  48
ENDBRANCH  46  47
ENDBRANCH  45  46
ENDBRANCH  44  45
ENDBRANCH  43  44
ENDBRANCH  42  43
ENDBRANCH  41  42
ENDBRANCH  40  41
ENDBRANCH  39  40
ENDBRANCH  38  39
ENDBRANCH  36  38
ENDBRANCH  35  36
ENDBRANCH   1  35
TORSDOF 45
ENDMDL
MODEL 3
REMARK VINA RESULT:      -5.7      2.241      7.020
REMARK WARNING: 32 MAX_TORS EXCEEDED!!!
REMARK  45 active torsions:
REMARK  status: ('A' for Active; 'I' for Inactive)
REMARK    1  A    between atoms: C_2  and  C_3 
REMARK    2  A    between atoms: C_3  and  C_4 
REMARK    3  A    between atoms: C_4  and  C_5 
REMARK    4  A    between atoms: C_5  and  C_6 
REMARK    5  A    between atoms: C_6  and  C_7 
REMARK    6  A    between atoms: C_7  and  C_8 
REMARK    7  A    between atoms: C_8  and  C_9 
REMARK    8  A    between atoms: C_9  and  C_10 
REMARK    9  A    between atoms: C_10  and  C_11 
REMARK   10  A    between atoms: C_11  and  C_12 
REMARK   11  A    between atoms: C_12  and  C_13 
REMARK   12  A    between atoms: C_13  and  C_14 
REMARK   13  A    between atoms: C_14  and  C_15 
REMARK   14  A    between atoms: C_15  and  C_16 
REMARK   15  A    between atoms: C_16  and  C_17 
REMARK   16  A    between atoms: C_17  and  C_18 
REMARK   17  A    between atoms: C_18  and  O_20 
REMARK   18  A    between atoms: O_20  and  C_21 
REMARK   19  A    between atoms: C_21  and  C_22 
REMARK   20  A    between atoms: C_22  and  C_23 
REMARK   21  A    between atoms: C_22  and  O_32 
REMARK   22  A    between atoms: C_23  and  O_24 
REMARK   23  A    between atoms: P_25  and  O_24 
REMARK   24  A    between atoms: P_25  and  O_26 
REMARK   25  A    between atoms: P_25  and  O_28 
REMARK   26  A    between atoms: O_28  and  C_29 
REMARK   27  A    between atoms: C_29  and  C_30 
REMARK   28  A    between atoms: C_30  and  N_31 
REMARK   29  A    between atoms: O_32  and  C_33 
REMARK   30  A    between atoms: C_33  and  C_35 
REMARK   31  A    between atoms: C_35  and  C_36 
REMARK   32  A    between atoms: C_36  and  C_37 
REMARK   33  A    between atoms: C_37  and  C_38 
REMARK   34  A    between atoms: C_38  and  C_39 
REMARK   35  A    between atoms: C_39  and  C_40 
REMARK   36  A    between atoms: C_40  and  C_41 
REMARK   37  A    between atoms: C_41  and  C_42 
REMARK   38  A    between atoms: C_42  and  C_43 
REMARK   39  A    between atoms: C_43  and  C_44 
REMARK   40  A    between atoms: C_44  and  C_45 
REMARK   41  A    between atoms: C_45  and  C_46 
REMARK   42  A    between atoms: C_46  and  C_47 
REMARK   43  A    between atoms: C_47  and  C_48 
REMARK   44  A    between atoms: C_48  and  C_49 
REMARK   45  A    between atoms: C_49  and  C_50 
ROOT
HETATM    1  C   UNK N   1      21.041  15.692   7.206  0.00  0.00     0.180 C 
ENDROOT
BRANCH   1   2
HETATM    2  C   UNK N   1      20.461  15.907   8.603  0.00  0.00     0.213 C 
BRANCH   2   3
HETATM    3  O   UNK N   1      19.783  14.784   9.026  0.00  0.00    -0.319 OA
BRANCH   3   4
HETATM    4  C   UNK N   1      20.345  13.869   9.853  0.00  0.00     0.258 C 
HETATM    5  O   UNK N   1      19.637  13.221  10.604  0.00  0.00    -0.265 OA
BRANCH   4   6
HETATM    6  C   UNK N   1      21.827  13.650   9.856  0.00  0.00     0.111 C 
BRANCH   6   7
HETATM    7  C   UNK N   1      22.124  12.167   9.815  0.00  0.00     0.010 C 
BRANCH   7   8
HETATM    8  C   UNK N   1      23.448  11.946   9.114  0.00  0.00     0.000 C 
BRANCH   8   9
HETATM    9  C   UNK N   1      24.474  12.919   9.662  0.00  0.00     0.000 C 
BRANCH   9  10
HETATM   10  C   UNK N   1      25.215  13.638   8.538  0.00  0.00     0.000 C 
BRANCH  10  11
HETATM   11  C   UNK N   1      24.416  13.711   7.241  0.00  0.00     0.000 C 
BRANCH  11  12
HETATM   12  C   UNK N   1      24.877  14.870   6.372  0.00  0.00     0.000 C 
BRANCH  12  13
HETATM   13  C   UNK N   1      26.241  15.355   6.834  0.00  0.00     0.000 C 
BRANCH  13  14
HETATM   14  C   UNK N   1      26.806  16.363   5.849  0.00  0.00     0.000 C 
BRANCH  14  15
HETATM   15  C   UNK N   1      28.162  15.898   5.360  0.00  0.00     0.000 C 
BRANCH  15  16
HETATM   16  C   UNK N   1      28.696  16.873   4.335  0.00  0.00     0.000 C 
BRANCH  16  17
HETATM   17  C   UNK N   1      28.341  16.349   2.966  0.00  0.00     0.000 C 
BRANCH  17  18
HETATM   18  C   UNK N   1      28.246  14.841   2.975  0.00  0.00     0.000 C 
BRANCH  18  19
HETATM   19  C   UNK N   1      26.979  14.463   2.239  0.00  0.00     0.000 C 
BRANCH  19  20
HETATM   20  C   UNK N   1      26.003  15.617   2.222  0.00  0.00    -0.000 C 
BRANCH  20  21
HETATM   21  C   UNK N   1      24.600  15.054   2.308  0.00  0.00    -0.005 C 
HETATM   22  C   UNK N   1      24.264  14.321   1.028  0.00  0.00     0.005 C 
ENDBRANCH  20  21
ENDBRANCH  19  20
ENDBRANCH  18  19
ENDBRANCH  17  18
ENDBRANCH  16  17
ENDBRANCH  15  16
ENDBRANCH  14  15
ENDBRANCH  13  14
ENDBRANCH  12  13
ENDBRANCH  11  12
ENDBRANCH  10  11
ENDBRANCH   9  10
ENDBRANCH   8   9
ENDBRANCH   7   8
ENDBRANCH   6   7
ENDBRANCH   4   6
ENDBRANCH   3   4
ENDBRANCH   2   3
ENDBRANCH   1   2
BRANCH   1  23
HETATM   23  C   UNK N   1      19.914  15.659   6.174  0.00  0.00     0.215 C 
BRANCH  23  24
HETATM   24  O   UNK N   1      19.519  14.342   5.918  0.00  0.00    -0.294 OA
BRANCH  24  25
HETATM   25  P   UNK N   1      19.306  14.269   4.191  0.00  0.00     0.393 P 
HETATM   26  O   UNK N   1      17.983  13.650   4.716  0.00  0.00    -0.631 OA
BRANCH  25  27
HETATM   27  O   UNK N   1      20.653  13.277   4.664  0.00  0.00    -0.307 OA
HETATM   28  H   UNK N   1      20.834  12.421   4.246  0.00  0.00     0.222 HD
ENDBRANCH  25  27
BRANCH  25  29
HETATM   29  O   UNK N   1      19.255  12.739   3.364  0.00  0.00    -0.295 OA
BRANCH  29  30
HETATM   30  C   UNK N   1      19.439  13.038   2.010  0.00  0.00     0.199 C 
BRANCH  30  31
HETATM   31  C   UNK N   1      19.435  14.544   1.812  0.00  0.00     0.138 C 
BRANCH  31  32
HETATM   32  N   UNK N   1      18.693  14.884   0.613  0.00  0.00    -0.428 N 
HETATM   33  H   UNK N   1      17.877  15.494   0.664  0.00  0.00     0.149 HD
HETATM   34  H   UNK N   1      18.988  14.508  -0.289  0.00  0.00     0.149 HD
ENDBRANCH  31  32
ENDBRANCH  30  31
ENDBRANCH  29  30
ENDBRANCH  25  29
ENDBRANCH  24  25
ENDBRANCH  23  24
ENDBRANCH   1  23
BRANCH   1  35
HETATM   35  O   UNK N   1      21.973  16.676   6.935  0.00  0.00    -0.312 OA
BRANCH  35  36
HETATM   36  C   UNK N   1      21.634  17.835   6.320  0.00  0.00     0.259 C 
HETATM   37  O   UNK N   1      21.003  18.687   6.922  0.00  0.00    -0.265 OA
BRANCH  36  38
HETATM   38  C   UNK N   1      22.117  18.109   4.933  0.00  0.00     0.111 C 
BRANCH  38  39
HETATM   39  C   UNK N   1      23.635  18.087   4.873  0.00  0.00     0.010 C 
BRANCH  39  40
HETATM   40  C   UNK N   1      24.166  19.252   4.051  0.00  0.00     0.000 C 
BRANCH  40  41
HETATM   41  C   UNK N   1      25.527  18.924   3.461  0.00  0.00     0.000 C 
BRANCH  41  42
HETATM   42  C   UNK N   1      26.376  20.182   3.401  0.00  0.00     0.000 C 
BRANCH  42  43
HETATM   43  C   UNK N   1      27.353  20.237   4.569  0.00  0.00     0.000 C 
BRANCH  43  44
HETATM   44  C   UNK N   1      26.920  21.212   5.658  0.00  0.00     0.000 C 
BRANCH  44  45
HETATM   45  C   UNK N   1      27.052  20.582   7.030  0.00  0.00     0.000 C 
BRANCH  45  46
HETATM   46  C   UNK N   1      28.002  19.404   6.964  0.00  0.00     0.000 C 
BRANCH  46  47
HETATM   47  C   UNK N   1      28.218  18.859   8.361  0.00  0.00     0.000 C 
BRANCH  47  48
HETATM   48  C   UNK N   1      29.277  17.773   8.355  0.00  0.00     0.000 C 
BRANCH  48  49
HETATM   49  C   UNK N   1      30.556  18.321   8.951  0.00  0.00     0.000 C 
BRANCH  49  50
HETATM   50  C   UNK N   1      31.753  17.685   8.282  0.00  0.00     0.000 C 
BRANCH  50  51
HETATM   51  C   UNK N   1      31.299  17.076   6.975  0.00  0.00     0.000 C 
BRANCH  51  52
HETATM   52  C   UNK N   1      32.343  17.312   5.907  0.00  0.00    -0.000 C 
BRANCH  52  53
HETATM   53  C   UNK N   1      32.271  16.194   4.890  0.00  0.00    -0.005 C 
HETATM   54  C   UNK N   1      32.150  14.867   5.605  0.00  0.00     0.005 C 
ENDBRANCH  52  53
ENDBRANCH  51  52
ENDBRANCH  50  51
ENDBRANCH  49  50
ENDBRANCH  48  49
ENDBRANCH  47  48
ENDBRANCH  46  47
ENDBRANCH  45  46
ENDBRANCH  44  45
ENDBRANCH  43  44
ENDBRANCH  42  43
ENDBRANCH  41  42
ENDBRANCH  40  41
ENDBRANCH  39  40
ENDBRANCH  38  39
ENDBRANCH  36  38
ENDBRANCH  35  36
ENDBRANCH   1  35
TORSDOF 45
ENDMDL
MODEL 4
REMARK VINA RESULT:      -5.6      1.233      2.341
REMARK WARNING: 32 MAX_TORS EXCEEDED!!!
REMARK  45 active torsions:
REMARK  status: ('A' for Active; 'I' for Inactive)
REMARK    1  A    between atoms: C_2  and  C_3 
REMARK    2  A    between atoms: C_3  and  C_4 
REMARK    3  A    between atoms: C_4  and  C_5 
REMARK    4  A    between atoms: C_5  and  C_6 
REMARK    5  A    between atoms: C_6  and  C_7 
REMARK    6  A    between atoms: C_7  and  C_8 
REMARK    7  A    between atoms: C_8  and  C_9 
REMARK    8  A    between atoms: C_9  and  C_10 
REMARK    9  A    between atoms: C_10  and  C_11 
REMARK   10  A    between atoms: C_11  and  C_12 
REMARK   11  A    between atoms: C_12  and  C_13 
REMARK   12  A    between atoms: C_13  and  C_14 
REMARK   13  A    between atoms: C_14  and  C_15 
REMARK   14  A    between atoms: C_15  and  C_16 
REMARK   15  A    between atoms: C_16  and  C_17 
REMARK   16  A    between atoms: C_17  and  C_18 
REMARK   17  A    between atoms: C_18  and  O_20 
REMARK   18  A    between atoms: O_20  and  C_21 
REMARK   19  A    between atoms: C_21  and  C_22 
REMARK   20  A    between atoms: C_22  and  C_23 
REMARK   21  A    between atoms: C_22  and  O_32 
REMARK   22  A    between atoms: C_23  and  O_24 
REMARK   23  A    between atoms: P_25  and  O_24 
REMARK   24  A    between atoms: P_25  and  O_26 
REMARK   25  A    between atoms: P_25  and  O_28 
REMARK   26  A    between atoms: O_28  and  C_29 
REMARK   27  A    between atoms: C_29  and  C_30 
REMARK   28  A    between atoms: C_30  and  N_31 
REMARK   29  A    between atoms: O_32  and  C_33 
REMARK   30  A    between atoms: C_33  and  C_35 
REMARK   31  A    between atoms: C_35  and  C_36 
REMARK   32  A    between atoms: C_36  and  C_37 
REMARK   33  A    between atoms: C_37  and  C_38 
REMARK   34  A    between atoms: C_38  and  C_39 
REMARK   35  A    between atoms: C_39  and  C_40 
REMARK   36  A    between atoms: C_40  and  C_41 
REMARK   37  A    between atoms: C_41  and  C_42 
REMARK   38  A    between atoms: C_42  and  C_43 
REMARK   39  A    between atoms: C_43  and  C_44 
REMARK   40  A    between atoms: C_44  and  C_45 
REMARK   41  A    between atoms: C_45  and  C_46 
REMARK   42  A    between atoms: C_46  and  C_47 
REMARK   43  A    between atoms: C_47  and  C_48 
REMARK   44  A    between atoms: C_48  and  C_49 
REMARK   45  A    between atoms: C_49  and  C_50 
ROOT
HETATM    1  C   UNK N   1      21.120  18.262   4.302  0.00  0.00     0.180 C 
ENDROOT
BRANCH   1   2
HETATM    2  C   UNK N   1      21.930  19.153   3.362  0.00  0.00     0.213 C 
BRANCH   2   3
HETATM    3  O   UNK N   1      23.181  19.398   3.883  0.00  0.00    -0.319 OA
BRANCH   3   4
HETATM    4  C   UNK N   1      23.999  20.356   3.382  0.00  0.00     0.258 C 
HETATM    5  O   UNK N   1      23.519  21.304   2.784  0.00  0.00    -0.265 OA
BRANCH   4   6
HETATM    6  C   UNK N   1      25.483  20.259   3.553  0.00  0.00     0.111 C 
BRANCH   6   7
HETATM    7  C   UNK N   1      25.805  19.695   4.919  0.00  0.00     0.010 C 
BRANCH   7   8
HETATM    8  C   UNK N   1      26.453  20.774   5.761  0.00  0.00     0.000 C 
BRANCH   8   9
HETATM    9  C   UNK N   1      27.591  20.169   6.560  0.00  0.00     0.000 C 
BRANCH   9  10
HETATM   10  C   UNK N   1      28.055  18.847   5.954  0.00  0.00     0.000 C 
BRANCH  10  11
HETATM   11  C   UNK N   1      28.700  17.912   6.972  0.00  0.00     0.000 C 
BRANCH  11  12
HETATM   12  C   UNK N   1      29.681  16.960   6.305  0.00  0.00     0.000 C 
BRANCH  12  13
HETATM   13  C   UNK N   1      29.965  17.419   4.885  0.00  0.00     0.000 C 
BRANCH  13  14
HETATM   14  C   UNK N   1      30.825  16.399   4.161  0.00  0.00     0.000 C 
BRANCH  14  15
HETATM   15  C   UNK N   1      31.810  17.108   3.256  0.00  0.00     0.000 C 
BRANCH  15  16
HETATM   16  C   UNK N   1      33.145  16.399   3.300  0.00  0.00     0.000 C 
BRANCH  16  17
HETATM   17  C   UNK N   1      33.116  15.427   4.454  0.00  0.00     0.000 C 
BRANCH  17  18
HETATM   18  C   UNK N   1      34.328  15.606   5.339  0.00  0.00     0.000 C 
BRANCH  18  19
HETATM   19  C   UNK N   1      33.860  15.501   6.774  0.00  0.00     0.000 C 
BRANCH  19  20
HETATM   20  C   UNK N   1      32.947  16.653   7.126  0.00  0.00    -0.000 C 
BRANCH  20  21
HETATM   21  C   UNK N   1      33.728  17.941   6.974  0.00  0.00    -0.005 C 
HETATM   22  C   UNK N   1      34.535  18.202   8.226  0.00  0.00     0.005 C 
ENDBRANCH  20  21
ENDBRANCH  19  20
ENDBRANCH  18  19
ENDBRANCH  17  18
ENDBRANCH  16  17
ENDBRANCH  15  16
ENDBRANCH  14  15
ENDBRANCH  13  14
ENDBRANCH  12  13
ENDBRANCH  11  12
ENDBRANCH  10  11
ENDBRANCH   9  10
ENDBRANCH   8   9
ENDBRANCH   7   8
ENDBRANCH   6   7
ENDBRANCH   4   6
ENDBRANCH   3   4
ENDBRANCH   2   3
ENDBRANCH   1   2
BRANCH   1  23
HETATM   23  C   UNK N   1      20.800  16.935   3.615  0.00  0.00     0.215 C 
BRANCH  23  24
HETATM   24  O   UNK N   1      20.240  17.155   2.352  0.00  0.00    -0.294 OA
BRANCH  24  25
HETATM   25  P   UNK N   1      20.265  15.597   1.575  0.00  0.00     0.393 P 
HETATM   26  O   UNK N   1      21.488  15.514   2.529  0.00  0.00    -0.631 OA
BRANCH  25  27
HETATM   27  O   UNK N   1      20.517  16.851   0.398  0.00  0.00    -0.307 OA
HETATM   28  H   UNK N   1      21.089  16.724  -0.375  0.00  0.00     0.222 HD
ENDBRANCH  25  27
BRANCH  25  29
HETATM   29  O   UNK N   1      21.556  15.164   0.492  0.00  0.00    -0.295 OA
BRANCH  29  30
HETATM   30  C   UNK N   1      22.408  14.339   1.234  0.00  0.00     0.199 C 
BRANCH  30  31
HETATM   31  C   UNK N   1      22.745  13.096   0.430  0.00  0.00     0.138 C 
BRANCH  31  32
HETATM   32  N   UNK N   1      22.408  11.908   1.192  0.00  0.00    -0.428 N 
HETATM   33  H   UNK N   1      21.434  11.635   1.321  0.00  0.00     0.149 HD
HETATM   34  H   UNK N   1      23.152  11.341   1.603  0.00  0.00     0.149 HD
ENDBRANCH  31  32
ENDBRANCH  30  31
ENDBRANCH  29  30
ENDBRANCH  25  29
ENDBRANCH  24  25
ENDBRANCH  23  24
ENDBRANCH   1  23
BRANCH   1  35
HETATM   35  O   UNK N   1      21.812  18.088   5.486  0.00  0.00    -0.312 OA
BRANCH  35  36
HETATM   36  C   UNK N   1      21.175  17.937   6.673  0.00  0.00     0.259 C 
HETATM   37  O   UNK N   1      20.935  18.911   7.367  0.00  0.00    -0.265 OA
BRANCH  36  38
HETATM   38  C   UNK N   1      20.681  16.589   7.086  0.00  0.00     0.111 C 
BRANCH  38  39
HETATM   39  C   UNK N   1      21.832  15.609   7.225  0.00  0.00     0.010 C 
BRANCH  39  40
HETATM   40  C   UNK N   1      21.370  14.313   7.875  0.00  0.00     0.000 C 
BRANCH  40  41
HETATM   41  C   UNK N   1      21.353  14.441   9.388  0.00  0.00     0.000 C 
BRANCH  41  42
HETATM   42  C   UNK N   1      21.072  13.085  10.014  0.00  0.00     0.000 C 
BRANCH  42  43
HETATM   43  C   UNK N   1      22.252  12.620  10.858  0.00  0.00     0.000 C 
BRANCH  43  44
HETATM   44  C   UNK N   1      23.017  11.465  10.221  0.00  0.00     0.000 C 
BRANCH  44  45
HETATM   45  C   UNK N   1      24.190  11.977   9.408  0.00  0.00     0.000 C 
BRANCH  45  46
HETATM   46  C   UNK N   1      23.999  11.616   7.950  0.00  0.00     0.000 C 
BRANCH  46  47
HETATM   47  C   UNK N   1      24.547  12.733   7.084  0.00  0.00     0.000 C 
BRANCH  47  48
HETATM   48  C   UNK N   1      25.192  13.806   7.940  0.00  0.00     0.000 C 
BRANCH  48  49
HETATM   49  C   UNK N   1      25.469  15.025   7.086  0.00  0.00     0.000 C 
BRANCH  49  50
HETATM   50  C   UNK N   1      26.640  14.759   6.168  0.00  0.00     0.000 C 
BRANCH  50  51
HETATM   51  C   UNK N   1      26.513  15.661   4.962  0.00  0.00     0.000 C 
BRANCH  51  52
HETATM   52  C   UNK N   1      25.057  15.977   4.706  0.00  0.00    -0.000 C 
BRANCH  52  53
HETATM   53  C   UNK N   1      24.898  16.453   3.278  0.00  0.00    -0.005 C 
HETATM   54  C   UNK N   1      25.674  15.544   2.352  0.00  0.00     0.005 C 
ENDBRANCH  52  53
ENDBRANCH  51  52
ENDBRANCH  50  51
ENDBRANCH  49  50
ENDBRANCH  48  49
ENDBRANCH  47  48
ENDBRANCH  46  47
ENDBRANCH  45  46
ENDBRANCH  44  45
ENDBRANCH  43  44
ENDBRANCH  42  43
ENDBRANCH  41  42
ENDBRANCH  40  41
ENDBRANCH  39  40
ENDBRANCH  38  39
ENDBRANCH  36  38
ENDBRANCH  35  36
ENDBRANCH   1  35
TORSDOF 45
ENDMDL
MODEL 5
REMARK VINA RESULT:      -5.6      2.295      7.328
REMARK WARNING: 32 MAX_TORS EXCEEDED!!!
REMARK  45 active torsions:
REMARK  status: ('A' for Active; 'I' for Inactive)
REMARK    1  A    between atoms: C_2  and  C_3 
REMARK    2  A    between atoms: C_3  and  C_4 
REMARK    3  A    between atoms: C_4  and  C_5 
REMARK    4  A    between atoms: C_5  and  C_6 
REMARK    5  A    between atoms: C_6  and  C_7 
REMARK    6  A    between atoms: C_7  and  C_8 
REMARK    7  A    between atoms: C_8  and  C_9 
REMARK    8  A    between atoms: C_9  and  C_10 
REMARK    9  A    between atoms: C_10  and  C_11 
REMARK   10  A    between atoms: C_11  and  C_12 
REMARK   11  A    between atoms: C_12  and  C_13 
REMARK   12  A    between atoms: C_13  and  C_14 
REMARK   13  A    between atoms: C_14  and  C_15 
REMARK   14  A    between atoms: C_15  and  C_16 
REMARK   15  A    between atoms: C_16  and  C_17 
REMARK   16  A    between atoms: C_17  and  C_18 
REMARK   17  A    between atoms: C_18  and  O_20 
REMARK   18  A    between atoms: O_20  and  C_21 
REMARK   19  A    between atoms: C_21  and  C_22 
REMARK   20  A    between atoms: C_22  and  C_23 
REMARK   21  A    between atoms: C_22  and  O_32 
REMARK   22  A    between atoms: C_23  and  O_24 
REMARK   23  A    between atoms: P_25  and  O_24 
REMARK   24  A    between atoms: P_25  and  O_26 
REMARK   25  A    between atoms: P_25  and  O_28 
REMARK   26  A    between atoms: O_28  and  C_29 
REMARK   27  A    between atoms: C_29  and  C_30 
REMARK   28  A    between atoms: C_30  and  N_31 
REMARK   29  A    between atoms: O_32  and  C_33 
REMARK   30  A    between atoms: C_33  and  C_35 
REMARK   31  A    between atoms: C_35  and  C_36 
REMARK   32  A    between atoms: C_36  and  C_37 
REMARK   33  A    between atoms: C_37  and  C_38 
REMARK   34  A    between atoms: C_38  and  C_39 
REMARK   35  A    between atoms: C_39  and  C_40 
REMARK   36  A    between atoms: C_40  and  C_41 
REMARK   37  A    between atoms: C_41  and  C_42 
REMARK   38  A    between atoms: C_42  and  C_43 
REMARK   39  A    between atoms: C_43  and  C_44 
REMARK   40  A    between atoms: C_44  and  C_45 
REMARK   41  A    between atoms: C_45  and  C_46 
REMARK   42  A    between atoms: C_46  and  C_47 
REMARK   43  A    between atoms: C_47  and  C_48 
REMARK   44  A    between atoms: C_48  and  C_49 
REMARK   45  A    between atoms: C_49  and  C_50 
ROOT
HETATM    1  C   UNK N   1      21.412  19.491   3.296  0.00  0.00     0.180 C 
ENDROOT
BRANCH   1   2
HETATM    2  C   UNK N   1      20.752  19.185   1.952  0.00  0.00     0.213 C 
BRANCH   2   3
HETATM    3  O   UNK N   1      20.213  17.917   1.953  0.00  0.00    -0.319 OA
BRANCH   3   4
HETATM    4  C   UNK N   1      20.394  17.054   0.923  0.00  0.00     0.258 C 
HETATM    5  O   UNK N   1      20.347  17.466  -0.224  0.00  0.00    -0.265 OA
BRANCH   4   6
HETATM    6  C   UNK N   1      20.646  15.601   1.180  0.00  0.00     0.111 C 
BRANCH   6   7
HETATM    7  C   UNK N   1      21.627  15.447   2.321  0.00  0.00     0.010 C 
BRANCH   7   8
HETATM    8  C   UNK N   1      21.664  13.995   2.751  0.00  0.00     0.000 C 
BRANCH   8   9
HETATM    9  C   UNK N   1      22.220  13.903   4.158  0.00  0.00     0.000 C 
BRANCH   9  10
HETATM   10  C   UNK N   1      21.171  13.384   5.138  0.00  0.00     0.000 C 
BRANCH  10  11
HETATM   11  C   UNK N   1      21.733  12.393   6.152  0.00  0.00     0.000 C 
BRANCH  11  12
HETATM   12  C   UNK N   1      21.424  12.826   7.577  0.00  0.00     0.000 C 
BRANCH  12  13
HETATM   13  C   UNK N   1      22.666  12.688   8.442  0.00  0.00     0.000 C 
BRANCH  13  14
HETATM   14  C   UNK N   1      23.663  13.785   8.115  0.00  0.00     0.000 C 
BRANCH  14  15
HETATM   15  C   UNK N   1      24.988  13.172   7.714  0.00  0.00     0.000 C 
BRANCH  15  16
HETATM   16  C   UNK N   1      25.680  14.066   6.710  0.00  0.00     0.000 C 
BRANCH  16  17
HETATM   17  C   UNK N   1      24.766  15.231   6.419  0.00  0.00     0.000 C 
BRANCH  17  18
HETATM   18  C   UNK N   1      25.440  16.230   5.507  0.00  0.00     0.000 C 
BRANCH  18  19
HETATM   19  C   UNK N   1      26.709  15.587   4.992  0.00  0.00     0.000 C 
BRANCH  19  20
HETATM   20  C   UNK N   1      26.926  15.920   3.534  0.00  0.00    -0.000 C 
BRANCH  20  21
HETATM   21  C   UNK N   1      25.674  15.544   2.769  0.00  0.00    -0.005 C 
HETATM   22  C   UNK N   1      25.593  14.040   2.628  0.00  0.00     0.005 C 
ENDBRANCH  20  21
ENDBRANCH  19  20
ENDBRANCH  18  19
ENDBRANCH  17  18
ENDBRANCH  16  17
ENDBRANCH  15  16
ENDBRANCH  14  15
ENDBRANCH  13  14
ENDBRANCH  12  13
ENDBRANCH  11  12
ENDBRANCH  10  11
ENDBRANCH   9  10
ENDBRANCH   8   9
ENDBRANCH   7   8
ENDBRANCH   6   7
ENDBRANCH   4   6
ENDBRANCH   3   4
ENDBRANCH   2   3
ENDBRANCH   1   2
BRANCH   1  23
HETATM   23  C   UNK N   1      20.920  18.503   4.353  0.00  0.00     0.215 C 
BRANCH  23  24
HETATM   24  O   UNK N   1      21.494  18.786   5.597  0.00  0.00    -0.294 OA
BRANCH  24  25
HETATM   25  P   UNK N   1      21.372  17.298   6.493  0.00  0.00     0.393 P 
HETATM   26  O   UNK N   1      20.503  17.005   5.240  0.00  0.00    -0.631 OA
BRANCH  25  27
HETATM   27  O   UNK N   1      20.672  18.599   7.408  0.00  0.00    -0.307 OA
HETATM   28  H   UNK N   1      21.194  19.362   7.702  0.00  0.00     0.222 HD
ENDBRANCH  25  27
BRANCH  25  29
HETATM   29  O   UNK N   1      19.859  16.803   7.195  0.00  0.00    -0.295 OA
BRANCH  29  30
HETATM   30  C   UNK N   1      19.972  17.078   8.562  0.00  0.00     0.199 C 
BRANCH  30  31
HETATM   31  C   UNK N   1      18.606  16.978   9.219  0.00  0.00     0.138 C 
BRANCH  31  32
HETATM   32  N   UNK N   1      18.200  18.279   9.716  0.00  0.00    -0.428 N 
HETATM   33  H   UNK N   1      18.586  18.644  10.587  0.00  0.00     0.149 HD
HETATM   34  H   UNK N   1      17.522  18.833   9.191  0.00  0.00     0.149 HD
ENDBRANCH  31  32
ENDBRANCH  30  31
ENDBRANCH  29  30
ENDBRANCH  25  29
ENDBRANCH  24  25
ENDBRANCH  23  24
ENDBRANCH   1  23
BRANCH   1  35
HETATM   35  O   UNK N   1      22.787  19.468   3.153  0.00  0.00    -0.312 OA
BRANCH  35  36
HETATM   36  C   UNK N   1      23.498  20.590   2.888  0.00  0.00     0.259 C 
HETATM   37  O   UNK N   1      22.950  21.679   2.893  0.00  0.00    -0.265 OA
BRANCH  36  38
HETATM   38  C   UNK N   1      24.976  20.503   2.684  0.00  0.00     0.111 C 
BRANCH  38  39
HETATM   39  C   UNK N   1      25.543  19.264   3.354  0.00  0.00     0.010 C 
BRANCH  39  40
HETATM   40  C   UNK N   1      26.803  19.597   4.140  0.00  0.00     0.000 C 
BRANCH  40  41
HETATM   41  C   UNK N   1      26.521  20.650   5.197  0.00  0.00     0.000 C 
BRANCH  41  42
HETATM   42  C   UNK N   1      27.552  20.551   6.309  0.00  0.00     0.000 C 
BRANCH  42  43
HETATM   43  C   UNK N   1      27.990  19.107   6.519  0.00  0.00     0.000 C 
BRANCH  43  44
HETATM   44  C   UNK N   1      27.830  18.644   7.962  0.00  0.00     0.000 C 
BRANCH  44  45
HETATM   45  C   UNK N   1      29.182  18.426   8.613  0.00  0.00     0.000 C 
BRANCH  45  46
HETATM   46  C   UNK N   1      30.113  17.733   7.640  0.00  0.00     0.000 C 
BRANCH  46  47
HETATM   47  C   UNK N   1      31.487  17.612   8.266  0.00  0.00     0.000 C 
BRANCH  47  48
HETATM   48  C   UNK N   1      31.872  16.154   8.437  0.00  0.00     0.000 C 
BRANCH  48  49
HETATM   49  C   UNK N   1      32.519  15.657   7.161  0.00  0.00     0.000 C 
BRANCH  49  50
HETATM   50  C   UNK N   1      33.595  16.621   6.717  0.00  0.00     0.000 C 
BRANCH  50  51
HETATM   51  C   UNK N   1      33.685  16.570   5.209  0.00  0.00     0.000 C 
BRANCH  51  52
HETATM   52  C   UNK N   1      32.826  17.657   4.605  0.00  0.00    -0.000 C 
BRANCH  52  53
HETATM   53  C   UNK N   1      31.849  17.032   3.633  0.00  0.00    -0.005 C 
HETATM   54  C   UNK N   1      30.450  17.107   4.203  0.00  0.00     0.005 C 
ENDBRANCH  52  53
ENDBRANCH  51  52
ENDBRANCH  50  51
ENDBRANCH  49  50
ENDBRANCH  48  49
ENDBRANCH  47  48
ENDBRANCH  46  47
ENDBRANCH  45  46
ENDBRANCH  44  45
ENDBRANCH  43  44
ENDBRANCH  42  43
ENDBRANCH  41  42
ENDBRANCH  40  41
ENDBRANCH  39  40
ENDBRANCH  38  39
ENDBRANCH  36  38
ENDBRANCH  35  36
ENDBRANCH   1  35
TORSDOF 45
ENDMDL
MODEL 6
REMARK VINA RESULT:      -5.6      2.466      6.048
REMARK WARNING: 32 MAX_TORS EXCEEDED!!!
REMARK  45 active torsions:
REMARK  status: ('A' for Active; 'I' for Inactive)
REMARK    1  A    between atoms: C_2  and  C_3 
REMARK    2  A    between atoms: C_3  and  C_4 
REMARK    3  A    between atoms: C_4  and  C_5 
REMARK    4  A    between atoms: C_5  and  C_6 
REMARK    5  A    between atoms: C_6  and  C_7 
REMARK    6  A    between atoms: C_7  and  C_8 
REMARK    7  A    between atoms: C_8  and  C_9 
REMARK    8  A    between atoms: C_9  and  C_10 
REMARK    9  A    between atoms: C_10  and  C_11 
REMARK   10  A    between atoms: C_11  and  C_12 
REMARK   11  A    between atoms: C_12  and  C_13 
REMARK   12  A    between atoms: C_13  and  C_14 
REMARK   13  A    between atoms: C_14  and  C_15 
REMARK   14  A    between atoms: C_15  and  C_16 
REMARK   15  A    between atoms: C_16  and  C_17 
REMARK   16  A    between atoms: C_17  and  C_18 
REMARK   17  A    between atoms: C_18  and  O_20 
REMARK   18  A    between atoms: O_20  and  C_21 
REMARK   19  A    between atoms: C_21  and  C_22 
REMARK   20  A    between atoms: C_22  and  C_23 
REMARK   21  A    between atoms: C_22  and  O_32 
REMARK   22  A    between atoms: C_23  and  O_24 
REMARK   23  A    between atoms: P_25  and  O_24 
REMARK   24  A    between atoms: P_25  and  O_26 
REMARK   25  A    between atoms: P_25  and  O_28 
REMARK   26  A    between atoms: O_28  and  C_29 
REMARK   27  A    between atoms: C_29  and  C_30 
REMARK   28  A    between atoms: C_30  and  N_31 
REMARK   29  A    between atoms: O_32  and  C_33 
REMARK   30  A    between atoms: C_33  and  C_35 
REMARK   31  A    between atoms: C_35  and  C_36 
REMARK   32  A    between atoms: C_36  and  C_37 
REMARK   33  A    between atoms: C_37  and  C_38 
REMARK   34  A    between atoms: C_38  and  C_39 
REMARK   35  A    between atoms: C_39  and  C_40 
REMARK   36  A    between atoms: C_40  and  C_41 
REMARK   37  A    between atoms: C_41  and  C_42 
REMARK   38  A    between atoms: C_42  and  C_43 
REMARK   39  A    between atoms: C_43  and  C_44 
REMARK   40  A    between atoms: C_44  and  C_45 
REMARK   41  A    between atoms: C_45  and  C_46 
REMARK   42  A    between atoms: C_46  and  C_47 
REMARK   43  A    between atoms: C_47  and  C_48 
REMARK   44  A    between atoms: C_48  and  C_49 
REMARK   45  A    between atoms: C_49  and  C_50 
ROOT
HETATM    1  C   UNK N   1      20.122  14.251   2.377  0.00  0.00     0.180 C 
ENDROOT
BRANCH   1   2
HETATM    2  C   UNK N   1      20.637  13.399   1.218  0.00  0.00     0.213 C 
BRANCH   2   3
HETATM    3  O   UNK N   1      21.760  12.696   1.594  0.00  0.00    -0.319 OA
BRANCH   3   4
HETATM    4  C   UNK N   1      22.978  12.933   1.048  0.00  0.00     0.258 C 
HETATM    5  O   UNK N   1      23.082  13.067  -0.160  0.00  0.00    -0.265 OA
BRANCH   4   6
HETATM    6  C   UNK N   1      24.197  13.029   1.913  0.00  0.00     0.111 C 
BRANCH   6   7
HETATM    7  C   UNK N   1      24.261  14.397   2.555  0.00  0.00     0.010 C 
BRANCH   7   8
HETATM    8  C   UNK N   1      25.212  15.272   1.765  0.00  0.00     0.000 C 
BRANCH   8   9
HETATM    9  C   UNK N   1      26.268  15.833   2.697  0.00  0.00     0.000 C 
BRANCH   9  10
HETATM   10  C   UNK N   1      27.655  15.291   2.357  0.00  0.00     0.000 C 
BRANCH  10  11
HETATM   11  C   UNK N   1      28.526  15.053   3.586  0.00  0.00     0.000 C 
BRANCH  11  12
HETATM   12  C   UNK N   1      29.653  16.070   3.670  0.00  0.00     0.000 C 
BRANCH  12  13
HETATM   13  C   UNK N   1      30.537  15.766   4.868  0.00  0.00     0.000 C 
BRANCH  13  14
HETATM   14  C   UNK N   1      29.826  16.135   6.158  0.00  0.00     0.000 C 
BRANCH  14  15
HETATM   15  C   UNK N   1      29.425  17.595   6.125  0.00  0.00     0.000 C 
BRANCH  15  16
HETATM   16  C   UNK N   1      28.019  17.750   6.660  0.00  0.00     0.000 C 
BRANCH  16  17
HETATM   17  C   UNK N   1      27.129  18.157   5.512  0.00  0.00     0.000 C 
BRANCH  17  18
HETATM   18  C   UNK N   1      27.669  19.387   4.821  0.00  0.00     0.000 C 
BRANCH  18  19
HETATM   19  C   UNK N   1      26.499  20.311   4.562  0.00  0.00     0.000 C 
BRANCH  19  20
HETATM   20  C   UNK N   1      26.160  20.347   3.089  0.00  0.00    -0.000 C 
BRANCH  20  21
HETATM   21  C   UNK N   1      24.653  20.406   2.951  0.00  0.00    -0.005 C 
HETATM   22  C   UNK N   1      24.020  19.302   3.768  0.00  0.00     0.005 C 
ENDBRANCH  20  21
ENDBRANCH  19  20
ENDBRANCH  18  19
ENDBRANCH  17  18
ENDBRANCH  16  17
ENDBRANCH  15  16
ENDBRANCH  14  15
ENDBRANCH  13  14
ENDBRANCH  12  13
ENDBRANCH  11  12
ENDBRANCH  10  11
ENDBRANCH   9  10
ENDBRANCH   8   9
ENDBRANCH   7   8
ENDBRANCH   6   7
ENDBRANCH   4   6
ENDBRANCH   3   4
ENDBRANCH   2   3
ENDBRANCH   1   2
BRANCH   1  23
HETATM   23  C   UNK N   1      20.048  15.717   1.953  0.00  0.00     0.215 C 
BRANCH  23  24
HETATM   24  O   UNK N   1      19.864  16.545   3.065  0.00  0.00    -0.294 OA
BRANCH  24  25
HETATM   25  P   UNK N   1      20.511  18.088   2.585  0.00  0.00     0.393 P 
HETATM   26  O   UNK N   1      20.616  18.150   4.132  0.00  0.00    -0.631 OA
BRANCH  25  27
HETATM   27  O   UNK N   1      18.843  17.971   2.109  0.00  0.00    -0.307 OA
HETATM   28  H   UNK N   1      18.558  17.421   1.362  0.00  0.00     0.222 HD
ENDBRANCH  25  27
BRANCH  25  29
HETATM   29  O   UNK N   1      19.666  19.562   2.958  0.00  0.00    -0.295 OA
BRANCH  29  30
HETATM   30  C   UNK N   1      20.578  20.592   2.703  0.00  0.00     0.199 C 
BRANCH  30  31
HETATM   31  C   UNK N   1      21.164  20.425   1.312  0.00  0.00     0.138 C 
BRANCH  31  32
HETATM   32  N   UNK N   1      20.412  21.220   0.360  0.00  0.00    -0.428 N 
HETATM   33  H   UNK N   1      19.403  21.331   0.461  0.00  0.00     0.149 HD
HETATM   34  H   UNK N   1      20.896  21.671  -0.418  0.00  0.00     0.149 HD
ENDBRANCH  31  32
ENDBRANCH  30  31
ENDBRANCH  29  30
ENDBRANCH  25  29
ENDBRANCH  24  25
ENDBRANCH  23  24
ENDBRANCH   1  23
BRANCH   1  35
HETATM   35  O   UNK N   1      18.901  13.764   2.804  0.00  0.00    -0.312 OA
BRANCH  35  36
HETATM   36  C   UNK N   1      18.751  13.158   4.006  0.00  0.00     0.259 C 
HETATM   37  O   UNK N   1      17.762  12.481   4.232  0.00  0.00    -0.265 OA
BRANCH  36  38
HETATM   38  C   UNK N   1      19.845  13.239   5.021  0.00  0.00     0.111 C 
BRANCH  38  39
HETATM   39  C   UNK N   1      20.249  11.854   5.494  0.00  0.00     0.010 C 
BRANCH  39  40
HETATM   40  C   UNK N   1      21.310  11.936   6.581  0.00  0.00     0.000 C 
BRANCH  40  41
HETATM   41  C   UNK N   1      22.705  11.942   5.979  0.00  0.00     0.000 C 
BRANCH  41  42
HETATM   42  C   UNK N   1      23.736  11.705   7.070  0.00  0.00     0.000 C 
BRANCH  42  43
HETATM   43  C   UNK N   1      24.727  12.860   7.143  0.00  0.00     0.000 C 
BRANCH  43  44
HETATM   44  C   UNK N   1      24.589  13.834   5.979  0.00  0.00     0.000 C 
BRANCH  44  45
HETATM   45  C   UNK N   1      24.950  15.243   6.406  0.00  0.00     0.000 C 
BRANCH  45  46
HETATM   46  C   UNK N   1      23.989  16.231   5.779  0.00  0.00     0.000 C 
BRANCH  46  47
HETATM   47  C   UNK N   1      22.628  15.580   5.636  0.00  0.00     0.000 C 
BRANCH  47  48
HETATM   48  C   UNK N   1      21.671  16.102   6.691  0.00  0.00     0.000 C 
BRANCH  48  49
HETATM   49  C   UNK N   1      21.803  15.261   7.943  0.00  0.00     0.000 C 
BRANCH  49  50
HETATM   50  C   UNK N   1      20.435  14.949   8.503  0.00  0.00     0.000 C 
BRANCH  50  51
HETATM   51  C   UNK N   1      20.597  13.943   9.620  0.00  0.00     0.000 C 
BRANCH  51  52
HETATM   52  C   UNK N   1      22.064  13.667   9.856  0.00  0.00    -0.000 C 
BRANCH  52  53
HETATM   53  C   UNK N   1      22.203  12.635  10.954  0.00  0.00    -0.005 C 
HETATM   54  C   UNK N   1      22.806  11.369  10.386  0.00  0.00     0.005 C 
ENDBRANCH  52  53
ENDBRANCH  51  52
ENDBRANCH  50  51
ENDBRANCH  49  50
ENDBRANCH  48  49
ENDBRANCH  47  48
ENDBRANCH  46  47
ENDBRANCH  45  46
ENDBRANCH  44  45
ENDBRANCH  43  44
ENDBRANCH  42  43
ENDBRANCH  41  42
ENDBRANCH  40  41
ENDBRANCH  39  40
ENDBRANCH  38  39
ENDBRANCH  36  38
ENDBRANCH  35  36
ENDBRANCH   1  35
TORSDOF 45
ENDMDL
MODEL 7
REMARK VINA RESULT:      -5.6      3.270      5.316
REMARK WARNING: 32 MAX_TORS EXCEEDED!!!
REMARK  45 active torsions:
REMARK  status: ('A' for Active; 'I' for Inactive)
REMARK    1  A    between atoms: C_2  and  C_3 
REMARK    2  A    between atoms: C_3  and  C_4 
REMARK    3  A    between atoms: C_4  and  C_5 
REMARK    4  A    between atoms: C_5  and  C_6 
REMARK    5  A    between atoms: C_6  and  C_7 
REMARK    6  A    between atoms: C_7  and  C_8 
REMARK    7  A    between atoms: C_8  and  C_9 
REMARK    8  A    between atoms: C_9  and  C_10 
REMARK    9  A    between atoms: C_10  and  C_11 
REMARK   10  A    between atoms: C_11  and  C_12 
REMARK   11  A    between atoms: C_12  and  C_13 
REMARK   12  A    between atoms: C_13  and  C_14 
REMARK   13  A    between atoms: C_14  and  C_15 
REMARK   14  A    between atoms: C_15  and  C_16 
REMARK   15  A    between atoms: C_16  and  C_17 
REMARK   16  A    between atoms: C_17  and  C_18 
REMARK   17  A    between atoms: C_18  and  O_20 
REMARK   18  A    between atoms: O_20  and  C_21 
REMARK   19  A    between atoms: C_21  and  C_22 
REMARK   20  A    between atoms: C_22  and  C_23 
REMARK   21  A    between atoms: C_22  and  O_32 
REMARK   22  A    between atoms: C_23  and  O_24 
REMARK   23  A    between atoms: P_25  and  O_24 
REMARK   24  A    between atoms: P_25  and  O_26 
REMARK   25  A    between atoms: P_25  and  O_28 
REMARK   26  A    between atoms: O_28  and  C_29 
REMARK   27  A    between atoms: C_29  and  C_30 
REMARK   28  A    between atoms: C_30  and  N_31 
REMARK   29  A    between atoms: O_32  and  C_33 
REMARK   30  A    between atoms: C_33  and  C_35 
REMARK   31  A    between atoms: C_35  and  C_36 
REMARK   32  A    between atoms: C_36  and  C_37 
REMARK   33  A    between atoms: C_37  and  C_38 
REMARK   34  A    between atoms: C_38  and  C_39 
REMARK   35  A    between atoms: C_39  and  C_40 
REMARK   36  A    between atoms: C_40  and  C_41 
REMARK   37  A    between atoms: C_41  and  C_42 
REMARK   38  A    between atoms: C_42  and  C_43 
REMARK   39  A    between atoms: C_43  and  C_44 
REMARK   40  A    between atoms: C_44  and  C_45 
REMARK   41  A    between atoms: C_45  and  C_46 
REMARK   42  A    between atoms: C_46  and  C_47 
REMARK   43  A    between atoms: C_47  and  C_48 
REMARK   44  A    between atoms: C_48  and  C_49 
REMARK   45  A    between atoms: C_49  and  C_50 
ROOT
HETATM    1  C   UNK N   1      21.976  18.278   4.210  0.00  0.00     0.180 C 
ENDROOT
BRANCH   1   2
HETATM    2  C   UNK N   1      23.474  18.560   4.092  0.00  0.00     0.213 C 
BRANCH   2   3
HETATM    3  O   UNK N   1      23.704  19.911   3.954  0.00  0.00    -0.319 OA
BRANCH   3   4
HETATM    4  C   UNK N   1      24.676  20.400   3.145  0.00  0.00     0.258 C 
HETATM    5  O   UNK N   1      24.376  20.881   2.066  0.00  0.00    -0.265 OA
BRANCH   4   6
HETATM    6  C   UNK N   1      26.113  20.349   3.562  0.00  0.00     0.111 C 
BRANCH   6   7
HETATM    7  C   UNK N   1      26.227  20.650   5.040  0.00  0.00     0.010 C 
BRANCH   7   8
HETATM    8  C   UNK N   1      27.676  20.526   5.461  0.00  0.00     0.000 C 
BRANCH   8   9
HETATM    9  C   UNK N   1      28.138  19.096   5.254  0.00  0.00     0.000 C 
BRANCH   9  10
HETATM   10  C   UNK N   1      28.029  18.284   6.542  0.00  0.00     0.000 C 
BRANCH  10  11
HETATM   11  C   UNK N   1      28.136  19.137   7.802  0.00  0.00     0.000 C 
BRANCH  11  12
HETATM   12  C   UNK N   1      28.440  18.285   9.023  0.00  0.00     0.000 C 
BRANCH  12  13
HETATM   13  C   UNK N   1      29.780  18.687   9.616  0.00  0.00     0.000 C 
BRANCH  13  14
HETATM   14  C   UNK N   1      30.918  18.141   8.772  0.00  0.00     0.000 C 
BRANCH  14  15
HETATM   15  C   UNK N   1      30.806  16.634   8.672  0.00  0.00     0.000 C 
BRANCH  15  16
HETATM   16  C   UNK N   1      31.059  16.198   7.246  0.00  0.00     0.000 C 
BRANCH  16  17
HETATM   17  C   UNK N   1      31.624  17.378   6.494  0.00  0.00     0.000 C 
BRANCH  17  18
HETATM   18  C   UNK N   1      32.994  17.057   5.942  0.00  0.00     0.000 C 
BRANCH  18  19
HETATM   19  C   UNK N   1      34.014  17.584   6.928  0.00  0.00     0.000 C 
BRANCH  19  20
HETATM   20  C   UNK N   1      34.703  16.447   7.648  0.00  0.00    -0.000 C 
BRANCH  20  21
HETATM   21  C   UNK N   1      34.545  16.665   9.138  0.00  0.00    -0.005 C 
HETATM   22  C   UNK N   1      34.045  15.395   9.791  0.00  0.00     0.005 C 
ENDBRANCH  20  21
ENDBRANCH  19  20
ENDBRANCH  18  19
ENDBRANCH  17  18
ENDBRANCH  16  17
ENDBRANCH  15  16
ENDBRANCH  14  15
ENDBRANCH  13  14
ENDBRANCH  12  13
ENDBRANCH  11  12
ENDBRANCH  10  11
ENDBRANCH   9  10
ENDBRANCH   8   9
ENDBRANCH   7   8
ENDBRANCH   6   7
ENDBRANCH   4   6
ENDBRANCH   3   4
ENDBRANCH   2   3
ENDBRANCH   1   2
BRANCH   1  23
HETATM   23  C   UNK N   1      21.602  18.056   5.675  0.00  0.00     0.215 C 
BRANCH  23  24
HETATM   24  O   UNK N   1      20.547  17.144   5.782  0.00  0.00    -0.294 OA
BRANCH  24  25
HETATM   25  P   UNK N   1      20.873  16.255   7.243  0.00  0.00     0.393 P 
HETATM   26  O   UNK N   1      19.388  15.901   6.962  0.00  0.00    -0.631 OA
BRANCH  25  27
HETATM   27  O   UNK N   1      21.030  17.961   7.540  0.00  0.00    -0.307 OA
HETATM   28  H   UNK N   1      21.755  18.327   8.069  0.00  0.00     0.222 HD
ENDBRANCH  25  27
BRANCH  25  29
HETATM   29  O   UNK N   1      20.097  16.686   8.739  0.00  0.00    -0.295 OA
BRANCH  29  30
HETATM   30  C   UNK N   1      18.724  16.666   8.469  0.00  0.00     0.199 C 
BRANCH  30  31
HETATM   31  C   UNK N   1      18.005  17.627   9.398  0.00  0.00     0.138 C 
BRANCH  31  32
HETATM   32  N   UNK N   1      18.887  18.721   9.758  0.00  0.00    -0.428 N 
HETATM   33  H   UNK N   1      18.895  19.088  10.710  0.00  0.00     0.149 HD
HETATM   34  H   UNK N   1      19.504  19.127   9.053  0.00  0.00     0.149 HD
ENDBRANCH  31  32
ENDBRANCH  30  31
ENDBRANCH  29  30
ENDBRANCH  25  29
ENDBRANCH  24  25
ENDBRANCH  23  24
ENDBRANCH   1  23
BRANCH   1  35
HETATM   35  O   UNK N   1      21.264  19.314   3.635  0.00  0.00    -0.312 OA
BRANCH  35  36
HETATM   36  C   UNK N   1      20.682  19.195   2.418  0.00  0.00     0.259 C 
HETATM   37  O   UNK N   1      20.780  20.094   1.600  0.00  0.00    -0.265 OA
BRANCH  36  38
HETATM   38  C   UNK N   1      19.999  17.919   2.041  0.00  0.00     0.111 C 
BRANCH  38  39
HETATM   39  C   UNK N   1      20.270  17.569   0.589  0.00  0.00     0.010 C 
BRANCH  39  40
HETATM   40  C   UNK N   1      19.381  16.423   0.129  0.00  0.00     0.000 C 
BRANCH  40  41
HETATM   41  C   UNK N   1      19.775  15.123   0.808  0.00  0.00     0.000 C 
BRANCH  41  42
HETATM   42  C   UNK N   1      18.814  14.019   0.402  0.00  0.00     0.000 C 
BRANCH  42  43
HETATM   43  C   UNK N   1      19.428  12.645   0.641  0.00  0.00     0.000 C 
BRANCH  43  44
HETATM   44  C   UNK N   1      19.557  12.304   2.121  0.00  0.00     0.000 C 
BRANCH  44  45
HETATM   45  C   UNK N   1      21.014  12.177   2.522  0.00  0.00     0.000 C 
BRANCH  45  46
HETATM   46  C   UNK N   1      21.209  12.716   3.923  0.00  0.00     0.000 C 
BRANCH  46  47
HETATM   47  C   UNK N   1      21.374  14.221   3.859  0.00  0.00     0.000 C 
BRANCH  47  48
HETATM   48  C   UNK N   1      22.839  14.603   3.948  0.00  0.00     0.000 C 
BRANCH  48  49
HETATM   49  C   UNK N   1      23.306  15.103   2.597  0.00  0.00     0.000 C 
BRANCH  49  50
HETATM   50  C   UNK N   1      24.225  14.087   1.958  0.00  0.00     0.000 C 
BRANCH  50  51
HETATM   51  C   UNK N   1      25.653  14.526   2.191  0.00  0.00     0.000 C 
BRANCH  51  52
HETATM   52  C   UNK N   1      25.706  16.023   2.393  0.00  0.00    -0.000 C 
BRANCH  52  53
HETATM   53  C   UNK N   1      26.878  16.360   3.289  0.00  0.00    -0.005 C 
HETATM   54  C   UNK N   1      26.957  15.355   4.417  0.00  0.00     0.005 C 
ENDBRANCH  52  53
ENDBRANCH  51  52
ENDBRANCH  50  51
ENDBRANCH  49  50
ENDBRANCH  48  49
ENDBRANCH  47  48
ENDBRANCH  46  47
ENDBRANCH  45  46
ENDBRANCH  44  45
ENDBRANCH  43  44
ENDBRANCH  42  43
ENDBRANCH  41  42
ENDBRANCH  40  41
ENDBRANCH  39  40
ENDBRANCH  38  39
ENDBRANCH  36  38
ENDBRANCH  35  36
ENDBRANCH   1  35
TORSDOF 45
ENDMDL
MODEL 8
REMARK VINA RESULT:      -5.5      2.404      7.273
REMARK WARNING: 32 MAX_TORS EXCEEDED!!!
REMARK  45 active torsions:
REMARK  status: ('A' for Active; 'I' for Inactive)
REMARK    1  A    between atoms: C_2  and  C_3 
REMARK    2  A    between atoms: C_3  and  C_4 
REMARK    3  A    between atoms: C_4  and  C_5 
REMARK    4  A    between atoms: C_5  and  C_6 
REMARK    5  A    between atoms: C_6  and  C_7 
REMARK    6  A    between atoms: C_7  and  C_8 
REMARK    7  A    between atoms: C_8  and  C_9 
REMARK    8  A    between atoms: C_9  and  C_10 
REMARK    9  A    between atoms: C_10  and  C_11 
REMARK   10  A    between atoms: C_11  and  C_12 
REMARK   11  A    between atoms: C_12  and  C_13 
REMARK   12  A    between atoms: C_13  and  C_14 
REMARK   13  A    between atoms: C_14  and  C_15 
REMARK   14  A    between atoms: C_15  and  C_16 
REMARK   15  A    between atoms: C_16  and  C_17 
REMARK   16  A    between atoms: C_17  and  C_18 
REMARK   17  A    between atoms: C_18  and  O_20 
REMARK   18  A    between atoms: O_20  and  C_21 
REMARK   19  A    between atoms: C_21  and  C_22 
REMARK   20  A    between atoms: C_22  and  C_23 
REMARK   21  A    between atoms: C_22  and  O_32 
REMARK   22  A    between atoms: C_23  and  O_24 
REMARK   23  A    between atoms: P_25  and  O_24 
REMARK   24  A    between atoms: P_25  and  O_26 
REMARK   25  A    between atoms: P_25  and  O_28 
REMARK   26  A    between atoms: O_28  and  C_29 
REMARK   27  A    between atoms: C_29  and  C_30 
REMARK   28  A    between atoms: C_30  and  N_31 
REMARK   29  A    between atoms: O_32  and  C_33 
REMARK   30  A    between atoms: C_33  and  C_35 
REMARK   31  A    between atoms: C_35  and  C_36 
REMARK   32  A    between atoms: C_36  and  C_37 
REMARK   33  A    between atoms: C_37  and  C_38 
REMARK   34  A    between atoms: C_38  and  C_39 
REMARK   35  A    between atoms: C_39  and  C_40 
REMARK   36  A    between atoms: C_40  and  C_41 
REMARK   37  A    between atoms: C_41  and  C_42 
REMARK   38  A    between atoms: C_42  and  C_43 
REMARK   39  A    between atoms: C_43  and  C_44 
REMARK   40  A    between atoms: C_44  and  C_45 
REMARK   41  A    between atoms: C_45  and  C_46 
REMARK   42  A    between atoms: C_46  and  C_47 
REMARK   43  A    between atoms: C_47  and  C_48 
REMARK   44  A    between atoms: C_48  and  C_49 
REMARK   45  A    between atoms: C_49  and  C_50 
ROOT
HETATM    1  C   UNK N   1      21.893  15.534   6.989  0.00  0.00     0.180 C 
ENDROOT
BRANCH   1   2
HETATM    2  C   UNK N   1      20.832  15.769   8.063  0.00  0.00     0.213 C 
BRANCH   2   3
HETATM    3  O   UNK N   1      21.153  15.091   9.219  0.00  0.00    -0.319 OA
BRANCH   3   4
HETATM    4  C   UNK N   1      20.331  14.162   9.765  0.00  0.00     0.258 C 
HETATM    5  O   UNK N   1      19.124  14.329   9.727  0.00  0.00    -0.265 OA
BRANCH   4   6
HETATM    6  C   UNK N   1      20.892  12.936  10.417  0.00  0.00     0.111 C 
BRANCH   6   7
HETATM    7  C   UNK N   1      21.907  12.289   9.502  0.00  0.00     0.010 C 
BRANCH   7   8
HETATM    8  C   UNK N   1      23.059  11.763  10.332  0.00  0.00     0.000 C 
BRANCH   8   9
HETATM    9  C   UNK N   1      24.359  12.347   9.812  0.00  0.00     0.000 C 
BRANCH   9  10
HETATM   10  C   UNK N   1      24.202  12.869   8.386  0.00  0.00     0.000 C 
BRANCH  10  11
HETATM   11  C   UNK N   1      25.311  13.831   7.973  0.00  0.00     0.000 C 
BRANCH  11  12
HETATM   12  C   UNK N   1      25.316  14.057   6.469  0.00  0.00     0.000 C 
BRANCH  12  13
HETATM   13  C   UNK N   1      26.370  15.088   6.103  0.00  0.00     0.000 C 
BRANCH  13  14
HETATM   14  C   UNK N   1      25.771  16.166   5.218  0.00  0.00     0.000 C 
BRANCH  14  15
HETATM   15  C   UNK N   1      26.579  16.292   3.943  0.00  0.00     0.000 C 
BRANCH  15  16
HETATM   16  C   UNK N   1      25.648  16.328   2.752  0.00  0.00     0.000 C 
BRANCH  16  17
HETATM   17  C   UNK N   1      26.038  15.204   1.824  0.00  0.00     0.000 C 
BRANCH  17  18
HETATM   18  C   UNK N   1      25.234  13.959   2.119  0.00  0.00     0.000 C 
BRANCH  18  19
HETATM   19  C   UNK N   1      26.199  12.902   2.608  0.00  0.00     0.000 C 
BRANCH  19  20
HETATM   20  C   UNK N   1      26.255  11.738   1.644  0.00  0.00    -0.000 C 
BRANCH  20  21
HETATM   21  C   UNK N   1      27.692  11.552   1.207  0.00  0.00    -0.005 C 
HETATM   22  C   UNK N   1      28.601  12.418   2.051  0.00  0.00     0.005 C 
ENDBRANCH  20  21
ENDBRANCH  19  20
ENDBRANCH  18  19
ENDBRANCH  17  18
ENDBRANCH  16  17
ENDBRANCH  15  16
ENDBRANCH  14  15
ENDBRANCH  13  14
ENDBRANCH  12  13
ENDBRANCH  11  12
ENDBRANCH  10  11
ENDBRANCH   9  10
ENDBRANCH   8   9
ENDBRANCH   7   8
ENDBRANCH   6   7
ENDBRANCH   4   6
ENDBRANCH   3   4
ENDBRANCH   2   3
ENDBRANCH   1   2
BRANCH   1  23
HETATM   23  C   UNK N   1      21.311  14.686   5.859  0.00  0.00     0.215 C 
BRANCH  23  24
HETATM   24  O   UNK N   1      19.954  14.430   6.082  0.00  0.00    -0.294 OA
BRANCH  24  25
HETATM   25  P   UNK N   1      19.459  13.445   4.734  0.00  0.00     0.393 P 
HETATM   26  O   UNK N   1      20.696  14.191   4.165  0.00  0.00    -0.631 OA
BRANCH  25  27
HETATM   27  O   UNK N   1      18.207  14.586   5.126  0.00  0.00    -0.307 OA
HETATM   28  H   UNK N   1      18.055  15.384   4.597  0.00  0.00     0.222 HD
ENDBRANCH  25  27
BRANCH  25  29
HETATM   29  O   UNK N   1      18.824  14.171   3.287  0.00  0.00    -0.295 OA
BRANCH  29  30
HETATM   30  C   UNK N   1      19.621  13.688   2.244  0.00  0.00     0.199 C 
BRANCH  30  31
HETATM   31  C   UNK N   1      19.777  14.760   1.179  0.00  0.00     0.138 C 
BRANCH  31  32
HETATM   32  N   UNK N   1      19.617  16.074   1.774  0.00  0.00    -0.428 N 
HETATM   33  H   UNK N   1      19.230  16.173   2.713  0.00  0.00     0.149 HD
HETATM   34  H   UNK N   1      19.893  16.904   1.249  0.00  0.00     0.149 HD
ENDBRANCH  31  32
ENDBRANCH  30  31
ENDBRANCH  29  30
ENDBRANCH  25  29
ENDBRANCH  24  25
ENDBRANCH  23  24
ENDBRANCH   1  23
BRANCH   1  35
HETATM   35  O   UNK N   1      22.374  16.750   6.540  0.00  0.00    -0.312 OA
BRANCH  35  36
HETATM   36  C   UNK N   1      21.547  17.771   6.213  0.00  0.00     0.259 C 
HETATM   37  O   UNK N   1      21.186  18.566   7.065  0.00  0.00    -0.265 OA
BRANCH  36  38
HETATM   38  C   UNK N   1      21.154  17.982   4.786  0.00  0.00     0.111 C 
BRANCH  38  39
HETATM   39  C   UNK N   1      22.348  17.813   3.864  0.00  0.00     0.010 C 
BRANCH  39  40
HETATM   40  C   UNK N   1      23.421  18.849   4.166  0.00  0.00     0.000 C 
BRANCH  40  41
HETATM   41  C   UNK N   1      23.436  19.940   3.111  0.00  0.00     0.000 C 
BRANCH  41  42
HETATM   42  C   UNK N   1      24.845  20.488   2.957  0.00  0.00     0.000 C 
BRANCH  42  43
HETATM   43  C   UNK N   1      25.691  20.167   4.183  0.00  0.00     0.000 C 
BRANCH  43  44
HETATM   44  C   UNK N   1      27.156  19.922   3.843  0.00  0.00     0.000 C 
BRANCH  44  45
HETATM   45  C   UNK N   1      28.043  20.199   5.042  0.00  0.00     0.000 C 
BRANCH  45  46
HETATM   46  C   UNK N   1      27.979  19.032   6.006  0.00  0.00     0.000 C 
BRANCH  46  47
HETATM   47  C   UNK N   1      29.127  18.086   5.719  0.00  0.00     0.000 C 
BRANCH  47  48
HETATM   48  C   UNK N   1      29.438  17.236   6.936  0.00  0.00     0.000 C 
BRANCH  48  49
HETATM   49  C   UNK N   1      29.208  18.057   8.188  0.00  0.00     0.000 C 
BRANCH  49  50
HETATM   50  C   UNK N   1      30.533  18.430   8.812  0.00  0.00     0.000 C 
BRANCH  50  51
HETATM   51  C   UNK N   1      31.561  17.404   8.396  0.00  0.00     0.000 C 
BRANCH  51  52
HETATM   52  C   UNK N   1      32.871  18.087   8.078  0.00  0.00    -0.000 C 
BRANCH  52  53
HETATM   53  C   UNK N   1      33.661  17.220   7.121  0.00  0.00    -0.005 C 
HETATM   54  C   UNK N   1      33.265  17.546   5.698  0.00  0.00     0.005 C 
ENDBRANCH  52  53
ENDBRANCH  51  52
ENDBRANCH  50  51
ENDBRANCH  49  50
ENDBRANCH  48  49
ENDBRANCH  47  48
ENDBRANCH  46  47
ENDBRANCH  45  46
ENDBRANCH  44  45
ENDBRANCH  43  44
ENDBRANCH  42  43
ENDBRANCH  41  42
ENDBRANCH  40  41
ENDBRANCH  39  40
ENDBRANCH  38  39
ENDBRANCH  36  38
ENDBRANCH  35  36
ENDBRANCH   1  35
TORSDOF 45
ENDMDL
MODEL 9
REMARK VINA RESULT:      -5.4      2.698      5.503
REMARK WARNING: 32 MAX_TORS EXCEEDED!!!
REMARK  45 active torsions:
REMARK  status: ('A' for Active; 'I' for Inactive)
REMARK    1  A    between atoms: C_2  and  C_3 
REMARK    2  A    between atoms: C_3  and  C_4 
REMARK    3  A    between atoms: C_4  and  C_5 
REMARK    4  A    between atoms: C_5  and  C_6 
REMARK    5  A    between atoms: C_6  and  C_7 
REMARK    6  A    between atoms: C_7  and  C_8 
REMARK    7  A    between atoms: C_8  and  C_9 
REMARK    8  A    between atoms: C_9  and  C_10 
REMARK    9  A    between atoms: C_10  and  C_11 
REMARK   10  A    between atoms: C_11  and  C_12 
REMARK   11  A    between atoms: C_12  and  C_13 
REMARK   12  A    between atoms: C_13  and  C_14 
REMARK   13  A    between atoms: C_14  and  C_15 
REMARK   14  A    between atoms: C_15  and  C_16 
REMARK   15  A    between atoms: C_16  and  C_17 
REMARK   16  A    between atoms: C_17  and  C_18 
REMARK   17  A    between atoms: C_18  and  O_20 
REMARK   18  A    between atoms: O_20  and  C_21 
REMARK   19  A    between atoms: C_21  and  C_22 
REMARK   20  A    between atoms: C_22  and  C_23 
REMARK   21  A    between atoms: C_22  and  O_32 
REMARK   22  A    between atoms: C_23  and  O_24 
REMARK   23  A    between atoms: P_25  and  O_24 
REMARK   24  A    between atoms: P_25  and  O_26 
REMARK   25  A    between atoms: P_25  and  O_28 
REMARK   26  A    between atoms: O_28  and  C_29 
REMARK   27  A    between atoms: C_29  and  C_30 
REMARK   28  A    between atoms: C_30  and  N_31 
REMARK   29  A    between atoms: O_32  and  C_33 
REMARK   30  A    between atoms: C_33  and  C_35 
REMARK   31  A    between atoms: C_35  and  C_36 
REMARK   32  A    between atoms: C_36  and  C_37 
REMARK   33  A    between atoms: C_37  and  C_38 
REMARK   34  A    between atoms: C_38  and  C_39 
REMARK   35  A    between atoms: C_39  and  C_40 
REMARK   36  A    between atoms: C_40  and  C_41 
REMARK   37  A    between atoms: C_41  and  C_42 
REMARK   38  A    between atoms: C_42  and  C_43 
REMARK   39  A    between atoms: C_43  and  C_44 
REMARK   40  A    between atoms: C_44  and  C_45 
REMARK   41  A    between atoms: C_45  and  C_46 
REMARK   42  A    between atoms: C_46  and  C_47 
REMARK   43  A    between atoms: C_47  and  C_48 
REMARK   44  A    between atoms: C_48  and  C_49 
REMARK   45  A    between atoms: C_49  and  C_50 
ROOT
HETATM    1  C   UNK N   1      20.497  14.842   8.347  0.00  0.00     0.180 C 
ENDROOT
BRANCH   1   2
HETATM    2  C   UNK N   1      20.709  16.352   8.252  0.00  0.00     0.213 C 
BRANCH   2   3
HETATM    3  O   UNK N   1      21.653  16.651   7.294  0.00  0.00    -0.319 OA
BRANCH   3   4
HETATM    4  C   UNK N   1      21.609  17.794   6.567  0.00  0.00     0.258 C 
HETATM    5  O   UNK N   1      20.939  18.733   6.961  0.00  0.00    -0.265 OA
BRANCH   4   6
HETATM    6  C   UNK N   1      22.371  17.912   5.283  0.00  0.00     0.111 C 
BRANCH   6   7
HETATM    7  C   UNK N   1      23.076  16.607   4.986  0.00  0.00     0.010 C 
BRANCH   7   8
HETATM    8  C   UNK N   1      24.559  16.871   4.821  0.00  0.00     0.000 C 
BRANCH   8   9
HETATM    9  C   UNK N   1      24.968  16.556   3.395  0.00  0.00     0.000 C 
BRANCH   9  10
HETATM   10  C   UNK N   1      26.459  16.244   3.301  0.00  0.00     0.000 C 
BRANCH  10  11
HETATM   11  C   UNK N   1      27.344  17.368   3.831  0.00  0.00     0.000 C 
BRANCH  11  12
HETATM   12  C   UNK N   1      28.625  16.822   4.442  0.00  0.00     0.000 C 
BRANCH  12  13
HETATM   13  C   UNK N   1      28.309  16.068   5.722  0.00  0.00     0.000 C 
BRANCH  13  14
HETATM   14  C   UNK N   1      27.652  16.991   6.733  0.00  0.00     0.000 C 
BRANCH  14  15
HETATM   15  C   UNK N   1      28.683  17.482   7.727  0.00  0.00     0.000 C 
BRANCH  15  16
HETATM   16  C   UNK N   1      28.682  18.994   7.758  0.00  0.00     0.000 C 
BRANCH  16  17
HETATM   17  C   UNK N   1      27.519  19.474   6.925  0.00  0.00     0.000 C 
BRANCH  17  18
HETATM   18  C   UNK N   1      27.829  20.807   6.284  0.00  0.00     0.000 C 
BRANCH  18  19
HETATM   19  C   UNK N   1      27.034  20.886   4.999  0.00  0.00     0.000 C 
BRANCH  19  20
HETATM   20  C   UNK N   1      25.684  20.226   5.161  0.00  0.00    -0.000 C 
BRANCH  20  21
HETATM   21  C   UNK N   1      24.961  20.294   3.832  0.00  0.00    -0.005 C 
HETATM   22  C   UNK N   1      25.932  20.682   2.739  0.00  0.00     0.005 C 
ENDBRANCH  20  21
ENDBRANCH  19  20
ENDBRANCH  18  19
ENDBRANCH  17  18
ENDBRANCH  16  17
ENDBRANCH  15  16
ENDBRANCH  14  15
ENDBRANCH  13  14
ENDBRANCH  12  13
ENDBRANCH  11  12
ENDBRANCH  10  11
ENDBRANCH   9  10
ENDBRANCH   8   9
ENDBRANCH   7   8
ENDBRANCH   6   7
ENDBRANCH   4   6
ENDBRANCH   3   4
ENDBRANCH   2   3
ENDBRANCH   1   2
BRANCH   1  23
HETATM   23  C   UNK N   1      20.797  14.189   6.999  0.00  0.00     0.215 C 
BRANCH  23  24
HETATM   24  O   UNK N   1      19.617  13.749   6.390  0.00  0.00    -0.294 OA
BRANCH  24  25
HETATM   25  P   UNK N   1      19.390  14.815   5.033  0.00  0.00     0.393 P 
HETATM   26  O   UNK N   1      18.130  13.911   4.960  0.00  0.00    -0.631 OA
BRANCH  25  27
HETATM   27  O   UNK N   1      20.822  13.857   4.801  0.00  0.00    -0.307 OA
HETATM   28  H   UNK N   1      21.519  13.802   5.473  0.00  0.00     0.222 HD
ENDBRANCH  25  27
BRANCH  25  29
HETATM   29  O   UNK N   1      19.459  14.209   3.404  0.00  0.00    -0.295 OA
BRANCH  29  30
HETATM   30  C   UNK N   1      19.719  15.324   2.599  0.00  0.00     0.199 C 
BRANCH  30  31
HETATM   31  C   UNK N   1      20.745  14.964   1.540  0.00  0.00     0.138 C 
BRANCH  31  32
HETATM   32  N   UNK N   1      20.179  14.007   0.607  0.00  0.00    -0.428 N 
HETATM   33  H   UNK N   1      20.563  13.065   0.535  0.00  0.00     0.149 HD
HETATM   34  H   UNK N   1      19.390  14.280   0.019  0.00  0.00     0.149 HD
ENDBRANCH  31  32
ENDBRANCH  30  31
ENDBRANCH  29  30
ENDBRANCH  25  29
ENDBRANCH  24  25
ENDBRANCH  23  24
ENDBRANCH   1  23
BRANCH   1  35
HETATM   35  O   UNK N   1      21.277  14.328   9.366  0.00  0.00    -0.312 OA
BRANCH  35  36
HETATM   36  C   UNK N   1      20.910  13.226  10.063  0.00  0.00     0.259 C 
HETATM   37  O   UNK N   1      19.786  13.141  10.528  0.00  0.00    -0.265 OA
BRANCH  36  38
HETATM   38  C   UNK N   1      21.852  12.072  10.180  0.00  0.00     0.111 C 
BRANCH  38  39
HETATM   39  C   UNK N   1      22.678  12.173  11.450  0.00  0.00     0.010 C 
BRANCH  39  40
HETATM   40  C   UNK N   1      24.166  12.172  11.135  0.00  0.00     0.000 C 
BRANCH  40  41
HETATM   41  C   UNK N   1      24.406  12.030   9.642  0.00  0.00     0.000 C 
BRANCH  41  42
HETATM   42  C   UNK N   1      25.008  13.312   9.094  0.00  0.00     0.000 C 
BRANCH  42  43
HETATM   43  C   UNK N   1      24.380  13.682   7.756  0.00  0.00     0.000 C 
BRANCH  43  44
HETATM   44  C   UNK N   1      25.411  14.086   6.709  0.00  0.00     0.000 C 
BRANCH  44  45
HETATM   45  C   UNK N   1      25.886  12.879   5.924  0.00  0.00     0.000 C 
BRANCH  45  46
HETATM   46  C   UNK N   1      25.496  13.030   4.468  0.00  0.00     0.000 C 
BRANCH  46  47
HETATM   47  C   UNK N   1      24.017  12.735   4.316  0.00  0.00     0.000 C 
BRANCH  47  48
HETATM   48  C   UNK N   1      23.755  11.245   4.423  0.00  0.00     0.000 C 
BRANCH  48  49
HETATM   49  C   UNK N   1      22.487  10.907   3.668  0.00  0.00     0.000 C 
BRANCH  49  50
HETATM   50  C   UNK N   1      22.418  11.706   2.387  0.00  0.00     0.000 C 
BRANCH  50  51
HETATM   51  C   UNK N   1      23.105  10.916   1.296  0.00  0.00     0.000 C 
BRANCH  51  52
HETATM   52  C   UNK N   1      24.221  11.737   0.691  0.00  0.00    -0.000 C 
BRANCH  52  53
HETATM   53  C   UNK N   1      23.627  12.944  -0.001  0.00  0.00    -0.005 C 
HETATM   54  C   UNK N   1      24.162  14.207   0.637  0.00  0.00     0.005 C 
ENDBRANCH  52  53
ENDBRANCH  51  52
ENDBRANCH  50  51
ENDBRANCH  49  50
ENDBRANCH  48  49
ENDBRANCH  47  48
ENDBRANCH  46  47
ENDBRANCH  45  46
ENDBRANCH  44  45
ENDBRANCH  43  44
ENDBRANCH  42  43
ENDBRANCH  41  42
ENDBRANCH  40  41
ENDBRANCH  39  40
ENDBRANCH  38  39
ENDBRANCH  36  38
ENDBRANCH  35  36
ENDBRANCH   1  35
TORSDOF 45
ENDMDL
