MODEL 1
REMARK VINA RESULT:      -6.9      0.000      0.000
REMARK  9 active torsions:
REMARK  status: ('A' for Active; 'I' for Inactive)
REMARK    1  A    between atoms: C_5  and  C_3 
REMARK    2  A    between atoms: O_22  and  C_3 
REMARK    3  A    between atoms: C_6  and  O_16 
REMARK    4  A    between atoms: C_7  and  O_17 
REMARK    5  A    between atoms: C_9  and  N_15 
REMARK    6  A    between atoms: O_18  and  C_10 
REMARK    7  A    between atoms: P_24  and  O_19 
REMARK    8  A    between atoms: P_24  and  O_20 
REMARK    9  A    between atoms: P_24  and  O_22 
ROOT
HETATM    1  C   UNK N   1      32.775  17.714   7.946  0.00  0.00     0.180 C 
HETATM    2  C   UNK N   1      33.539  16.994   6.808  0.00  0.00     0.182 C 
HETATM    3  C   UNK N   1      34.695  16.371   7.559  0.00  0.00     0.198 C 
HETATM    4  C   UNK N   1      33.943  16.042   8.836  0.00  0.00     0.262 C 
HETATM    5  O   UNK N   1      33.337  17.268   9.165  0.00  0.00    -0.353 OA
ENDROOT
BRANCH   4   6
HETATM    6  N   UNK N   1      34.706  15.503   9.971  0.00  0.00    -0.293 N 
HETATM    7  C   UNK N   1      34.541  14.217  10.394  0.00  0.00     0.107 A 
HETATM    8  C   UNK N   1      35.206  13.755  11.530  0.00  0.00    -0.003 A 
HETATM    9  C   UNK N   1      34.988  12.357  11.997  0.00  0.00     0.054 C 
HETATM   10  C   UNK N   1      36.049  14.637  12.216  0.00  0.00     0.109 A 
HETATM   11  N   UNK N   1      36.670  14.265  13.272  0.00  0.00    -0.385 N 
HETATM   12  N   UNK N   1      36.203  15.905  11.763  0.00  0.00    -0.308 N 
HETATM   13  H   UNK N   1      36.594  13.334  13.585  0.00  0.00     0.157 HD
ATOM     14  HN  UNK N   1      37.242  14.931  13.789  1.00  0.00     0.157 HD
HETATM   15  C   UNK N   1      35.542  16.344  10.663  0.00  0.00     0.227 A 
ATOM     16  HN  UNK N   1      36.826  16.541  12.260  1.00  0.00     0.171 HD
BRANCH  15  17
HETATM   17  O   UNK N   1      35.710  17.621  10.267  0.00  0.00    -0.332 OA
HETATM   18  H   UNK N   1      36.330  18.170  10.706  0.00  0.00     0.221 HD
ENDBRANCH  15  17
ENDBRANCH   4   6
BRANCH   3  19
HETATM   19  O   UNK N   1      35.214  15.251   6.906  0.00  0.00    -0.388 OA
HETATM   20  H   UNK N   1      36.026  14.731   6.791  0.00  0.00     0.210 HD
ENDBRANCH   3  19
BRANCH   2  21
HETATM   21  O   UNK N   1      33.965  17.861   5.797  0.00  0.00    -0.390 OA
HETATM   22  H   UNK N   1      34.010  17.632   4.856  0.00  0.00     0.210 HD
ENDBRANCH   2  21
BRANCH   1  23
HETATM   23  C   UNK N   1      31.297  17.318   8.021  0.00  0.00     0.215 C 
BRANCH  23  24
HETATM   24  O   UNK N   1      30.450  18.348   8.434  0.00  0.00    -0.294 OA
BRANCH  24  25
HETATM   25  P   UNK N   1      29.119  17.546   9.220  0.00  0.00     0.390 P 
HETATM   26  O   UNK N   1      29.410  18.738  10.170  0.00  0.00    -0.632 OA
BRANCH  25  27
HETATM   27  O   UNK N   1      27.567  18.295   9.411  0.00  0.00    -0.307 OA
HETATM   28  H   UNK N   1      27.090  18.427  10.246  0.00  0.00     0.222 HD
ENDBRANCH  25  27
BRANCH  25  29
HETATM   29  O   UNK N   1      28.500  18.169   7.714  0.00  0.00    -0.307 OA
HETATM   30  H   UNK N   1      28.647  18.715   6.927  0.00  0.00     0.222 HD
ENDBRANCH  25  29
ENDBRANCH  24  25
ENDBRANCH  23  24
ENDBRANCH   1  23
TORSDOF 9
ENDMDL
MODEL 2
REMARK VINA RESULT:      -6.6      3.497      5.061
REMARK  9 active torsions:
REMARK  status: ('A' for Active; 'I' for Inactive)
REMARK    1  A    between atoms: C_5  and  C_3 
REMARK    2  A    between atoms: O_22  and  C_3 
REMARK    3  A    between atoms: C_6  and  O_16 
REMARK    4  A    between atoms: C_7  and  O_17 
REMARK    5  A    between atoms: C_9  and  N_15 
REMARK    6  A    between atoms: O_18  and  C_10 
REMARK    7  A    between atoms: P_24  and  O_19 
REMARK    8  A    between atoms: P_24  and  O_20 
REMARK    9  A    between atoms: P_24  and  O_22 
ROOT
HETATM    1  C   UNK N   1      36.496  15.863  10.875  0.00  0.00     0.180 C 
HETATM    2  C   UNK N   1      37.106  14.633  10.161  0.00  0.00     0.182 C 
HETATM    3  C   UNK N   1      37.206  13.637  11.295  0.00  0.00     0.198 C 
HETATM    4  C   UNK N   1      35.937  14.041  12.022  0.00  0.00     0.262 C 
HETATM    5  O   UNK N   1      36.086  15.433  12.159  0.00  0.00    -0.353 OA
ENDROOT
BRANCH   4   6
HETATM    6  N   UNK N   1      35.647  13.407  13.317  0.00  0.00    -0.293 N 
HETATM    7  C   UNK N   1      34.779  12.359  13.418  0.00  0.00     0.107 A 
HETATM    8  C   UNK N   1      34.448  11.834  14.667  0.00  0.00    -0.003 A 
HETATM    9  C   UNK N   1      33.472  10.712  14.762  0.00  0.00     0.054 C 
HETATM   10  C   UNK N   1      35.031  12.400  15.807  0.00  0.00     0.109 A 
HETATM   11  N   UNK N   1      34.749  11.962  16.976  0.00  0.00    -0.385 N 
HETATM   12  N   UNK N   1      35.901  13.431  15.672  0.00  0.00    -0.308 N 
HETATM   13  H   UNK N   1      34.149  11.189  17.080  0.00  0.00     0.157 HD
ATOM     14  HN  UNK N   1      35.144  12.415  17.800  1.00  0.00     0.157 HD
HETATM   15  C   UNK N   1      36.206  13.938  14.453  0.00  0.00     0.227 A 
ATOM     16  HN  UNK N   1      36.332  13.832  16.504  1.00  0.00     0.171 HD
BRANCH  15  17
HETATM   17  O   UNK N   1      37.057  14.980  14.373  0.00  0.00    -0.332 OA
HETATM   18  H   UNK N   1      37.656  15.150  15.074  0.00  0.00     0.221 HD
ENDBRANCH  15  17
ENDBRANCH   4   6
BRANCH   3  19
HETATM   19  O   UNK N   1      37.203  12.314  10.846  0.00  0.00    -0.388 OA
HETATM   20  H   UNK N   1      36.862  11.429  11.053  0.00  0.00     0.210 HD
ENDBRANCH   3  19
BRANCH   2  21
HETATM   21  O   UNK N   1      38.346  14.897   9.572  0.00  0.00    -0.390 OA
HETATM   22  H   UNK N   1      39.036  14.233   9.417  0.00  0.00     0.210 HD
ENDBRANCH   2  21
BRANCH   1  23
HETATM   23  C   UNK N   1      35.221  16.378  10.201  0.00  0.00     0.215 C 
BRANCH  23  24
HETATM   24  O   UNK N   1      35.357  17.633   9.603  0.00  0.00    -0.294 OA
BRANCH  24  25
HETATM   25  P   UNK N   1      34.089  17.701   8.412  0.00  0.00     0.390 P 
HETATM   26  O   UNK N   1      34.732  19.109   8.309  0.00  0.00    -0.632 OA
BRANCH  25  27
HETATM   27  O   UNK N   1      34.416  17.869   6.717  0.00  0.00    -0.307 OA
HETATM   28  H   UNK N   1      34.001  18.502   6.110  0.00  0.00     0.222 HD
ENDBRANCH  25  27
BRANCH  25  29
HETATM   29  O   UNK N   1      35.236  16.518   7.844  0.00  0.00    -0.307 OA
HETATM   30  H   UNK N   1      35.584  15.998   7.104  0.00  0.00     0.222 HD
ENDBRANCH  25  29
ENDBRANCH  24  25
ENDBRANCH  23  24
ENDBRANCH   1  23
TORSDOF 9
ENDMDL
MODEL 3
REMARK VINA RESULT:      -6.6      4.098      6.806
REMARK  9 active torsions:
REMARK  status: ('A' for Active; 'I' for Inactive)
REMARK    1  A    between atoms: C_5  and  C_3 
REMARK    2  A    between atoms: O_22  and  C_3 
REMARK    3  A    between atoms: C_6  and  O_16 
REMARK    4  A    between atoms: C_7  and  O_17 
REMARK    5  A    between atoms: C_9  and  N_15 
REMARK    6  A    between atoms: O_18  and  C_10 
REMARK    7  A    between atoms: P_24  and  O_19 
REMARK    8  A    between atoms: P_24  and  O_20 
REMARK    9  A    between atoms: P_24  and  O_22 
ROOT
HETATM    1  C   UNK N   1      36.712  12.356  10.370  0.00  0.00     0.180 C 
HETATM    2  C   UNK N   1      37.510  13.564  10.918  0.00  0.00     0.182 C 
HETATM    3  C   UNK N   1      36.915  14.710  10.130  0.00  0.00     0.198 C 
HETATM    4  C   UNK N   1      35.489  14.192  10.079  0.00  0.00     0.262 C 
HETATM    5  O   UNK N   1      35.651  12.881   9.595  0.00  0.00    -0.353 OA
ENDROOT
BRANCH   4   6
HETATM    6  N   UNK N   1      34.508  14.938   9.277  0.00  0.00    -0.293 N 
HETATM    7  C   UNK N   1      34.777  15.314   7.994  0.00  0.00     0.107 A 
HETATM    8  C   UNK N   1      33.870  16.101   7.284  0.00  0.00    -0.003 A 
HETATM    9  C   UNK N   1      34.195  16.531   5.894  0.00  0.00     0.054 C 
HETATM   10  C   UNK N   1      32.681  16.486   7.914  0.00  0.00     0.109 A 
HETATM   11  N   UNK N   1      31.824  17.219   7.309  0.00  0.00    -0.385 N 
HETATM   12  N   UNK N   1      32.437  16.084   9.185  0.00  0.00    -0.308 N 
HETATM   13  H   UNK N   1      31.975  17.483   6.373  0.00  0.00     0.157 HD
ATOM     14  HN  UNK N   1      30.985  17.531   7.797  1.00  0.00     0.157 HD
HETATM   15  C   UNK N   1      33.332  15.328   9.868  0.00  0.00     0.227 A 
ATOM     16  HN  UNK N   1      31.564  16.358   9.637  1.00  0.00     0.171 HD
BRANCH  15  17
HETATM   17  O   UNK N   1      33.054  14.975  11.138  0.00  0.00    -0.332 OA
HETATM   18  H   UNK N   1      32.841  14.085  11.341  0.00  0.00     0.221 HD
ENDBRANCH  15  17
ENDBRANCH   4   6
BRANCH   3  19
HETATM   19  O   UNK N   1      37.047  15.936  10.786  0.00  0.00    -0.388 OA
HETATM   20  H   UNK N   1      36.907  16.889  10.676  0.00  0.00     0.210 HD
ENDBRANCH   3  19
BRANCH   2  21
HETATM   21  O   UNK N   1      38.890  13.445  10.726  0.00  0.00    -0.390 OA
HETATM   22  H   UNK N   1      39.315  13.273   9.872  0.00  0.00     0.210 HD
ENDBRANCH   2  21
BRANCH   1  23
HETATM   23  C   UNK N   1      36.034  11.535  11.470  0.00  0.00     0.215 C 
BRANCH  23  24
HETATM   24  O   UNK N   1      36.224  12.037  12.759  0.00  0.00    -0.294 OA
BRANCH  24  25
HETATM   25  P   UNK N   1      34.840  11.489  13.662  0.00  0.00     0.390 P 
HETATM   26  O   UNK N   1      35.935  11.614  14.754  0.00  0.00    -0.632 OA
BRANCH  25  27
HETATM   27  O   UNK N   1      34.082  12.464  14.880  0.00  0.00    -0.307 OA
HETATM   28  H   UNK N   1      33.462  13.195  14.729  0.00  0.00     0.222 HD
ENDBRANCH  25  27
BRANCH  25  29
HETATM   29  O   UNK N   1      34.448  13.084  13.078  0.00  0.00    -0.307 OA
HETATM   30  H   UNK N   1      34.166  13.989  13.282  0.00  0.00     0.222 HD
ENDBRANCH  25  29
ENDBRANCH  24  25
ENDBRANCH  23  24
ENDBRANCH   1  23
TORSDOF 9
ENDMDL
MODEL 4
REMARK VINA RESULT:      -6.5     11.821     13.430
REMARK  9 active torsions:
REMARK  status: ('A' for Active; 'I' for Inactive)
REMARK    1  A    between atoms: C_5  and  C_3 
REMARK    2  A    between atoms: O_22  and  C_3 
REMARK    3  A    between atoms: C_6  and  O_16 
REMARK    4  A    between atoms: C_7  and  O_17 
REMARK    5  A    between atoms: C_9  and  N_15 
REMARK    6  A    between atoms: O_18  and  C_10 
REMARK    7  A    between atoms: P_24  and  O_19 
REMARK    8  A    between atoms: P_24  and  O_20 
REMARK    9  A    between atoms: P_24  and  O_22 
ROOT
HETATM    1  C   UNK N   1      21.174  17.304   4.468  0.00  0.00     0.180 C 
HETATM    2  C   UNK N   1      19.742  16.766   4.231  0.00  0.00     0.182 C 
HETATM    3  C   UNK N   1      19.690  15.596   5.188  0.00  0.00     0.198 C 
HETATM    4  C   UNK N   1      20.526  16.211   6.295  0.00  0.00     0.262 C 
HETATM    5  O   UNK N   1      21.678  16.642   5.612  0.00  0.00    -0.353 OA
ENDROOT
BRANCH   4   6
HETATM    6  N   UNK N   1      20.875  15.371   7.450  0.00  0.00    -0.293 N 
HETATM    7  C   UNK N   1      21.977  14.567   7.439  0.00  0.00     0.107 A 
HETATM    8  C   UNK N   1      22.237  13.709   8.507  0.00  0.00    -0.003 A 
HETATM    9  C   UNK N   1      23.429  12.815   8.464  0.00  0.00     0.054 C 
HETATM   10  C   UNK N   1      21.349  13.699   9.589  0.00  0.00     0.109 A 
HETATM   11  N   UNK N   1      21.537  12.919  10.586  0.00  0.00    -0.385 N 
HETATM   12  N   UNK N   1      20.270  14.518   9.576  0.00  0.00    -0.308 N 
HETATM   13  H   UNK N   1      22.339  12.349  10.621  0.00  0.00     0.157 HD
ATOM     14  HN  UNK N   1      20.856  12.887  11.344  1.00  0.00     0.157 HD
HETATM   15  C   UNK N   1      20.023  15.340   8.526  0.00  0.00     0.227 A 
ATOM     16  HN  UNK N   1      19.631  14.515  10.371  1.00  0.00     0.171 HD
BRANCH  15  17
HETATM   17  O   UNK N   1      18.923  16.118   8.550  0.00  0.00    -0.332 OA
HETATM   18  H   UNK N   1      19.000  17.033   8.738  0.00  0.00     0.221 HD
ENDBRANCH  15  17
ENDBRANCH   4   6
BRANCH   3  19
HETATM   19  O   UNK N   1      18.386  15.279   5.575  0.00  0.00    -0.388 OA
HETATM   20  H   UNK N   1      17.860  14.951   6.322  0.00  0.00     0.210 HD
ENDBRANCH   3  19
BRANCH   2  21
HETATM   21  O   UNK N   1      19.510  16.384   2.907  0.00  0.00    -0.390 OA
HETATM   22  H   UNK N   1      20.142  16.499   2.181  0.00  0.00     0.210 HD
ENDBRANCH   2  21
BRANCH   1  23
HETATM   23  C   UNK N   1      21.205  18.793   4.824  0.00  0.00     0.215 C 
BRANCH  23  24
HETATM   24  O   UNK N   1      22.144  19.534   4.104  0.00  0.00    -0.294 OA
BRANCH  24  25
HETATM   25  P   UNK N   1      21.300  20.056   2.673  0.00  0.00     0.390 P 
HETATM   26  O   UNK N   1      20.387  20.572   3.816  0.00  0.00    -0.632 OA
BRANCH  25  27
HETATM   27  O   UNK N   1      21.081  21.732   2.284  0.00  0.00    -0.307 OA
HETATM   28  H   UNK N   1      21.511  22.485   2.719  0.00  0.00     0.222 HD
ENDBRANCH  25  27
BRANCH  25  29
HETATM   29  O   UNK N   1      22.801  20.941   2.711  0.00  0.00    -0.307 OA
HETATM   30  H   UNK N   1      23.457  21.470   2.231  0.00  0.00     0.222 HD
ENDBRANCH  25  29
ENDBRANCH  24  25
ENDBRANCH  23  24
ENDBRANCH   1  23
TORSDOF 9
ENDMDL
MODEL 5
REMARK VINA RESULT:      -6.5      3.879      5.732
REMARK  9 active torsions:
REMARK  status: ('A' for Active; 'I' for Inactive)
REMARK    1  A    between atoms: C_5  and  C_3 
REMARK    2  A    between atoms: O_22  and  C_3 
REMARK    3  A    between atoms: C_6  and  O_16 
REMARK    4  A    between atoms: C_7  and  O_17 
REMARK    5  A    between atoms: C_9  and  N_15 
REMARK    6  A    between atoms: O_18  and  C_10 
REMARK    7  A    between atoms: P_24  and  O_19 
REMARK    8  A    between atoms: P_24  and  O_20 
REMARK    9  A    between atoms: P_24  and  O_22 
ROOT
HETATM    1  C   UNK N   1      34.694  15.258  11.009  0.00  0.00     0.180 C 
HETATM    2  C   UNK N   1      36.205  14.960  10.854  0.00  0.00     0.182 C 
HETATM    3  C   UNK N   1      36.492  14.162  12.106  0.00  0.00     0.198 C 
HETATM    4  C   UNK N   1      35.168  13.422  12.174  0.00  0.00     0.262 C 
HETATM    5  O   UNK N   1      34.226  14.463  12.082  0.00  0.00    -0.353 OA
ENDROOT
BRANCH   4   6
HETATM    6  N   UNK N   1      34.909  12.571  13.343  0.00  0.00    -0.293 N 
HETATM    7  C   UNK N   1      35.237  12.974  14.605  0.00  0.00     0.107 A 
HETATM    8  C   UNK N   1      35.067  12.113  15.689  0.00  0.00    -0.003 A 
HETATM    9  C   UNK N   1      35.462  12.558  17.055  0.00  0.00     0.054 C 
HETATM   10  C   UNK N   1      34.547  10.835  15.453  0.00  0.00     0.109 A 
HETATM   11  N   UNK N   1      34.386  10.004  16.413  0.00  0.00    -0.385 N 
HETATM   12  N   UNK N   1      34.218  10.469  14.190  0.00  0.00    -0.308 N 
HETATM   13  H   UNK N   1      34.586  10.275  17.338  0.00  0.00     0.157 HD
ATOM     14  HN  UNK N   1      34.052   9.060  16.220  1.00  0.00     0.157 HD
HETATM   15  C   UNK N   1      34.397  11.312  13.144  0.00  0.00     0.227 A 
ATOM     16  HN  UNK N   1      33.829   9.541  14.025  1.00  0.00     0.171 HD
BRANCH  15  17
HETATM   17  O   UNK N   1      34.078  10.892  11.905  0.00  0.00    -0.332 OA
HETATM   18  H   UNK N   1      34.450  11.316  11.156  0.00  0.00     0.221 HD
ENDBRANCH  15  17
ENDBRANCH   4   6
BRANCH   3  19
HETATM   19  O   UNK N   1      37.600  13.323  11.962  0.00  0.00    -0.388 OA
HETATM   20  H   UNK N   1      38.523  13.209  12.238  0.00  0.00     0.210 HD
ENDBRANCH   3  19
BRANCH   2  21
HETATM   21  O   UNK N   1      36.988  16.116  10.767  0.00  0.00    -0.390 OA
HETATM   22  H   UNK N   1      37.492  16.382   9.983  0.00  0.00     0.210 HD
ENDBRANCH   2  21
BRANCH   1  23
HETATM   23  C   UNK N   1      33.867  14.820   9.798  0.00  0.00     0.215 C 
BRANCH  23  24
HETATM   24  O   UNK N   1      34.588  14.099   8.843  0.00  0.00    -0.294 OA
BRANCH  24  25
HETATM   25  P   UNK N   1      33.524  12.810   8.357  0.00  0.00     0.390 P 
HETATM   26  O   UNK N   1      34.585  12.073   9.216  0.00  0.00    -0.632 OA
BRANCH  25  27
HETATM   27  O   UNK N   1      32.568  11.917   9.496  0.00  0.00    -0.307 OA
HETATM   28  H   UNK N   1      31.760  11.416   9.302  0.00  0.00     0.222 HD
ENDBRANCH  25  27
BRANCH  25  29
HETATM   29  O   UNK N   1      32.591  13.855   9.394  0.00  0.00    -0.307 OA
HETATM   30  H   UNK N   1      32.303  14.755   9.612  0.00  0.00     0.222 HD
ENDBRANCH  25  29
ENDBRANCH  24  25
ENDBRANCH  23  24
ENDBRANCH   1  23
TORSDOF 9
ENDMDL
MODEL 6
REMARK VINA RESULT:      -6.4      3.661      6.312
REMARK  9 active torsions:
REMARK  status: ('A' for Active; 'I' for Inactive)
REMARK    1  A    between atoms: C_5  and  C_3 
REMARK    2  A    between atoms: O_22  and  C_3 
REMARK    3  A    between atoms: C_6  and  O_16 
REMARK    4  A    between atoms: C_7  and  O_17 
REMARK    5  A    between atoms: C_9  and  N_15 
REMARK    6  A    between atoms: O_18  and  C_10 
REMARK    7  A    between atoms: P_24  and  O_19 
REMARK    8  A    between atoms: P_24  and  O_20 
REMARK    9  A    between atoms: P_24  and  O_22 
ROOT
HETATM    1  C   UNK N   1      34.063  14.354   7.039  0.00  0.00     0.180 C 
HETATM    2  C   UNK N   1      34.869  15.623   6.668  0.00  0.00     0.182 C 
HETATM    3  C   UNK N   1      33.772  16.564   6.218  0.00  0.00     0.198 C 
HETATM    4  C   UNK N   1      32.712  16.114   7.207  0.00  0.00     0.262 C 
HETATM    5  O   UNK N   1      32.696  14.719   7.033  0.00  0.00    -0.353 OA
ENDROOT
BRANCH   4   6
HETATM    6  N   UNK N   1      31.362  16.682   7.082  0.00  0.00    -0.293 N 
HETATM    7  C   UNK N   1      30.761  16.829   5.865  0.00  0.00     0.107 A 
HETATM    8  C   UNK N   1      29.519  17.455   5.762  0.00  0.00    -0.003 A 
HETATM    9  C   UNK N   1      28.893  17.638   4.421  0.00  0.00     0.054 C 
HETATM   10  C   UNK N   1      28.903  17.918   6.930  0.00  0.00     0.109 A 
HETATM   11  N   UNK N   1      27.770  18.511   6.885  0.00  0.00    -0.385 N 
HETATM   12  N   UNK N   1      29.519  17.744   8.125  0.00  0.00    -0.308 N 
HETATM   13  H   UNK N   1      27.298  18.607   6.026  0.00  0.00     0.157 HD
ATOM     14  HN  UNK N   1      27.356  18.885   7.738  1.00  0.00     0.157 HD
HETATM   15  C   UNK N   1      30.731  17.143   8.211  0.00  0.00     0.227 A 
ATOM     16  HN  UNK N   1      29.061  18.073   8.975  1.00  0.00     0.171 HD
BRANCH  15  17
HETATM   17  O   UNK N   1      31.313  17.016   9.419  0.00  0.00    -0.332 OA
HETATM   18  H   UNK N   1      32.196  16.707   9.484  0.00  0.00     0.221 HD
ENDBRANCH  15  17
ENDBRANCH   4   6
BRANCH   3  19
HETATM   19  O   UNK N   1      34.133  17.907   6.349  0.00  0.00    -0.388 OA
HETATM   20  H   UNK N   1      34.142  18.646   6.978  0.00  0.00     0.210 HD
ENDBRANCH   3  19
BRANCH   2  21
HETATM   21  O   UNK N   1      35.821  15.399   5.669  0.00  0.00    -0.390 OA
HETATM   22  H   UNK N   1      36.103  14.523   5.364  0.00  0.00     0.210 HD
ENDBRANCH   2  21
BRANCH   1  23
HETATM   23  C   UNK N   1      34.339  13.863   8.462  0.00  0.00     0.215 C 
BRANCH  23  24
HETATM   24  O   UNK N   1      35.242  14.653   9.176  0.00  0.00    -0.294 OA
BRANCH  24  25
HETATM   25  P   UNK N   1      34.532  14.831  10.756  0.00  0.00     0.390 P 
HETATM   26  O   UNK N   1      34.298  16.225  10.117  0.00  0.00    -0.632 OA
BRANCH  25  27
HETATM   27  O   UNK N   1      32.833  15.097  10.984  0.00  0.00    -0.307 OA
HETATM   28  H   UNK N   1      32.395  15.956  11.094  0.00  0.00     0.222 HD
ENDBRANCH  25  27
BRANCH  25  29
HETATM   29  O   UNK N   1      33.562  13.656   9.908  0.00  0.00    -0.307 OA
HETATM   30  H   UNK N   1      33.510  12.974   9.221  0.00  0.00     0.222 HD
ENDBRANCH  25  29
ENDBRANCH  24  25
ENDBRANCH  23  24
ENDBRANCH   1  23
TORSDOF 9
ENDMDL
MODEL 7
REMARK VINA RESULT:      -6.4      3.771      6.798
REMARK  9 active torsions:
REMARK  status: ('A' for Active; 'I' for Inactive)
REMARK    1  A    between atoms: C_5  and  C_3 
REMARK    2  A    between atoms: O_22  and  C_3 
REMARK    3  A    between atoms: C_6  and  O_16 
REMARK    4  A    between atoms: C_7  and  O_17 
REMARK    5  A    between atoms: C_9  and  N_15 
REMARK    6  A    between atoms: O_18  and  C_10 
REMARK    7  A    between atoms: P_24  and  O_19 
REMARK    8  A    between atoms: P_24  and  O_20 
REMARK    9  A    between atoms: P_24  and  O_22 
ROOT
HETATM    1  C   UNK N   1      35.452  14.210  10.309  0.00  0.00     0.180 C 
HETATM    2  C   UNK N   1      36.002  15.622  10.624  0.00  0.00     0.182 C 
HETATM    3  C   UNK N   1      35.362  16.453   9.534  0.00  0.00     0.198 C 
HETATM    4  C   UNK N   1      34.038  15.714   9.478  0.00  0.00     0.262 C 
HETATM    5  O   UNK N   1      34.436  14.373   9.337  0.00  0.00    -0.353 OA
ENDROOT
BRANCH   4   6
HETATM    6  N   UNK N   1      33.075  16.096   8.434  0.00  0.00    -0.293 N 
HETATM    7  C   UNK N   1      33.487  16.490   7.195  0.00  0.00     0.107 A 
HETATM    8  C   UNK N   1      32.561  16.937   6.252  0.00  0.00    -0.003 A 
HETATM    9  C   UNK N   1      33.033  17.395   4.914  0.00  0.00     0.054 C 
HETATM   10  C   UNK N   1      31.207  16.962   6.603  0.00  0.00     0.109 A 
HETATM   11  N   UNK N   1      30.321  17.377   5.777  0.00  0.00    -0.385 N 
HETATM   12  N   UNK N   1      30.828  16.551   7.837  0.00  0.00    -0.308 N 
HETATM   13  H   UNK N   1      30.584  17.640   4.865  0.00  0.00     0.157 HD
ATOM     14  HN  UNK N   1      29.344  17.435   6.063  1.00  0.00     0.157 HD
HETATM   15  C   UNK N   1      31.739  16.129   8.749  0.00  0.00     0.227 A 
ATOM     16  HN  UNK N   1      29.839  16.561   8.085  1.00  0.00     0.171 HD
BRANCH  15  17
HETATM   17  O   UNK N   1      31.314  15.754   9.971  0.00  0.00    -0.332 OA
HETATM   18  H   UNK N   1      31.908  15.339  10.566  0.00  0.00     0.221 HD
ENDBRANCH  15  17
ENDBRANCH   4   6
BRANCH   3  19
HETATM   19  O   UNK N   1      35.243  17.799   9.889  0.00  0.00    -0.388 OA
HETATM   20  H   UNK N   1      34.665  18.573   9.798  0.00  0.00     0.210 HD
ENDBRANCH   3  19
BRANCH   2  21
HETATM   21  O   UNK N   1      37.398  15.688  10.594  0.00  0.00    -0.390 OA
HETATM   22  H   UNK N   1      37.976  15.482  11.346  0.00  0.00     0.210 HD
ENDBRANCH   2  21
BRANCH   1  23
HETATM   23  C   UNK N   1      34.757  13.555  11.505  0.00  0.00     0.215 C 
BRANCH  23  24
HETATM   24  O   UNK N   1      34.940  14.230  12.714  0.00  0.00    -0.294 OA
BRANCH  24  25
HETATM   25  P   UNK N   1      36.061  13.246  13.612  0.00  0.00     0.390 P 
HETATM   26  O   UNK N   1      36.522  14.687  13.952  0.00  0.00    -0.632 OA
BRANCH  25  27
HETATM   27  O   UNK N   1      36.117  13.250  15.345  0.00  0.00    -0.307 OA
HETATM   28  H   UNK N   1      36.639  12.655  15.906  0.00  0.00     0.222 HD
ENDBRANCH  25  27
BRANCH  25  29
HETATM   29  O   UNK N   1      34.491  12.978  14.321  0.00  0.00    -0.307 OA
HETATM   30  H   UNK N   1      33.906  12.396  14.829  0.00  0.00     0.222 HD
ENDBRANCH  25  29
ENDBRANCH  24  25
ENDBRANCH  23  24
ENDBRANCH   1  23
TORSDOF 9
ENDMDL
MODEL 8
REMARK VINA RESULT:      -6.4      3.557      6.784
REMARK  9 active torsions:
REMARK  status: ('A' for Active; 'I' for Inactive)
REMARK    1  A    between atoms: C_5  and  C_3 
REMARK    2  A    between atoms: O_22  and  C_3 
REMARK    3  A    between atoms: C_6  and  O_16 
REMARK    4  A    between atoms: C_7  and  O_17 
REMARK    5  A    between atoms: C_9  and  N_15 
REMARK    6  A    between atoms: O_18  and  C_10 
REMARK    7  A    between atoms: P_24  and  O_19 
REMARK    8  A    between atoms: P_24  and  O_20 
REMARK    9  A    between atoms: P_24  and  O_22 
ROOT
HETATM    1  C   UNK N   1      34.009  14.844   7.718  0.00  0.00     0.180 C 
HETATM    2  C   UNK N   1      34.751  15.940   6.915  0.00  0.00     0.182 C 
HETATM    3  C   UNK N   1      33.603  16.664   6.248  0.00  0.00     0.198 C 
HETATM    4  C   UNK N   1      32.606  16.538   7.386  0.00  0.00     0.262 C 
HETATM    5  O   UNK N   1      32.632  15.161   7.672  0.00  0.00    -0.353 OA
ENDROOT
BRANCH   4   6
HETATM    6  N   UNK N   1      31.232  17.010   7.160  0.00  0.00    -0.293 N 
HETATM    7  C   UNK N   1      30.684  17.033   5.911  0.00  0.00     0.107 A 
HETATM    8  C   UNK N   1      29.413  17.571   5.707  0.00  0.00    -0.003 A 
HETATM    9  C   UNK N   1      28.843  17.619   4.331  0.00  0.00     0.054 C 
HETATM   10  C   UNK N   1      28.715  18.076   6.810  0.00  0.00     0.109 A 
HETATM   11  N   UNK N   1      27.552  18.593   6.672  0.00  0.00    -0.385 N 
HETATM   12  N   UNK N   1      29.282  18.027   8.041  0.00  0.00    -0.308 N 
HETATM   13  H   UNK N   1      27.118  18.598   5.788  0.00  0.00     0.157 HD
ATOM     14  HN  UNK N   1      27.076  19.000   7.476  1.00  0.00     0.157 HD
HETATM   15  C   UNK N   1      30.522  17.510   8.224  0.00  0.00     0.227 A 
ATOM     16  HN  UNK N   1      28.765  18.386   8.843  1.00  0.00     0.171 HD
BRANCH  15  17
HETATM   17  O   UNK N   1      31.051  17.506   9.462  0.00  0.00    -0.332 OA
HETATM   18  H   UNK N   1      31.884  17.104   9.614  0.00  0.00     0.221 HD
ENDBRANCH  15  17
ENDBRANCH   4   6
BRANCH   3  19
HETATM   19  O   UNK N   1      33.922  17.984   5.921  0.00  0.00    -0.388 OA
HETATM   20  H   UNK N   1      34.310  18.534   5.221  0.00  0.00     0.210 HD
ENDBRANCH   3  19
BRANCH   2  21
HETATM   21  O   UNK N   1      35.663  15.422   5.991  0.00  0.00    -0.390 OA
HETATM   22  H   UNK N   1      35.505  15.359   5.036  0.00  0.00     0.210 HD
ENDBRANCH   2  21
BRANCH   1  23
HETATM   23  C   UNK N   1      34.368  14.843   9.207  0.00  0.00     0.215 C 
BRANCH  23  24
HETATM   24  O   UNK N   1      35.639  15.349   9.489  0.00  0.00    -0.294 OA
BRANCH  24  25
HETATM   25  P   UNK N   1      35.504  16.033  11.084  0.00  0.00     0.390 P 
HETATM   26  O   UNK N   1      34.884  14.623  11.264  0.00  0.00    -0.632 OA
BRANCH  25  27
HETATM   27  O   UNK N   1      36.363  15.389  12.447  0.00  0.00    -0.307 OA
HETATM   28  H   UNK N   1      36.636  14.465  12.571  0.00  0.00     0.222 HD
ENDBRANCH  25  27
BRANCH  25  29
HETATM   29  O   UNK N   1      37.209  15.860  10.764  0.00  0.00    -0.307 OA
HETATM   30  H   UNK N   1      37.952  16.005  10.158  0.00  0.00     0.222 HD
ENDBRANCH  25  29
ENDBRANCH  24  25
ENDBRANCH  23  24
ENDBRANCH   1  23
TORSDOF 9
ENDMDL
MODEL 9
REMARK VINA RESULT:      -6.3      3.071      4.222
REMARK  9 active torsions:
REMARK  status: ('A' for Active; 'I' for Inactive)
REMARK    1  A    between atoms: C_5  and  C_3 
REMARK    2  A    between atoms: O_22  and  C_3 
REMARK    3  A    between atoms: C_6  and  O_16 
REMARK    4  A    between atoms: C_7  and  O_17 
REMARK    5  A    between atoms: C_9  and  N_15 
REMARK    6  A    between atoms: O_18  and  C_10 
REMARK    7  A    between atoms: P_24  and  O_19 
REMARK    8  A    between atoms: P_24  and  O_20 
REMARK    9  A    between atoms: P_24  and  O_22 
ROOT
HETATM    1  C   UNK N   1      33.811  16.073   9.427  0.00  0.00     0.180 C 
HETATM    2  C   UNK N   1      35.229  16.686   9.526  0.00  0.00     0.182 C 
HETATM    3  C   UNK N   1      35.726  16.106  10.831  0.00  0.00     0.198 C 
HETATM    4  C   UNK N   1      35.060  14.748  10.707  0.00  0.00     0.262 C 
HETATM    5  O   UNK N   1      33.721  15.082  10.434  0.00  0.00    -0.353 OA
ENDROOT
BRANCH   4   6
HETATM    6  N   UNK N   1      35.156  13.822  11.845  0.00  0.00    -0.293 N 
HETATM    7  C   UNK N   1      35.744  14.194  13.019  0.00  0.00     0.107 A 
HETATM    8  C   UNK N   1      35.907  13.271  14.051  0.00  0.00    -0.003 A 
HETATM    9  C   UNK N   1      36.582  13.686  15.314  0.00  0.00     0.054 C 
HETATM   10  C   UNK N   1      35.448  11.963  13.858  0.00  0.00     0.109 A 
HETATM   11  N   UNK N   1      35.587  11.076  14.771  0.00  0.00    -0.385 N 
HETATM   12  N   UNK N   1      34.855  11.627  12.686  0.00  0.00    -0.308 N 
HETATM   13  H   UNK N   1      35.981  11.321  15.639  0.00  0.00     0.157 HD
ATOM     14  HN  UNK N   1      35.291  10.116  14.598  1.00  0.00     0.157 HD
HETATM   15  C   UNK N   1      34.712  12.532  11.686  0.00  0.00     0.227 A 
ATOM     16  HN  UNK N   1      34.512  10.676  12.554  1.00  0.00     0.171 HD
BRANCH  15  17
HETATM   17  O   UNK N   1      34.139  12.143  10.531  0.00  0.00    -0.332 OA
HETATM   18  H   UNK N   1      34.517  12.399   9.712  0.00  0.00     0.221 HD
ENDBRANCH  15  17
ENDBRANCH   4   6
BRANCH   3  19
HETATM   19  O   UNK N   1      37.121  16.046  10.892  0.00  0.00    -0.388 OA
HETATM   20  H   UNK N   1      37.913  16.597  10.993  0.00  0.00     0.210 HD
ENDBRANCH   3  19
BRANCH   2  21
HETATM   21  O   UNK N   1      35.224  18.084   9.532  0.00  0.00    -0.390 OA
HETATM   22  H   UNK N   1      34.976  18.632  10.293  0.00  0.00     0.210 HD
ENDBRANCH   2  21
BRANCH   1  23
HETATM   23  C   UNK N   1      33.569  15.327   8.112  0.00  0.00     0.215 C 
BRANCH  23  24
HETATM   24  O   UNK N   1      34.227  15.881   7.011  0.00  0.00    -0.294 OA
BRANCH  24  25
HETATM   25  P   UNK N   1      33.141  17.101   6.409  0.00  0.00     0.390 P 
HETATM   26  O   UNK N   1      34.472  17.879   6.575  0.00  0.00    -0.632 OA
BRANCH  25  27
HETATM   27  O   UNK N   1      33.359  17.856   4.863  0.00  0.00    -0.307 OA
HETATM   28  H   UNK N   1      33.364  17.411   4.000  0.00  0.00     0.222 HD
ENDBRANCH  25  27
BRANCH  25  29
HETATM   29  O   UNK N   1      33.330  15.934   5.129  0.00  0.00    -0.307 OA
HETATM   30  H   UNK N   1      33.077  15.637   4.241  0.00  0.00     0.222 HD
ENDBRANCH  25  29
ENDBRANCH  24  25
ENDBRANCH  23  24
ENDBRANCH   1  23
TORSDOF 9
ENDMDL
