MODEL 1
REMARK VINA RESULT:      -5.2      0.000      0.000
REMARK  1 active torsions:
REMARK  status: ('A' for Active; 'I' for Inactive)
REMARK    1  A    between atoms: C_6  and  O_13 
REMARK       I    between atoms: C_7  and  N_8 
ROOT
HETATM    1  C   UNK N   1      31.323  17.244   4.543  0.00  0.00     0.157 C 
HETATM    2  C   UNK N   1      29.516  17.322   9.176  0.00  0.00     0.158 C 
HETATM    3  C   UNK N   1      30.133  17.332   6.745  0.00  0.00     0.186 A 
HETATM    4  C   UNK N   1      32.276  17.081   6.862  0.00  0.00     0.105 A 
HETATM    5  C   UNK N   1      31.775  17.105   8.113  0.00  0.00     0.134 A 
HETATM    6  C   UNK N   1      33.739  16.917   6.594  0.00  0.00     0.271 C 
HETATM    7  C   UNK N   1      33.973  16.593   9.082  0.00  0.00     0.281 C 
HETATM    8  N   UNK N   1      34.725  17.129  10.201  0.00  0.00    -0.395 N 
HETATM    9  N   UNK N   1      32.570  16.931   9.258  0.00  0.00    -0.337 N 
HETATM   10  N   UNK N   1      34.521  17.160   7.829  0.00  0.00    -0.355 N 
HETATM   11  N   UNK N   1      31.255  17.213   5.993  0.00  0.00    -0.344 N 
HETATM   12  N   UNK N   1      30.443  17.264   8.061  0.00  0.00    -0.332 N 
HETATM   13  H   UNK N   1      34.358  17.539  11.061  0.00  0.00     0.153 HD
HETATM   14  H   UNK N   1      35.740  17.091  10.119  0.00  0.00     0.153 HD
HETATM   15  H   UNK N   1      32.187  17.036  10.159  0.00  0.00     0.165 HD
HETATM   16  H   UNK N   1      35.393  17.690   7.816  0.00  0.00     0.160 HD
ENDROOT
BRANCH   6  17
HETATM   17  O   UNK N   1      34.137  17.854   5.641  0.00  0.00    -0.371 OA
HETATM   18  H   UNK N   1      34.644  17.785   4.816  0.00  0.00     0.212 HD
ENDBRANCH   6  17
TORSDOF 1
ENDMDL
MODEL 2
REMARK VINA RESULT:      -5.0     11.916     13.020
REMARK  1 active torsions:
REMARK  status: ('A' for Active; 'I' for Inactive)
REMARK    1  A    between atoms: C_6  and  O_13 
REMARK       I    between atoms: C_7  and  N_8 
ROOT
HETATM    1  C   UNK N   1      19.741  14.875   2.744  0.00  0.00     0.157 C 
HETATM    2  C   UNK N   1      21.282  17.859   6.413  0.00  0.00     0.158 C 
HETATM    3  C   UNK N   1      20.479  16.132   4.780  0.00  0.00     0.186 A 
HETATM    4  C   UNK N   1      20.398  17.291   2.959  0.00  0.00     0.105 A 
HETATM    5  C   UNK N   1      20.813  18.090   3.962  0.00  0.00     0.134 A 
HETATM    6  C   UNK N   1      20.236  17.791   1.559  0.00  0.00     0.271 C 
HETATM    7  C   UNK N   1      21.211  19.952   2.411  0.00  0.00     0.281 C 
HETATM    8  N   UNK N   1      20.899  21.369   2.444  0.00  0.00    -0.395 N 
HETATM    9  N   UNK N   1      21.172  19.435   3.769  0.00  0.00    -0.337 N 
HETATM   10  N   UNK N   1      20.229  19.273   1.536  0.00  0.00    -0.355 N 
HETATM   11  N   UNK N   1      20.194  16.056   3.458  0.00  0.00    -0.344 N 
HETATM   12  N   UNK N   1      20.867  17.388   5.105  0.00  0.00    -0.332 N 
HETATM   13  H   UNK N   1      20.816  21.972   3.264  0.00  0.00     0.153 HD
HETATM   14  H   UNK N   1      20.745  21.816   1.541  0.00  0.00     0.153 HD
HETATM   15  H   UNK N   1      21.392  20.013   4.535  0.00  0.00     0.165 HD
HETATM   16  H   UNK N   1      19.581  19.797   0.947  0.00  0.00     0.160 HD
ENDROOT
BRANCH   6  17
HETATM   17  O   UNK N   1      19.015  17.347   1.053  0.00  0.00    -0.371 OA
HETATM   18  H   UNK N   1      18.452  16.583   1.255  0.00  0.00     0.212 HD
ENDBRANCH   6  17
TORSDOF 1
ENDMDL
MODEL 3
REMARK VINA RESULT:      -4.9     11.546     13.698
REMARK  1 active torsions:
REMARK  status: ('A' for Active; 'I' for Inactive)
REMARK    1  A    between atoms: C_6  and  O_13 
REMARK       I    between atoms: C_7  and  N_8 
ROOT
HETATM    1  C   UNK N   1      21.879  17.182   5.193  0.00  0.00     0.157 C 
HETATM    2  C   UNK N   1      20.778  20.630   1.781  0.00  0.00     0.158 C 
HETATM    3  C   UNK N   1      21.451  19.125   3.673  0.00  0.00     0.186 A 
HETATM    4  C   UNK N   1      20.727  17.218   2.960  0.00  0.00     0.105 A 
HETATM    5  C   UNK N   1      20.433  18.162   2.044  0.00  0.00     0.134 A 
HETATM    6  C   UNK N   1      20.361  15.781   2.767  0.00  0.00     0.271 C 
HETATM    7  C   UNK N   1      19.574  16.476   0.478  0.00  0.00     0.281 C 
HETATM    8  N   UNK N   1      18.391  16.394  -0.358  0.00  0.00    -0.395 N 
HETATM    9  N   UNK N   1      19.808  17.870   0.820  0.00  0.00    -0.337 N 
HETATM   10  N   UNK N   1      19.362  15.642   1.682  0.00  0.00    -0.355 N 
HETATM   11  N   UNK N   1      21.375  17.808   3.984  0.00  0.00    -0.344 N 
HETATM   12  N   UNK N   1      20.872  19.356   2.471  0.00  0.00    -0.332 N 
HETATM   13  H   UNK N   1      17.872  17.163  -0.785  0.00  0.00     0.153 HD
HETATM   14  H   UNK N   1      18.034  15.457  -0.540  0.00  0.00     0.153 HD
HETATM   15  H   UNK N   1      19.532  18.592   0.209  0.00  0.00     0.165 HD
HETATM   16  H   UNK N   1      18.569  15.005   1.761  0.00  0.00     0.160 HD
ENDROOT
BRANCH   6  17
HETATM   17  O   UNK N   1      19.790  15.292   3.942  0.00  0.00    -0.371 OA
HETATM   18  H   UNK N   1      18.951  15.471   4.395  0.00  0.00     0.212 HD
ENDBRANCH   6  17
TORSDOF 1
ENDMDL
MODEL 4
REMARK VINA RESULT:      -4.8     11.501     13.079
REMARK  1 active torsions:
REMARK  status: ('A' for Active; 'I' for Inactive)
REMARK    1  A    between atoms: C_6  and  O_13 
REMARK       I    between atoms: C_7  and  N_8 
ROOT
HETATM    1  C   UNK N   1      41.058  19.925   3.261  0.00  0.00     0.157 C 
HETATM    2  C   UNK N   1      40.881  24.276   0.857  0.00  0.00     0.158 C 
HETATM    3  C   UNK N   1      40.683  22.031   1.959  0.00  0.00     0.186 A 
HETATM    4  C   UNK N   1      42.627  21.852   2.884  0.00  0.00     0.105 A 
HETATM    5  C   UNK N   1      42.568  23.028   2.227  0.00  0.00     0.134 A 
HETATM    6  C   UNK N   1      43.846  21.422   3.636  0.00  0.00     0.271 C 
HETATM    7  C   UNK N   1      44.769  23.700   3.083  0.00  0.00     0.281 C 
HETATM    8  N   UNK N   1      45.941  24.301   2.474  0.00  0.00    -0.395 N 
HETATM    9  N   UNK N   1      43.617  23.961   2.235  0.00  0.00    -0.337 N 
HETATM   10  N   UNK N   1      45.013  22.249   3.248  0.00  0.00    -0.355 N 
HETATM   11  N   UNK N   1      41.446  21.221   2.731  0.00  0.00    -0.344 N 
HETATM   12  N   UNK N   1      41.366  23.156   1.642  0.00  0.00    -0.332 N 
HETATM   13  H   UNK N   1      45.974  24.936   1.676  0.00  0.00     0.153 HD
HETATM   14  H   UNK N   1      46.838  24.058   2.894  0.00  0.00     0.153 HD
HETATM   15  H   UNK N   1      43.575  24.773   1.679  0.00  0.00     0.165 HD
HETATM   16  H   UNK N   1      45.936  21.839   3.102  0.00  0.00     0.160 HD
ENDROOT
BRANCH   6  17
HETATM   17  O   UNK N   1      44.135  20.095   3.320  0.00  0.00    -0.371 OA
HETATM   18  H   UNK N   1      44.960  19.628   3.110  0.00  0.00     0.212 HD
ENDBRANCH   6  17
TORSDOF 1
ENDMDL
MODEL 5
REMARK VINA RESULT:      -4.8      5.795      8.170
REMARK  1 active torsions:
REMARK  status: ('A' for Active; 'I' for Inactive)
REMARK    1  A    between atoms: C_6  and  O_13 
REMARK       I    between atoms: C_7  and  N_8 
ROOT
HETATM    1  C   UNK N   1      36.055  10.687  13.483  0.00  0.00     0.157 C 
HETATM    2  C   UNK N   1      37.196  15.032  15.618  0.00  0.00     0.158 C 
HETATM    3  C   UNK N   1      36.700  12.709  14.813  0.00  0.00     0.186 A 
HETATM    4  C   UNK N   1      35.977  13.108  12.816  0.00  0.00     0.105 A 
HETATM    5  C   UNK N   1      36.289  14.280  13.406  0.00  0.00     0.134 A 
HETATM    6  C   UNK N   1      35.448  13.038  11.419  0.00  0.00     0.271 C 
HETATM    7  C   UNK N   1      35.849  15.523  11.335  0.00  0.00     0.281 C 
HETATM    8  N   UNK N   1      35.134  16.750  11.033  0.00  0.00    -0.395 N 
HETATM    9  N   UNK N   1      36.189  15.517  12.748  0.00  0.00    -0.337 N 
HETATM   10  N   UNK N   1      34.990  14.374  10.971  0.00  0.00    -0.355 N 
HETATM   11  N   UNK N   1      36.240  12.113  13.686  0.00  0.00    -0.344 N 
HETATM   12  N   UNK N   1      36.737  14.052  14.651  0.00  0.00    -0.332 N 
HETATM   13  H   UNK N   1      35.007  17.563  11.637  0.00  0.00     0.153 HD
HETATM   14  H   UNK N   1      34.707  16.805  10.109  0.00  0.00     0.153 HD
HETATM   15  H   UNK N   1      36.345  16.360  13.232  0.00  0.00     0.165 HD
HETATM   16  H   UNK N   1      34.128  14.495  10.439  0.00  0.00     0.160 HD
ENDROOT
BRANCH   6  17
HETATM   17  O   UNK N   1      34.353  12.175  11.389  0.00  0.00    -0.371 OA
HETATM   18  H   UNK N   1      33.394  12.320  11.424  0.00  0.00     0.212 HD
ENDBRANCH   6  17
TORSDOF 1
ENDMDL
MODEL 6
REMARK VINA RESULT:      -4.8     10.496     12.651
REMARK  1 active torsions:
REMARK  status: ('A' for Active; 'I' for Inactive)
REMARK    1  A    between atoms: C_6  and  O_13 
REMARK       I    between atoms: C_7  and  N_8 
ROOT
HETATM    1  C   UNK N   1      21.382  16.190   4.707  0.00  0.00     0.157 C 
HETATM    2  C   UNK N   1      24.377  20.071   3.869  0.00  0.00     0.158 C 
HETATM    3  C   UNK N   1      23.073  18.026   4.510  0.00  0.00     0.186 A 
HETATM    4  C   UNK N   1      21.346  18.219   3.226  0.00  0.00     0.105 A 
HETATM    5  C   UNK N   1      22.165  19.267   3.009  0.00  0.00     0.134 A 
HETATM    6  C   UNK N   1      20.055  18.053   2.489  0.00  0.00     0.271 C 
HETATM    7  C   UNK N   1      20.759  20.079   1.167  0.00  0.00     0.281 C 
HETATM    8  N   UNK N   1      20.252  21.386   0.792  0.00  0.00    -0.395 N 
HETATM    9  N   UNK N   1      21.902  20.256   2.046  0.00  0.00    -0.337 N 
HETATM   10  N   UNK N   1      19.670  19.321   1.826  0.00  0.00    -0.355 N 
HETATM   11  N   UNK N   1      21.909  17.427   4.159  0.00  0.00    -0.344 N 
HETATM   12  N   UNK N   1      23.244  19.167   3.801  0.00  0.00    -0.332 N 
HETATM   13  H   UNK N   1      20.683  22.296   0.963  0.00  0.00     0.153 HD
HETATM   14  H   UNK N   1      19.359  21.397   0.301  0.00  0.00     0.153 HD
HETATM   15  H   UNK N   1      22.478  21.052   1.970  0.00  0.00     0.165 HD
HETATM   16  H   UNK N   1      18.706  19.654   1.823  0.00  0.00     0.160 HD
ENDROOT
BRANCH   6  17
HETATM   17  O   UNK N   1      19.050  17.720   3.396  0.00  0.00    -0.371 OA
HETATM   18  H   UNK N   1      18.982  17.782   4.362  0.00  0.00     0.212 HD
ENDBRANCH   6  17
TORSDOF 1
ENDMDL
MODEL 7
REMARK VINA RESULT:      -4.8      9.644     11.462
REMARK  1 active torsions:
REMARK  status: ('A' for Active; 'I' for Inactive)
REMARK    1  A    between atoms: C_6  and  O_13 
REMARK       I    between atoms: C_7  and  N_8 
ROOT
HETATM    1  C   UNK N   1      18.623  17.155   8.898  0.00  0.00     0.157 C 
HETATM    2  C   UNK N   1      21.836  13.359   8.985  0.00  0.00     0.158 C 
HETATM    3  C   UNK N   1      20.065  15.125   9.172  0.00  0.00     0.186 A 
HETATM    4  C   UNK N   1      20.750  16.554   7.703  0.00  0.00     0.105 A 
HETATM    5  C   UNK N   1      21.614  15.520   7.736  0.00  0.00     0.134 A 
HETATM    6  C   UNK N   1      20.938  17.718   6.783  0.00  0.00     0.271 C 
HETATM    7  C   UNK N   1      22.887  16.429   5.843  0.00  0.00     0.281 C 
HETATM    8  N   UNK N   1      24.303  16.601   5.577  0.00  0.00    -0.395 N 
HETATM    9  N   UNK N   1      22.727  15.427   6.884  0.00  0.00    -0.337 N 
HETATM   10  N   UNK N   1      22.318  17.735   6.245  0.00  0.00    -0.355 N 
HETATM   11  N   UNK N   1      19.767  16.314   8.593  0.00  0.00    -0.344 N 
HETATM   12  N   UNK N   1      21.207  14.622   8.647  0.00  0.00    -0.332 N 
HETATM   13  H   UNK N   1      25.078  16.033   5.921  0.00  0.00     0.153 HD
HETATM   14  H   UNK N   1      24.554  17.385   4.975  0.00  0.00     0.153 HD
HETATM   15  H   UNK N   1      23.384  14.701   6.990  0.00  0.00     0.165 HD
HETATM   16  H   UNK N   1      22.849  18.602   6.156  0.00  0.00     0.160 HD
ENDROOT
BRANCH   6  17
HETATM   17  O   UNK N   1      20.739  18.901   7.495  0.00  0.00    -0.371 OA
HETATM   18  H   UNK N   1      20.774  19.838   7.246  0.00  0.00     0.212 HD
ENDBRANCH   6  17
TORSDOF 1
ENDMDL
MODEL 8
REMARK VINA RESULT:      -4.7     11.529     12.271
REMARK  1 active torsions:
REMARK  status: ('A' for Active; 'I' for Inactive)
REMARK    1  A    between atoms: C_6  and  O_13 
REMARK       I    between atoms: C_7  and  N_8 
ROOT
HETATM    1  C   UNK N   1      40.250  21.981  -0.126  0.00  0.00     0.157 C 
HETATM    2  C   UNK N   1      42.282  18.296   2.526  0.00  0.00     0.158 C 
HETATM    3  C   UNK N   1      41.086  19.934   1.049  0.00  0.00     0.186 A 
HETATM    4  C   UNK N   1      41.932  21.801   1.732  0.00  0.00     0.105 A 
HETATM    5  C   UNK N   1      42.474  20.794   2.445  0.00  0.00     0.134 A 
HETATM    6  C   UNK N   1      42.310  23.230   1.959  0.00  0.00     0.271 C 
HETATM    7  C   UNK N   1      44.015  22.331   3.581  0.00  0.00     0.281 C 
HETATM    8  N   UNK N   1      44.426  22.501   4.963  0.00  0.00    -0.395 N 
HETATM    9  N   UNK N   1      43.467  20.995   3.419  0.00  0.00    -0.337 N 
HETATM   10  N   UNK N   1      43.022  23.378   3.251  0.00  0.00    -0.355 N 
HETATM   11  N   UNK N   1      41.065  21.273   0.845  0.00  0.00    -0.344 N 
HETATM   12  N   UNK N   1      41.958  19.624   2.037  0.00  0.00    -0.332 N 
HETATM   13  H   UNK N   1      44.484  21.787   5.690  0.00  0.00     0.153 HD
HETATM   14  H   UNK N   1      44.686  23.447   5.240  0.00  0.00     0.153 HD
HETATM   15  H   UNK N   1      43.782  20.249   3.980  0.00  0.00     0.165 HD
HETATM   16  H   UNK N   1      42.837  24.160   3.879  0.00  0.00     0.160 HD
ENDROOT
BRANCH   6  17
HETATM   17  O   UNK N   1      41.153  24.006   2.015  0.00  0.00    -0.371 OA
HETATM   18  H   UNK N   1      40.275  23.860   2.403  0.00  0.00     0.212 HD
ENDBRANCH   6  17
TORSDOF 1
ENDMDL
MODEL 9
REMARK VINA RESULT:      -4.7     10.808     12.795
REMARK  1 active torsions:
REMARK  status: ('A' for Active; 'I' for Inactive)
REMARK    1  A    between atoms: C_6  and  O_13 
REMARK       I    between atoms: C_7  and  N_8 
ROOT
HETATM    1  C   UNK N   1      22.603  16.609   4.875  0.00  0.00     0.157 C 
HETATM    2  C   UNK N   1      19.711  15.799   0.910  0.00  0.00     0.158 C 
HETATM    3  C   UNK N   1      21.175  15.897   2.945  0.00  0.00     0.186 A 
HETATM    4  C   UNK N   1      21.523  18.024   3.101  0.00  0.00     0.105 A 
HETATM    5  C   UNK N   1      20.741  17.791   2.028  0.00  0.00     0.134 A 
HETATM    6  C   UNK N   1      21.950  19.403   3.490  0.00  0.00     0.271 C 
HETATM    7  C   UNK N   1      20.448  20.196   1.629  0.00  0.00     0.281 C 
HETATM    8  N   UNK N   1      20.503  21.030   0.443  0.00  0.00    -0.395 N 
HETATM    9  N   UNK N   1      20.226  18.819   1.221  0.00  0.00    -0.337 N 
HETATM   10  N   UNK N   1      21.718  20.351   2.374  0.00  0.00    -0.355 N 
HETATM   11  N   UNK N   1      21.795  16.843   3.691  0.00  0.00    -0.344 N 
HETATM   12  N   UNK N   1      20.516  16.473   1.912  0.00  0.00    -0.332 N 
HETATM   13  H   UNK N   1      20.275  20.768  -0.517  0.00  0.00     0.153 HD
HETATM   14  H   UNK N   1      20.805  21.993   0.585  0.00  0.00     0.153 HD
HETATM   15  H   UNK N   1      19.727  18.612   0.397  0.00  0.00     0.165 HD
HETATM   16  H   UNK N   1      22.398  21.072   2.133  0.00  0.00     0.160 HD
ENDROOT
BRANCH   6  17
HETATM   17  O   UNK N   1      23.315  19.397   3.772  0.00  0.00    -0.371 OA
HETATM   18  H   UNK N   1      23.831  19.125   4.548  0.00  0.00     0.212 HD
ENDBRANCH   6  17
TORSDOF 1
ENDMDL
