MODEL 1
REMARK VINA RESULT:      -6.4      0.000      0.000
REMARK  1 active torsions:
REMARK  status: ('A' for Active; 'I' for Inactive)
REMARK    1  A    between atoms: N_1  and  C_2 
ROOT
HETATM    1  C   UNK N   1      35.818  14.316  17.652  0.00  0.00     0.036 A 
HETATM    2  C   UNK N   1      36.670  15.413  17.806  0.00  0.00     0.030 A 
HETATM    3  C   UNK N   1      37.392  15.907  16.715  0.00  0.00     0.003 A 
HETATM    4  C   UNK N   1      37.268  15.307  15.459  0.00  0.00     0.012 A 
HETATM    5  C   UNK N   1      36.420  14.211  15.291  0.00  0.00    -0.023 A 
HETATM    6  C   UNK N   1      35.687  13.708  16.393  0.00  0.00     0.001 A 
HETATM    7  C   UNK N   1      34.838  12.608  16.218  0.00  0.00     0.027 A 
HETATM    8  C   UNK N   1      34.717  12.013  14.965  0.00  0.00    -0.025 A 
HETATM    9  C   UNK N   1      33.869  10.917  14.795  0.00  0.00     0.012 A 
HETATM   10  C   UNK N   1      33.747  10.320  13.538  0.00  0.00     0.001 A 
HETATM   11  C   UNK N   1      34.472  10.818  12.450  0.00  0.00     0.001 A 
HETATM   12  C   UNK N   1      35.323  11.916  12.613  0.00  0.00     0.012 A 
HETATM   13  C   UNK N   1      35.449  12.517  13.866  0.00  0.00    -0.025 A 
HETATM   14  C   UNK N   1      36.297  13.614  14.035  0.00  0.00     0.024 A 
ENDROOT
BRANCH   1  15
HETATM   15  N   UNK N   1      35.098  13.832  18.765  0.00  0.00    -0.398 N 
HETATM   16  H   UNK N   1      34.148  14.064  18.876  0.00  0.00     0.156 HD
HETATM   17  H   UNK N   1      35.547  13.262  19.431  0.00  0.00     0.156 HD
ENDBRANCH   1  15
TORSDOF 1
ENDMDL
MODEL 2
REMARK VINA RESULT:      -6.4      1.936      5.451
REMARK  1 active torsions:
REMARK  status: ('A' for Active; 'I' for Inactive)
REMARK    1  A    between atoms: N_1  and  C_2 
ROOT
HETATM    1  C   UNK N   1      35.601  11.801  12.637  0.00  0.00     0.036 A 
HETATM    2  C   UNK N   1      34.724  10.745  12.373  0.00  0.00     0.030 A 
HETATM    3  C   UNK N   1      33.831  10.304  13.355  0.00  0.00     0.003 A 
HETATM    4  C   UNK N   1      33.807  10.916  14.610  0.00  0.00     0.012 A 
HETATM    5  C   UNK N   1      34.678  11.972  14.887  0.00  0.00    -0.023 A 
HETATM    6  C   UNK N   1      35.583  12.421  13.896  0.00  0.00     0.001 A 
HETATM    7  C   UNK N   1      36.453  13.481  14.180  0.00  0.00     0.027 A 
HETATM    8  C   UNK N   1      36.427  14.088  15.433  0.00  0.00    -0.025 A 
HETATM    9  C   UNK N   1      37.297  15.145  15.711  0.00  0.00     0.012 A 
HETATM   10  C   UNK N   1      37.270  15.754  16.969  0.00  0.00     0.001 A 
HETATM   11  C   UNK N   1      36.374  15.309  17.947  0.00  0.00     0.001 A 
HETATM   12  C   UNK N   1      35.501  14.252  17.675  0.00  0.00     0.012 A 
HETATM   13  C   UNK N   1      35.523  13.639  16.421  0.00  0.00    -0.025 A 
HETATM   14  C   UNK N   1      34.652  12.582  16.143  0.00  0.00     0.024 A 
ENDROOT
BRANCH   1  15
HETATM   15  N   UNK N   1      36.494  12.231  11.633  0.00  0.00    -0.398 N 
HETATM   16  H   UNK N   1      37.262  11.669  11.382  0.00  0.00     0.156 HD
HETATM   17  H   UNK N   1      36.349  13.096  11.183  0.00  0.00     0.156 HD
ENDBRANCH   1  15
TORSDOF 1
ENDMDL
MODEL 3
REMARK VINA RESULT:      -6.3      2.480      4.754
REMARK  1 active torsions:
REMARK  status: ('A' for Active; 'I' for Inactive)
REMARK    1  A    between atoms: N_1  and  C_2 
ROOT
HETATM    1  C   UNK N   1      36.606  13.495  13.293  0.00  0.00     0.036 A 
HETATM    2  C   UNK N   1      37.052  12.771  12.183  0.00  0.00     0.030 A 
HETATM    3  C   UNK N   1      37.279  11.395  12.280  0.00  0.00     0.003 A 
HETATM    4  C   UNK N   1      37.061  10.729  13.489  0.00  0.00     0.012 A 
HETATM    5  C   UNK N   1      36.615  11.440  14.605  0.00  0.00    -0.023 A 
HETATM    6  C   UNK N   1      36.384  12.833  14.511  0.00  0.00     0.001 A 
HETATM    7  C   UNK N   1      35.937  13.540  15.634  0.00  0.00     0.027 A 
HETATM    8  C   UNK N   1      35.721  12.873  16.837  0.00  0.00    -0.025 A 
HETATM    9  C   UNK N   1      35.275  13.582  17.955  0.00  0.00     0.012 A 
HETATM   10  C   UNK N   1      35.058  12.912  19.162  0.00  0.00     0.001 A 
HETATM   11  C   UNK N   1      35.287  11.535  19.253  0.00  0.00     0.001 A 
HETATM   12  C   UNK N   1      35.733  10.819  18.138  0.00  0.00     0.012 A 
HETATM   13  C   UNK N   1      35.952  11.482  16.930  0.00  0.00    -0.025 A 
HETATM   14  C   UNK N   1      36.398  10.772  15.812  0.00  0.00     0.024 A 
ENDROOT
BRANCH   1  15
HETATM   15  N   UNK N   1      36.382  14.883  13.175  0.00  0.00    -0.398 N 
HETATM   16  H   UNK N   1      35.570  15.215  12.730  0.00  0.00     0.156 HD
HETATM   17  H   UNK N   1      37.041  15.519  13.538  0.00  0.00     0.156 HD
ENDBRANCH   1  15
TORSDOF 1
ENDMDL
MODEL 4
REMARK VINA RESULT:      -6.3     11.375     12.558
REMARK  1 active torsions:
REMARK  status: ('A' for Active; 'I' for Inactive)
REMARK    1  A    between atoms: N_1  and  C_2 
ROOT
HETATM    1  C   UNK N   1      30.110  17.617   8.814  0.00  0.00     0.036 A 
HETATM    2  C   UNK N   1      31.072  16.605   8.741  0.00  0.00     0.030 A 
HETATM    3  C   UNK N   1      31.394  16.022   7.511  0.00  0.00     0.003 A 
HETATM    4  C   UNK N   1      30.757  16.448   6.343  0.00  0.00     0.012 A 
HETATM    5  C   UNK N   1      29.795  17.458   6.402  0.00  0.00    -0.023 A 
HETATM    6  C   UNK N   1      29.466  18.050   7.645  0.00  0.00     0.001 A 
HETATM    7  C   UNK N   1      28.500  19.063   7.697  0.00  0.00     0.027 A 
HETATM    8  C   UNK N   1      27.868  19.485   6.531  0.00  0.00    -0.025 A 
HETATM    9  C   UNK N   1      26.905  20.495   6.588  0.00  0.00     0.012 A 
HETATM   10  C   UNK N   1      26.271  20.917   5.417  0.00  0.00     0.001 A 
HETATM   11  C   UNK N   1      26.597  20.331   4.189  0.00  0.00     0.001 A 
HETATM   12  C   UNK N   1      27.559  19.319   4.125  0.00  0.00     0.012 A 
HETATM   13  C   UNK N   1      28.197  18.892   5.290  0.00  0.00    -0.025 A 
HETATM   14  C   UNK N   1      29.160  17.882   5.233  0.00  0.00     0.024 A 
ENDROOT
BRANCH   1  15
HETATM   15  N   UNK N   1      29.799  18.193  10.065  0.00  0.00    -0.398 N 
HETATM   16  H   UNK N   1      29.579  19.150  10.126  0.00  0.00     0.156 HD
HETATM   17  H   UNK N   1      29.803  17.635  10.877  0.00  0.00     0.156 HD
ENDBRANCH   1  15
TORSDOF 1
ENDMDL
MODEL 5
REMARK VINA RESULT:      -6.2      1.852      3.226
REMARK  1 active torsions:
REMARK  status: ('A' for Active; 'I' for Inactive)
REMARK    1  A    between atoms: N_1  and  C_2 
ROOT
HETATM    1  C   UNK N   1      35.286  13.222  18.529  0.00  0.00     0.036 A 
HETATM    2  C   UNK N   1      35.313  12.656  19.806  0.00  0.00     0.030 A 
HETATM    3  C   UNK N   1      35.193  11.272  19.969  0.00  0.00     0.003 A 
HETATM    4  C   UNK N   1      35.044  10.442  18.855  0.00  0.00     0.012 A 
HETATM    5  C   UNK N   1      35.016  10.995  17.573  0.00  0.00    -0.023 A 
HETATM    6  C   UNK N   1      35.137  12.395  17.404  0.00  0.00     0.001 A 
HETATM    7  C   UNK N   1      35.108  12.944  16.116  0.00  0.00     0.027 A 
HETATM    8  C   UNK N   1      34.960  12.114  15.008  0.00  0.00    -0.025 A 
HETATM    9  C   UNK N   1      34.931  12.665  13.725  0.00  0.00     0.012 A 
HETATM   10  C   UNK N   1      34.783  11.832  12.614  0.00  0.00     0.001 A 
HETATM   11  C   UNK N   1      34.663  10.448  12.783  0.00  0.00     0.001 A 
HETATM   12  C   UNK N   1      34.691   9.889  14.064  0.00  0.00     0.012 A 
HETATM   13  C   UNK N   1      34.839  10.716  15.179  0.00  0.00    -0.025 A 
HETATM   14  C   UNK N   1      34.868  10.164  16.462  0.00  0.00     0.024 A 
ENDROOT
BRANCH   1  15
HETATM   15  N   UNK N   1      35.409  14.621  18.385  0.00  0.00    -0.398 N 
HETATM   16  H   UNK N   1      36.112  15.107  18.873  0.00  0.00     0.156 HD
HETATM   17  H   UNK N   1      34.790  15.111  17.795  0.00  0.00     0.156 HD
ENDBRANCH   1  15
TORSDOF 1
ENDMDL
MODEL 6
REMARK VINA RESULT:      -6.2      2.389      5.387
REMARK  1 active torsions:
REMARK  status: ('A' for Active; 'I' for Inactive)
REMARK    1  A    between atoms: N_1  and  C_2 
ROOT
HETATM    1  C   UNK N   1      34.874  11.909  13.188  0.00  0.00     0.036 A 
HETATM    2  C   UNK N   1      34.884  10.823  12.308  0.00  0.00     0.030 A 
HETATM    3  C   UNK N   1      35.012   9.519  12.795  0.00  0.00     0.003 A 
HETATM    4  C   UNK N   1      35.132   9.289  14.168  0.00  0.00     0.012 A 
HETATM    5  C   UNK N   1      35.124  10.365  15.058  0.00  0.00    -0.023 A 
HETATM    6  C   UNK N   1      34.994  11.686  14.569  0.00  0.00     0.001 A 
HETATM    7  C   UNK N   1      34.987  12.761  15.467  0.00  0.00     0.027 A 
HETATM    8  C   UNK N   1      35.107  12.528  16.834  0.00  0.00    -0.025 A 
HETATM    9  C   UNK N   1      35.099  13.602  17.726  0.00  0.00     0.012 A 
HETATM   10  C   UNK N   1      35.219  13.368  19.098  0.00  0.00     0.001 A 
HETATM   11  C   UNK N   1      35.347  12.060  19.580  0.00  0.00     0.001 A 
HETATM   12  C   UNK N   1      35.356  10.980  18.692  0.00  0.00     0.012 A 
HETATM   13  C   UNK N   1      35.236  11.207  17.321  0.00  0.00    -0.025 A 
HETATM   14  C   UNK N   1      35.244  10.132  16.429  0.00  0.00     0.024 A 
ENDROOT
BRANCH   1  15
HETATM   15  N   UNK N   1      34.744  13.218  12.677  0.00  0.00    -0.398 N 
HETATM   16  H   UNK N   1      33.852  13.619  12.570  0.00  0.00     0.156 HD
HETATM   17  H   UNK N   1      35.548  13.731  12.428  0.00  0.00     0.156 HD
ENDBRANCH   1  15
TORSDOF 1
ENDMDL
MODEL 7
REMARK VINA RESULT:      -6.2     11.780     13.032
REMARK  1 active torsions:
REMARK  status: ('A' for Active; 'I' for Inactive)
REMARK    1  A    between atoms: N_1  and  C_2 
ROOT
HETATM    1  C   UNK N   1      26.736  20.396   6.555  0.00  0.00     0.036 A 
HETATM    2  C   UNK N   1      26.156  20.851   5.367  0.00  0.00     0.030 A 
HETATM    3  C   UNK N   1      26.590  20.358   4.133  0.00  0.00     0.003 A 
HETATM    4  C   UNK N   1      27.609  19.404   4.076  0.00  0.00     0.012 A 
HETATM    5  C   UNK N   1      28.197  18.941   5.255  0.00  0.00    -0.023 A 
HETATM    6  C   UNK N   1      27.761  19.438   6.506  0.00  0.00     0.001 A 
HETATM    7  C   UNK N   1      28.355  18.969   7.685  0.00  0.00     0.027 A 
HETATM    8  C   UNK N   1      29.370  18.019   7.624  0.00  0.00    -0.025 A 
HETATM    9  C   UNK N   1      29.959  17.554   8.801  0.00  0.00     0.012 A 
HETATM   10  C   UNK N   1      30.978  16.600   8.739  0.00  0.00     0.001 A 
HETATM   11  C   UNK N   1      31.409  16.110   7.502  0.00  0.00     0.001 A 
HETATM   12  C   UNK N   1      30.823  16.570   6.319  0.00  0.00     0.012 A 
HETATM   13  C   UNK N   1      29.805  17.523   6.373  0.00  0.00    -0.025 A 
HETATM   14  C   UNK N   1      29.215  17.987   5.195  0.00  0.00     0.024 A 
ENDROOT
BRANCH   1  15
HETATM   15  N   UNK N   1      26.284  20.907   7.791  0.00  0.00    -0.398 N 
HETATM   16  H   UNK N   1      26.021  20.291   8.512  0.00  0.00     0.156 HD
HETATM   17  H   UNK N   1      26.233  21.880   7.931  0.00  0.00     0.156 HD
ENDBRANCH   1  15
TORSDOF 1
ENDMDL
MODEL 8
REMARK VINA RESULT:      -6.1     10.455     12.104
REMARK  1 active torsions:
REMARK  status: ('A' for Active; 'I' for Inactive)
REMARK    1  A    between atoms: N_1  and  C_2 
ROOT
HETATM    1  C   UNK N   1      30.911  16.883   3.646  0.00  0.00     0.036 A 
HETATM    2  C   UNK N   1      32.158  16.658   3.053  0.00  0.00     0.030 A 
HETATM    3  C   UNK N   1      33.324  16.689   3.824  0.00  0.00     0.003 A 
HETATM    4  C   UNK N   1      33.254  16.946   5.196  0.00  0.00     0.012 A 
HETATM    5  C   UNK N   1      32.016  17.173   5.800  0.00  0.00    -0.023 A 
HETATM    6  C   UNK N   1      30.833  17.142   5.024  0.00  0.00     0.001 A 
HETATM    7  C   UNK N   1      29.595  17.371   5.636  0.00  0.00     0.027 A 
HETATM    8  C   UNK N   1      29.529  17.626   7.003  0.00  0.00    -0.025 A 
HETATM    9  C   UNK N   1      28.292  17.853   7.609  0.00  0.00     0.012 A 
HETATM   10  C   UNK N   1      28.227  18.110   8.981  0.00  0.00     0.001 A 
HETATM   11  C   UNK N   1      29.397  18.140   9.748  0.00  0.00     0.001 A 
HETATM   12  C   UNK N   1      30.639  17.914   9.147  0.00  0.00     0.012 A 
HETATM   13  C   UNK N   1      30.711  17.657   7.777  0.00  0.00    -0.025 A 
HETATM   14  C   UNK N   1      31.949  17.430   7.171  0.00  0.00     0.024 A 
ENDROOT
BRANCH   1  15
HETATM   15  N   UNK N   1      29.746  16.847   2.851  0.00  0.00    -0.398 N 
HETATM   16  H   UNK N   1      28.905  16.500   3.225  0.00  0.00     0.156 HD
HETATM   17  H   UNK N   1      29.775  17.171   1.921  0.00  0.00     0.156 HD
ENDBRANCH   1  15
TORSDOF 1
ENDMDL
MODEL 9
REMARK VINA RESULT:      -6.0     16.393     17.606
REMARK  1 active torsions:
REMARK  status: ('A' for Active; 'I' for Inactive)
REMARK    1  A    between atoms: N_1  and  C_2 
ROOT
HETATM    1  C   UNK N   1      26.049  18.174   4.987  0.00  0.00     0.036 A 
HETATM    2  C   UNK N   1      27.330  18.716   4.849  0.00  0.00     0.030 A 
HETATM    3  C   UNK N   1      27.533  19.865   4.078  0.00  0.00     0.003 A 
HETATM    4  C   UNK N   1      26.456  20.483   3.438  0.00  0.00     0.012 A 
HETATM    5  C   UNK N   1      25.171  19.951   3.567  0.00  0.00    -0.023 A 
HETATM    6  C   UNK N   1      24.961  18.789   4.346  0.00  0.00     0.001 A 
HETATM    7  C   UNK N   1      23.670  18.261   4.472  0.00  0.00     0.027 A 
HETATM    8  C   UNK N   1      22.599  18.879   3.833  0.00  0.00    -0.025 A 
HETATM    9  C   UNK N   1      21.313  18.349   3.961  0.00  0.00     0.012 A 
HETATM   10  C   UNK N   1      20.239  18.970   3.319  0.00  0.00     0.001 A 
HETATM   11  C   UNK N   1      20.447  20.119   2.549  0.00  0.00     0.001 A 
HETATM   12  C   UNK N   1      21.732  20.655   2.416  0.00  0.00     0.012 A 
HETATM   13  C   UNK N   1      22.810  20.040   3.055  0.00  0.00    -0.025 A 
HETATM   14  C   UNK N   1      24.096  20.570   2.926  0.00  0.00     0.024 A 
ENDROOT
BRANCH   1  15
HETATM   15  N   UNK N   1      25.864  17.014   5.769  0.00  0.00    -0.398 N 
HETATM   16  H   UNK N   1      26.452  16.235   5.641  0.00  0.00     0.156 HD
HETATM   17  H   UNK N   1      25.147  16.985   6.443  0.00  0.00     0.156 HD
ENDBRANCH   1  15
TORSDOF 1
ENDMDL
