MODEL 1
REMARK VINA RESULT:      -9.4      0.000      0.000
REMARK  13 active torsions:
REMARK  status: ('A' for Active; 'I' for Inactive)
REMARK    1  A    between atoms: C_29  and  C_19 
REMARK    2  A    between atoms: C_30  and  C_19 
REMARK    3  A    between atoms: O_44  and  C_24 
REMARK    4  A    between atoms: S_45  and  C_25 
REMARK    5  A    between atoms: S_46  and  C_26 
REMARK    6  A    between atoms: C_31  and  C_27 
REMARK    7  A    between atoms: N_33  and  C_28 
REMARK    8  A    between atoms: C_32  and  C_29 
REMARK    9  A    between atoms: C_29  and  N_34 
REMARK   10  A    between atoms: O_36  and  C_30 
REMARK       I    between atoms: N_34  and  C_31 
REMARK   11  A    between atoms: O_39  and  C_32 
REMARK   12  A    between atoms: S_45  and  N_33 
REMARK   13  A    between atoms: S_46  and  O_44 
ROOT
HETATM    1  C   UNK N   1      20.460  16.509   1.701  0.00  0.00     0.040 A 
HETATM    2  C   UNK N   1      20.204  15.257   2.239  0.00  0.00     0.034 A 
HETATM    3  C   UNK N   1      19.814  17.531   3.798  0.00  0.00     0.057 A 
HETATM    4  C   UNK N   1      20.248  17.645   2.477  0.00  0.00     0.090 A 
HETATM    5  C   UNK N   1      19.530  16.285   4.350  0.00  0.00     0.062 A 
HETATM    6  C   UNK N   1      19.703  15.137   3.538  0.00  0.00     0.058 A 
ENDROOT
BRANCH   6   7
HETATM    7  N   UNK N   1      19.525  13.856   4.060  0.00  0.00    -0.280 N 
HETATM    8  H   UNK N   1      18.710  13.625   4.562  0.00  0.00     0.179 HD
BRANCH   7   9
HETATM    9  S   UNK N   1      20.780  12.672   3.802  0.00  0.00     0.263 S 
HETATM   10  O   UNK N   1      20.443  12.017   2.452  0.00  0.00    -0.200 OA
HETATM   11  O   UNK N   1      20.528  11.567   4.839  0.00  0.00    -0.200 OA
BRANCH   9  12
HETATM   12  C   UNK N   1      22.352  13.459   3.835  0.00  0.00     0.080 A 
HETATM   13  C   UNK N   1      22.925  13.737   5.077  0.00  0.00     0.026 A 
HETATM   14  C   UNK N   1      24.173  14.345   5.152  0.00  0.00     0.014 A 
HETATM   15  C   UNK N   1      24.850  14.676   3.982  0.00  0.00    -0.026 A 
HETATM   16  C   UNK N   1      26.103  15.283   4.054  0.00  0.00     0.012 A 
HETATM   17  C   UNK N   1      24.269  14.395   2.722  0.00  0.00    -0.025 A 
HETATM   18  C   UNK N   1      26.781  15.614   2.880  0.00  0.00     0.001 A 
HETATM   19  C   UNK N   1      26.208  15.337   1.633  0.00  0.00     0.001 A 
HETATM   20  C   UNK N   1      24.952  14.728   1.554  0.00  0.00     0.012 A 
HETATM   21  C   UNK N   1      23.017  13.785   2.654  0.00  0.00     0.037 A 
ENDBRANCH   9  12
ENDBRANCH   7   9
ENDBRANCH   6   7
BRANCH   5  22
HETATM   22  C   UNK N   1      19.042  16.262   5.759  0.00  0.00     0.256 C 
HETATM   23  N   UNK N   1      19.890  16.404   6.833  0.00  0.00    -0.337 N 
HETATM   24  C   UNK N   1      21.307  16.604   6.597  0.00  0.00     0.154 C 
HETATM   25  O   UNK N   1      17.869  15.958   5.950  0.00  0.00    -0.267 OA
BRANCH  23  26
HETATM   26  C   UNK N   1      19.430  16.183   8.213  0.00  0.00     0.194 C 
BRANCH  26  27
HETATM   27  C   UNK N   1      20.545  15.479   9.010  0.00  0.00     0.146 C 
BRANCH  27  28
HETATM   28  C   UNK N   1      20.426  13.980   9.144  0.00  0.00     0.141 C 
HETATM   29  O   UNK N   1      20.014  13.505  10.189  0.00  0.00    -0.650 OA
BRANCH  28  30
HETATM   30  O   UNK N   1      20.754  13.157   8.128  0.00  0.00    -0.776 OA
HETATM   31  H   UNK N   1      20.484  12.265   8.040  0.00  0.00     0.167 HD
ENDBRANCH  28  30
ENDBRANCH  27  28
ENDBRANCH  26  27
BRANCH  26  32
HETATM   32  C   UNK N   1      19.031  17.477   8.880  0.00  0.00     0.164 C 
HETATM   33  O   UNK N   1      19.882  18.265   9.263  0.00  0.00    -0.648 OA
BRANCH  32  34
HETATM   34  O   UNK N   1      17.730  17.745   9.101  0.00  0.00    -0.775 OA
HETATM   35  H   UNK N   1      17.222  18.522   8.980  0.00  0.00     0.167 HD
ENDBRANCH  32  34
ENDBRANCH  26  32
ENDBRANCH  23  26
ENDBRANCH   5  22
BRANCH   4  36
HETATM   36  O   UNK N   1      20.268  18.844   1.891  0.00  0.00    -0.229 OA
BRANCH  36  37
HETATM   37  S   UNK N   1      21.185  20.041   2.666  0.00  0.00     0.303 S 
HETATM   38  O   UNK N   1      20.247  20.584   3.760  0.00  0.00    -0.193 OA
HETATM   39  O   UNK N   1      21.231  21.240   1.711  0.00  0.00    -0.193 OA
BRANCH  37  40
HETATM   40  C   UNK N   1      22.759  19.620   3.393  0.00  0.00     0.087 A 
HETATM   41  C   UNK N   1      22.837  18.582   4.323  0.00  0.00     0.027 A 
HETATM   42  C   UNK N   1      24.069  18.221   4.872  0.00  0.00     0.014 A 
HETATM   43  C   UNK N   1      25.229  18.899   4.490  0.00  0.00    -0.026 A 
HETATM   44  C   UNK N   1      26.464  18.531   5.027  0.00  0.00     0.012 A 
HETATM   45  C   UNK N   1      25.152  19.955   3.554  0.00  0.00    -0.025 A 
HETATM   46  C   UNK N   1      27.624  19.207   4.636  0.00  0.00     0.001 A 
HETATM   47  C   UNK N   1      27.549  20.253   3.709  0.00  0.00     0.001 A 
HETATM   48  C   UNK N   1      26.315  20.628   3.168  0.00  0.00     0.012 A 
HETATM   49  C   UNK N   1      23.916  20.311   3.008  0.00  0.00     0.038 A 
ENDBRANCH  37  40
ENDBRANCH  36  37
ENDBRANCH   4  36
TORSDOF 13
ENDMDL
MODEL 2
REMARK VINA RESULT:      -9.0      1.280      5.255
REMARK  13 active torsions:
REMARK  status: ('A' for Active; 'I' for Inactive)
REMARK    1  A    between atoms: C_29  and  C_19 
REMARK    2  A    between atoms: C_30  and  C_19 
REMARK    3  A    between atoms: O_44  and  C_24 
REMARK    4  A    between atoms: S_45  and  C_25 
REMARK    5  A    between atoms: S_46  and  C_26 
REMARK    6  A    between atoms: C_31  and  C_27 
REMARK    7  A    between atoms: N_33  and  C_28 
REMARK    8  A    between atoms: C_32  and  C_29 
REMARK    9  A    between atoms: C_29  and  N_34 
REMARK   10  A    between atoms: O_36  and  C_30 
REMARK       I    between atoms: N_34  and  C_31 
REMARK   11  A    between atoms: O_39  and  C_32 
REMARK   12  A    between atoms: S_45  and  N_33 
REMARK   13  A    between atoms: S_46  and  O_44 
ROOT
HETATM    1  C   UNK N   1      20.483  15.672   1.668  0.00  0.00     0.040 A 
HETATM    2  C   UNK N   1      20.631  16.906   2.282  0.00  0.00     0.034 A 
HETATM    3  C   UNK N   1      19.538  14.780   3.710  0.00  0.00     0.057 A 
HETATM    4  C   UNK N   1      19.952  14.607   2.389  0.00  0.00     0.090 A 
HETATM    5  C   UNK N   1      19.699  16.005   4.352  0.00  0.00     0.062 A 
HETATM    6  C   UNK N   1      20.284  17.071   3.625  0.00  0.00     0.058 A 
ENDROOT
BRANCH   6   7
HETATM    7  N   UNK N   1      20.387  18.347   4.181  0.00  0.00    -0.280 N 
HETATM    8  H   UNK N   1      20.090  18.521   5.103  0.00  0.00     0.179 HD
BRANCH   7   9
HETATM    9  S   UNK N   1      21.055  19.627   3.203  0.00  0.00     0.263 S 
HETATM   10  O   UNK N   1      20.385  20.915   3.713  0.00  0.00    -0.200 OA
HETATM   11  O   UNK N   1      20.472  19.422   1.796  0.00  0.00    -0.200 OA
BRANCH   9  12
HETATM   12  C   UNK N   1      22.808  19.635   3.352  0.00  0.00     0.080 A 
HETATM   13  C   UNK N   1      23.521  20.638   2.694  0.00  0.00     0.026 A 
HETATM   14  C   UNK N   1      24.906  20.693   2.795  0.00  0.00     0.014 A 
HETATM   15  C   UNK N   1      25.580  19.742   3.555  0.00  0.00    -0.026 A 
HETATM   16  C   UNK N   1      26.969  19.795   3.661  0.00  0.00     0.012 A 
HETATM   17  C   UNK N   1      24.857  18.723   4.222  0.00  0.00    -0.025 A 
HETATM   18  C   UNK N   1      27.644  18.841   4.425  0.00  0.00     0.001 A 
HETATM   19  C   UNK N   1      26.930  17.833   5.084  0.00  0.00     0.001 A 
HETATM   20  C   UNK N   1      25.537  17.774   4.983  0.00  0.00     0.012 A 
HETATM   21  C   UNK N   1      23.467  18.674   4.117  0.00  0.00     0.037 A 
ENDBRANCH   9  12
ENDBRANCH   7   9
ENDBRANCH   6   7
BRANCH   5  22
HETATM   22  C   UNK N   1      19.256  16.090   5.774  0.00  0.00     0.256 C 
HETATM   23  N   UNK N   1      20.147  16.095   6.822  0.00  0.00    -0.337 N 
HETATM   24  C   UNK N   1      21.569  16.036   6.546  0.00  0.00     0.154 C 
HETATM   25  O   UNK N   1      18.054  16.002   6.001  0.00  0.00    -0.267 OA
BRANCH  23  26
HETATM   26  C   UNK N   1      19.694  15.979   8.219  0.00  0.00     0.194 C 
BRANCH  26  27
HETATM   27  C   UNK N   1      20.841  15.407   9.074  0.00  0.00     0.146 C 
BRANCH  27  28
HETATM   28  C   UNK N   1      20.558  14.107   9.787  0.00  0.00     0.141 C 
HETATM   29  O   UNK N   1      19.402  13.775   9.986  0.00  0.00    -0.650 OA
BRANCH  28  30
HETATM   30  O   UNK N   1      21.557  13.300  10.196  0.00  0.00    -0.776 OA
HETATM   31  H   UNK N   1      22.358  13.581  10.592  0.00  0.00     0.167 HD
ENDBRANCH  28  30
ENDBRANCH  27  28
ENDBRANCH  26  27
BRANCH  26  32
HETATM   32  C   UNK N   1      19.231  17.308   8.764  0.00  0.00     0.164 C 
HETATM   33  O   UNK N   1      20.040  18.125   9.177  0.00  0.00    -0.648 OA
BRANCH  32  34
HETATM   34  O   UNK N   1      17.915  17.578   8.845  0.00  0.00    -0.775 OA
HETATM   35  H   UNK N   1      17.191  17.326   8.307  0.00  0.00     0.167 HD
ENDBRANCH  32  34
ENDBRANCH  26  32
ENDBRANCH  23  26
ENDBRANCH   5  22
BRANCH   4  36
HETATM   36  O   UNK N   1      20.028  13.376   1.879  0.00  0.00    -0.229 OA
BRANCH  36  37
HETATM   37  S   UNK N   1      21.518  12.585   2.054  0.00  0.00     0.303 S 
HETATM   38  O   UNK N   1      22.196  12.753   0.682  0.00  0.00    -0.193 OA
HETATM   39  O   UNK N   1      21.215  11.081   2.039  0.00  0.00    -0.193 OA
BRANCH  37  40
HETATM   40  C   UNK N   1      22.646  13.093   3.338  0.00  0.00     0.087 A 
HETATM   41  C   UNK N   1      23.601  14.076   3.071  0.00  0.00     0.027 A 
HETATM   42  C   UNK N   1      24.467  14.507   4.077  0.00  0.00     0.014 A 
HETATM   43  C   UNK N   1      24.379  13.956   5.358  0.00  0.00    -0.026 A 
HETATM   44  C   UNK N   1      25.235  14.394   6.370  0.00  0.00     0.012 A 
HETATM   45  C   UNK N   1      23.418  12.956   5.630  0.00  0.00    -0.025 A 
HETATM   46  C   UNK N   1      25.138  13.845   7.653  0.00  0.00     0.001 A 
HETATM   47  C   UNK N   1      24.187  12.856   7.923  0.00  0.00     0.001 A 
HETATM   48  C   UNK N   1      23.327  12.410   6.913  0.00  0.00     0.012 A 
HETATM   49  C   UNK N   1      22.555  12.529   4.617  0.00  0.00     0.038 A 
ENDBRANCH  37  40
ENDBRANCH  36  37
ENDBRANCH   4  36
TORSDOF 13
ENDMDL
MODEL 3
REMARK VINA RESULT:      -9.0      1.549      2.808
REMARK  13 active torsions:
REMARK  status: ('A' for Active; 'I' for Inactive)
REMARK    1  A    between atoms: C_29  and  C_19 
REMARK    2  A    between atoms: C_30  and  C_19 
REMARK    3  A    between atoms: O_44  and  C_24 
REMARK    4  A    between atoms: S_45  and  C_25 
REMARK    5  A    between atoms: S_46  and  C_26 
REMARK    6  A    between atoms: C_31  and  C_27 
REMARK    7  A    between atoms: N_33  and  C_28 
REMARK    8  A    between atoms: C_32  and  C_29 
REMARK    9  A    between atoms: C_29  and  N_34 
REMARK   10  A    between atoms: O_36  and  C_30 
REMARK       I    between atoms: N_34  and  C_31 
REMARK   11  A    between atoms: O_39  and  C_32 
REMARK   12  A    between atoms: S_45  and  N_33 
REMARK   13  A    between atoms: S_46  and  O_44 
ROOT
HETATM    1  C   UNK N   1      20.701  16.667   1.734  0.00  0.00     0.040 A 
HETATM    2  C   UNK N   1      20.544  15.400   2.277  0.00  0.00     0.034 A 
HETATM    3  C   UNK N   1      19.932  17.641   3.812  0.00  0.00     0.057 A 
HETATM    4  C   UNK N   1      20.378  17.784   2.498  0.00  0.00     0.090 A 
HETATM    5  C   UNK N   1      19.747  16.377   4.368  0.00  0.00     0.062 A 
HETATM    6  C   UNK N   1      20.033  15.244   3.568  0.00  0.00     0.058 A 
ENDROOT
BRANCH   6   7
HETATM    7  N   UNK N   1      19.957  13.955   4.096  0.00  0.00    -0.280 N 
HETATM    8  H   UNK N   1      19.139  13.641   4.543  0.00  0.00     0.179 HD
BRANCH   7   9
HETATM    9  S   UNK N   1      21.348  12.913   3.944  0.00  0.00     0.263 S 
HETATM   10  O   UNK N   1      22.025  13.335   2.629  0.00  0.00    -0.200 OA
HETATM   11  O   UNK N   1      20.787  11.511   3.656  0.00  0.00    -0.200 OA
BRANCH   9  12
HETATM   12  C   UNK N   1      22.378  13.089   5.359  0.00  0.00     0.080 A 
HETATM   13  C   UNK N   1      23.171  14.233   5.458  0.00  0.00     0.026 A 
HETATM   14  C   UNK N   1      23.990  14.423   6.565  0.00  0.00     0.014 A 
HETATM   15  C   UNK N   1      24.017  13.467   7.576  0.00  0.00    -0.026 A 
HETATM   16  C   UNK N   1      24.835  13.655   8.688  0.00  0.00     0.012 A 
HETATM   17  C   UNK N   1      23.213  12.306   7.475  0.00  0.00    -0.025 A 
HETATM   18  C   UNK N   1      24.859  12.695   9.701  0.00  0.00     0.001 A 
HETATM   19  C   UNK N   1      24.065  11.546   9.603  0.00  0.00     0.001 A 
HETATM   20  C   UNK N   1      23.242  11.351   8.490  0.00  0.00     0.012 A 
HETATM   21  C   UNK N   1      22.393  12.121   6.361  0.00  0.00     0.037 A 
ENDBRANCH   9  12
ENDBRANCH   7   9
ENDBRANCH   6   7
BRANCH   5  22
HETATM   22  C   UNK N   1      19.238  16.320   5.769  0.00  0.00     0.256 C 
HETATM   23  N   UNK N   1      20.015  16.674   6.848  0.00  0.00    -0.337 N 
HETATM   24  C   UNK N   1      21.370  17.141   6.625  0.00  0.00     0.154 C 
HETATM   25  O   UNK N   1      18.144  15.798   5.956  0.00  0.00    -0.267 OA
BRANCH  23  26
HETATM   26  C   UNK N   1      19.573  16.427   8.230  0.00  0.00     0.194 C 
BRANCH  26  27
HETATM   27  C   UNK N   1      20.743  15.829   9.034  0.00  0.00     0.146 C 
BRANCH  27  28
HETATM   28  C   UNK N   1      20.767  14.325   9.160  0.00  0.00     0.141 C 
HETATM   29  O   UNK N   1      21.337  13.814  10.110  0.00  0.00    -0.650 OA
BRANCH  28  30
HETATM   30  O   UNK N   1      20.162  13.535   8.251  0.00  0.00    -0.776 OA
HETATM   31  H   UNK N   1      20.580  13.123   7.521  0.00  0.00     0.167 HD
ENDBRANCH  28  30
ENDBRANCH  27  28
ENDBRANCH  26  27
BRANCH  26  32
HETATM   32  C   UNK N   1      19.063  17.689   8.884  0.00  0.00     0.164 C 
HETATM   33  O   UNK N   1      19.844  18.539   9.283  0.00  0.00    -0.648 OA
BRANCH  32  34
HETATM   34  O   UNK N   1      17.742  17.857   9.077  0.00  0.00    -0.775 OA
HETATM   35  H   UNK N   1      17.255  18.516   9.530  0.00  0.00     0.167 HD
ENDBRANCH  32  34
ENDBRANCH  26  32
ENDBRANCH  23  26
ENDBRANCH   5  22
BRANCH   4  36
HETATM   36  O   UNK N   1      20.303  18.976   1.903  0.00  0.00    -0.229 OA
BRANCH  36  37
HETATM   37  S   UNK N   1      21.248  20.210   2.582  0.00  0.00     0.303 S 
HETATM   38  O   UNK N   1      20.483  20.611   3.857  0.00  0.00    -0.193 OA
HETATM   39  O   UNK N   1      21.025  21.456   1.715  0.00  0.00    -0.193 OA
BRANCH  37  40
HETATM   40  C   UNK N   1      22.955  19.897   2.992  0.00  0.00     0.087 A 
HETATM   41  C   UNK N   1      23.947  20.769   2.538  0.00  0.00     0.027 A 
HETATM   42  C   UNK N   1      25.283  20.553   2.881  0.00  0.00     0.014 A 
HETATM   43  C   UNK N   1      25.631  19.463   3.683  0.00  0.00    -0.026 A 
HETATM   44  C   UNK N   1      26.964  19.253   4.040  0.00  0.00     0.012 A 
HETATM   45  C   UNK N   1      24.630  18.575   4.139  0.00  0.00    -0.025 A 
HETATM   46  C   UNK N   1      27.307  18.165   4.849  0.00  0.00     0.001 A 
HETATM   47  C   UNK N   1      26.317  17.286   5.300  0.00  0.00     0.001 A 
HETATM   48  C   UNK N   1      24.979  17.489   4.946  0.00  0.00     0.012 A 
HETATM   49  C   UNK N   1      23.295  18.797   3.791  0.00  0.00     0.038 A 
ENDBRANCH  37  40
ENDBRANCH  36  37
ENDBRANCH   4  36
TORSDOF 13
ENDMDL
MODEL 4
REMARK VINA RESULT:      -8.9      1.065      4.911
REMARK  13 active torsions:
REMARK  status: ('A' for Active; 'I' for Inactive)
REMARK    1  A    between atoms: C_29  and  C_19 
REMARK    2  A    between atoms: C_30  and  C_19 
REMARK    3  A    between atoms: O_44  and  C_24 
REMARK    4  A    between atoms: S_45  and  C_25 
REMARK    5  A    between atoms: S_46  and  C_26 
REMARK    6  A    between atoms: C_31  and  C_27 
REMARK    7  A    between atoms: N_33  and  C_28 
REMARK    8  A    between atoms: C_32  and  C_29 
REMARK    9  A    between atoms: C_29  and  N_34 
REMARK   10  A    between atoms: O_36  and  C_30 
REMARK       I    between atoms: N_34  and  C_31 
REMARK   11  A    between atoms: O_39  and  C_32 
REMARK   12  A    between atoms: S_45  and  N_33 
REMARK   13  A    between atoms: S_46  and  O_44 
ROOT
HETATM    1  C   UNK N   1      20.029  15.412   1.646  0.00  0.00     0.040 A 
HETATM    2  C   UNK N   1      20.154  16.701   2.141  0.00  0.00     0.034 A 
HETATM    3  C   UNK N   1      19.282  14.660   3.821  0.00  0.00     0.057 A 
HETATM    4  C   UNK N   1      19.610  14.390   2.493  0.00  0.00     0.090 A 
HETATM    5  C   UNK N   1      19.421  15.943   4.344  0.00  0.00     0.062 A 
HETATM    6  C   UNK N   1      19.894  16.967   3.487  0.00  0.00     0.058 A 
ENDROOT
BRANCH   6   7
HETATM    7  N   UNK N   1      19.967  18.291   3.924  0.00  0.00    -0.280 N 
HETATM    8  H   UNK N   1      19.427  18.601   4.686  0.00  0.00     0.179 HD
BRANCH   7   9
HETATM    9  S   UNK N   1      21.037  19.384   3.086  0.00  0.00     0.263 S 
HETATM   10  O   UNK N   1      20.593  20.791   3.518  0.00  0.00    -0.200 OA
HETATM   11  O   UNK N   1      20.645  19.294   1.603  0.00  0.00    -0.200 OA
BRANCH   9  12
HETATM   12  C   UNK N   1      22.706  19.010   3.498  0.00  0.00     0.080 A 
HETATM   13  C   UNK N   1      22.998  17.730   3.972  0.00  0.00     0.026 A 
HETATM   14  C   UNK N   1      24.304  17.384   4.296  0.00  0.00     0.014 A 
HETATM   15  C   UNK N   1      25.323  18.320   4.147  0.00  0.00    -0.026 A 
HETATM   16  C   UNK N   1      26.635  17.976   4.469  0.00  0.00     0.012 A 
HETATM   17  C   UNK N   1      25.027  19.619   3.667  0.00  0.00    -0.025 A 
HETATM   18  C   UNK N   1      27.655  18.917   4.318  0.00  0.00     0.001 A 
HETATM   19  C   UNK N   1      27.364  20.202   3.844  0.00  0.00     0.001 A 
HETATM   20  C   UNK N   1      26.051  20.553   3.519  0.00  0.00     0.012 A 
HETATM   21  C   UNK N   1      23.714  19.960   3.343  0.00  0.00     0.037 A 
ENDBRANCH   9  12
ENDBRANCH   7   9
ENDBRANCH   6   7
BRANCH   5  22
HETATM   22  C   UNK N   1      19.076  16.131   5.782  0.00  0.00     0.256 C 
HETATM   23  N   UNK N   1      20.035  16.186   6.767  0.00  0.00    -0.337 N 
HETATM   24  C   UNK N   1      21.435  16.077   6.403  0.00  0.00     0.154 C 
HETATM   25  O   UNK N   1      17.890  16.085   6.094  0.00  0.00    -0.267 OA
BRANCH  23  26
HETATM   26  C   UNK N   1      19.676  16.173   8.195  0.00  0.00     0.194 C 
BRANCH  26  27
HETATM   27  C   UNK N   1      20.832  15.551   9.000  0.00  0.00     0.146 C 
BRANCH  27  28
HETATM   28  C   UNK N   1      20.548  14.224   9.661  0.00  0.00     0.141 C 
HETATM   29  O   UNK N   1      21.471  13.457   9.881  0.00  0.00    -0.650 OA
BRANCH  28  30
HETATM   30  O   UNK N   1      19.299  13.875  10.025  0.00  0.00    -0.776 OA
HETATM   31  H   UNK N   1      19.011  13.707  10.900  0.00  0.00     0.167 HD
ENDBRANCH  28  30
ENDBRANCH  27  28
ENDBRANCH  26  27
BRANCH  26  32
HETATM   32  C   UNK N   1      19.357  17.560   8.699  0.00  0.00     0.164 C 
HETATM   33  O   UNK N   1      20.218  18.426   8.719  0.00  0.00    -0.648 OA
BRANCH  32  34
HETATM   34  O   UNK N   1      18.130  17.832   9.181  0.00  0.00    -0.775 OA
HETATM   35  H   UNK N   1      17.647  17.477   9.901  0.00  0.00     0.167 HD
ENDBRANCH  32  34
ENDBRANCH  26  32
ENDBRANCH  23  26
ENDBRANCH   5  22
BRANCH   4  36
HETATM   36  O   UNK N   1      19.716  13.124   2.084  0.00  0.00    -0.229 OA
BRANCH  36  37
HETATM   37  S   UNK N   1      21.159  12.328   2.484  0.00  0.00     0.303 S 
HETATM   38  O   UNK N   1      21.118  11.034   1.651  0.00  0.00    -0.193 OA
HETATM   39  O   UNK N   1      20.966  11.762   3.897  0.00  0.00    -0.193 OA
BRANCH  37  40
HETATM   40  C   UNK N   1      22.723  13.146   2.228  0.00  0.00     0.087 A 
HETATM   41  C   UNK N   1      22.976  13.794   1.017  0.00  0.00     0.027 A 
HETATM   42  C   UNK N   1      24.183  14.467   0.818  0.00  0.00     0.014 A 
HETATM   43  C   UNK N   1      25.142  14.495   1.834  0.00  0.00    -0.026 A 
HETATM   44  C   UNK N   1      26.345  15.178   1.643  0.00  0.00     0.012 A 
HETATM   45  C   UNK N   1      24.893  13.834   3.058  0.00  0.00    -0.025 A 
HETATM   46  C   UNK N   1      27.299  15.210   2.664  0.00  0.00     0.001 A 
HETATM   47  C   UNK N   1      27.052  14.556   3.876  0.00  0.00     0.001 A 
HETATM   48  C   UNK N   1      25.851  13.868   4.074  0.00  0.00     0.012 A 
HETATM   49  C   UNK N   1      23.682  13.162   3.249  0.00  0.00     0.038 A 
ENDBRANCH  37  40
ENDBRANCH  36  37
ENDBRANCH   4  36
TORSDOF 13
ENDMDL
MODEL 5
REMARK VINA RESULT:      -8.5      3.478      7.491
REMARK  13 active torsions:
REMARK  status: ('A' for Active; 'I' for Inactive)
REMARK    1  A    between atoms: C_29  and  C_19 
REMARK    2  A    between atoms: C_30  and  C_19 
REMARK    3  A    between atoms: O_44  and  C_24 
REMARK    4  A    between atoms: S_45  and  C_25 
REMARK    5  A    between atoms: S_46  and  C_26 
REMARK    6  A    between atoms: C_31  and  C_27 
REMARK    7  A    between atoms: N_33  and  C_28 
REMARK    8  A    between atoms: C_32  and  C_29 
REMARK    9  A    between atoms: C_29  and  N_34 
REMARK   10  A    between atoms: O_36  and  C_30 
REMARK       I    between atoms: N_34  and  C_31 
REMARK   11  A    between atoms: O_39  and  C_32 
REMARK   12  A    between atoms: S_45  and  N_33 
REMARK   13  A    between atoms: S_46  and  O_44 
ROOT
HETATM    1  C   UNK N   1      26.065  15.769   5.306  0.00  0.00     0.040 A 
HETATM    2  C   UNK N   1      24.913  15.660   6.070  0.00  0.00     0.034 A 
HETATM    3  C   UNK N   1      24.988  17.454   3.942  0.00  0.00     0.057 A 
HETATM    4  C   UNK N   1      26.094  16.654   4.232  0.00  0.00     0.090 A 
HETATM    5  C   UNK N   1      23.815  17.344   4.683  0.00  0.00     0.062 A 
HETATM    6  C   UNK N   1      23.778  16.407   5.744  0.00  0.00     0.058 A 
ENDROOT
BRANCH   6   7
HETATM    7  N   UNK N   1      22.665  16.314   6.581  0.00  0.00    -0.280 N 
HETATM    8  H   UNK N   1      22.403  17.069   7.157  0.00  0.00     0.179 HD
BRANCH   7   9
HETATM    9  S   UNK N   1      21.749  14.830   6.584  0.00  0.00     0.263 S 
HETATM   10  O   UNK N   1      22.329  13.997   5.428  0.00  0.00    -0.200 OA
HETATM   11  O   UNK N   1      20.338  15.212   6.113  0.00  0.00    -0.200 OA
BRANCH   9  12
HETATM   12  C   UNK N   1      21.886  14.052   8.156  0.00  0.00     0.080 A 
HETATM   13  C   UNK N   1      20.728  13.899   8.919  0.00  0.00     0.026 A 
HETATM   14  C   UNK N   1      20.785  13.277  10.161  0.00  0.00     0.014 A 
HETATM   15  C   UNK N   1      22.004  12.807  10.642  0.00  0.00    -0.026 A 
HETATM   16  C   UNK N   1      22.064  12.181  11.886  0.00  0.00     0.012 A 
HETATM   17  C   UNK N   1      23.179  12.963   9.868  0.00  0.00    -0.025 A 
HETATM   18  C   UNK N   1      23.288  11.709  12.365  0.00  0.00     0.001 A 
HETATM   19  C   UNK N   1      24.451  11.863  11.601  0.00  0.00     0.001 A 
HETATM   20  C   UNK N   1      24.397  12.490  10.353  0.00  0.00     0.012 A 
HETATM   21  C   UNK N   1      23.115  13.588   8.623  0.00  0.00     0.037 A 
ENDBRANCH   9  12
ENDBRANCH   7   9
ENDBRANCH   6   7
BRANCH   5  22
HETATM   22  C   UNK N   1      22.674  18.217   4.281  0.00  0.00     0.256 C 
HETATM   23  N   UNK N   1      21.660  17.772   3.465  0.00  0.00    -0.337 N 
HETATM   24  C   UNK N   1      21.681  16.403   2.988  0.00  0.00     0.154 C 
HETATM   25  O   UNK N   1      22.737  19.406   4.576  0.00  0.00    -0.267 OA
BRANCH  23  26
HETATM   26  C   UNK N   1      20.651  18.694   2.917  0.00  0.00     0.194 C 
BRANCH  26  27
HETATM   27  C   UNK N   1      20.976  18.977   1.438  0.00  0.00     0.146 C 
BRANCH  27  28
HETATM   28  C   UNK N   1      20.933  20.424   1.010  0.00  0.00     0.141 C 
HETATM   29  O   UNK N   1      21.206  21.294   1.818  0.00  0.00    -0.650 OA
BRANCH  28  30
HETATM   30  O   UNK N   1      20.610  20.772  -0.252  0.00  0.00    -0.776 OA
HETATM   31  H   UNK N   1      21.158  20.670  -1.004  0.00  0.00     0.167 HD
ENDBRANCH  28  30
ENDBRANCH  27  28
ENDBRANCH  26  27
BRANCH  26  32
HETATM   32  C   UNK N   1      19.255  18.137   3.061  0.00  0.00     0.164 C 
HETATM   33  O   UNK N   1      19.029  17.225   3.841  0.00  0.00    -0.648 OA
BRANCH  32  34
HETATM   34  O   UNK N   1      18.260  18.613   2.289  0.00  0.00    -0.775 OA
HETATM   35  H   UNK N   1      18.244  18.903   1.398  0.00  0.00     0.167 HD
ENDBRANCH  32  34
ENDBRANCH  26  32
ENDBRANCH  23  26
ENDBRANCH   5  22
BRANCH   4  36
HETATM   36  O   UNK N   1      27.105  16.588   3.364  0.00  0.00    -0.229 OA
BRANCH  36  37
HETATM   37  S   UNK N   1      27.408  15.064   2.684  0.00  0.00     0.303 S 
HETATM   38  O   UNK N   1      27.964  14.233   3.856  0.00  0.00    -0.193 OA
HETATM   39  O   UNK N   1      28.668  15.215   1.822  0.00  0.00    -0.193 OA
BRANCH  37  40
HETATM   40  C   UNK N   1      26.084  14.164   1.898  0.00  0.00     0.087 A 
HETATM   41  C   UNK N   1      24.991  14.858   1.375  0.00  0.00     0.027 A 
HETATM   42  C   UNK N   1      23.965  14.167   0.727  0.00  0.00     0.014 A 
HETATM   43  C   UNK N   1      24.032  12.778   0.598  0.00  0.00    -0.026 A 
HETATM   44  C   UNK N   1      23.014  12.086  -0.062  0.00  0.00     0.012 A 
HETATM   45  C   UNK N   1      25.134  12.072   1.132  0.00  0.00    -0.025 A 
HETATM   46  C   UNK N   1      23.089  10.696  -0.195  0.00  0.00     0.001 A 
HETATM   47  C   UNK N   1      24.179   9.997   0.333  0.00  0.00     0.001 A 
HETATM   48  C   UNK N   1      25.201  10.683   0.997  0.00  0.00     0.012 A 
HETATM   49  C   UNK N   1      26.156  12.770   1.781  0.00  0.00     0.038 A 
ENDBRANCH  37  40
ENDBRANCH  36  37
ENDBRANCH   4  36
TORSDOF 13
ENDMDL
MODEL 6
REMARK VINA RESULT:      -8.4      2.671      6.453
REMARK  13 active torsions:
REMARK  status: ('A' for Active; 'I' for Inactive)
REMARK    1  A    between atoms: C_29  and  C_19 
REMARK    2  A    between atoms: C_30  and  C_19 
REMARK    3  A    between atoms: O_44  and  C_24 
REMARK    4  A    between atoms: S_45  and  C_25 
REMARK    5  A    between atoms: S_46  and  C_26 
REMARK    6  A    between atoms: C_31  and  C_27 
REMARK    7  A    between atoms: N_33  and  C_28 
REMARK    8  A    between atoms: C_32  and  C_29 
REMARK    9  A    between atoms: C_29  and  N_34 
REMARK   10  A    between atoms: O_36  and  C_30 
REMARK       I    between atoms: N_34  and  C_31 
REMARK   11  A    between atoms: O_39  and  C_32 
REMARK   12  A    between atoms: S_45  and  N_33 
REMARK   13  A    between atoms: S_46  and  O_44 
ROOT
HETATM    1  C   UNK N   1      21.214  13.015   5.526  0.00  0.00     0.040 A 
HETATM    2  C   UNK N   1      20.251  13.863   6.052  0.00  0.00     0.034 A 
HETATM    3  C   UNK N   1      22.547  14.935   4.898  0.00  0.00     0.057 A 
HETATM    4  C   UNK N   1      22.352  13.554   4.934  0.00  0.00     0.090 A 
HETATM    5  C   UNK N   1      21.582  15.804   5.401  0.00  0.00     0.062 A 
HETATM    6  C   UNK N   1      20.405  15.248   5.959  0.00  0.00     0.058 A 
ENDROOT
BRANCH   6   7
HETATM    7  N   UNK N   1      19.444  16.061   6.563  0.00  0.00    -0.280 N 
HETATM    8  H   UNK N   1      18.704  16.441   6.038  0.00  0.00     0.179 HD
BRANCH   7   9
HETATM    9  S   UNK N   1      19.587  16.386   8.271  0.00  0.00     0.263 S 
HETATM   10  O   UNK N   1      18.145  16.598   8.762  0.00  0.00    -0.200 OA
HETATM   11  O   UNK N   1      20.238  17.774   8.377  0.00  0.00    -0.200 OA
BRANCH   9  12
HETATM   12  C   UNK N   1      20.415  15.050   9.061  0.00  0.00     0.080 A 
HETATM   13  C   UNK N   1      19.666  14.200   9.877  0.00  0.00     0.026 A 
HETATM   14  C   UNK N   1      20.274  13.123  10.510  0.00  0.00     0.014 A 
HETATM   15  C   UNK N   1      21.634  12.894  10.328  0.00  0.00    -0.026 A 
HETATM   16  C   UNK N   1      22.247  11.813  10.960  0.00  0.00     0.012 A 
HETATM   17  C   UNK N   1      22.394  13.756   9.502  0.00  0.00    -0.025 A 
HETATM   18  C   UNK N   1      23.611  11.584  10.776  0.00  0.00     0.001 A 
HETATM   19  C   UNK N   1      24.364  12.436   9.959  0.00  0.00     0.001 A 
HETATM   20  C   UNK N   1      23.757  13.522   9.323  0.00  0.00     0.012 A 
HETATM   21  C   UNK N   1      21.778  14.835   8.869  0.00  0.00     0.037 A 
ENDBRANCH   9  12
ENDBRANCH   7   9
ENDBRANCH   6   7
BRANCH   5  22
HETATM   22  C   UNK N   1      21.862  17.265   5.292  0.00  0.00     0.256 C 
HETATM   23  N   UNK N   1      21.756  17.947   4.103  0.00  0.00    -0.337 N 
HETATM   24  C   UNK N   1      21.340  17.235   2.910  0.00  0.00     0.154 C 
HETATM   25  O   UNK N   1      22.343  17.827   6.272  0.00  0.00    -0.267 OA
BRANCH  23  26
HETATM   26  C   UNK N   1      22.223  19.337   3.966  0.00  0.00     0.194 C 
BRANCH  26  27
HETATM   27  C   UNK N   1      23.632  19.337   3.344  0.00  0.00     0.146 C 
BRANCH  27  28
HETATM   28  C   UNK N   1      24.779  19.607   4.287  0.00  0.00     0.141 C 
HETATM   29  O   UNK N   1      25.627  20.427   3.976  0.00  0.00    -0.650 OA
BRANCH  28  30
HETATM   30  O   UNK N   1      24.879  18.971   5.471  0.00  0.00    -0.776 OA
HETATM   31  H   UNK N   1      24.267  19.033   6.177  0.00  0.00     0.167 HD
ENDBRANCH  28  30
ENDBRANCH  27  28
ENDBRANCH  26  27
BRANCH  26  32
HETATM   32  C   UNK N   1      21.271  20.163   3.135  0.00  0.00     0.164 C 
HETATM   33  O   UNK N   1      21.637  20.656   2.080  0.00  0.00    -0.648 OA
BRANCH  32  34
HETATM   34  O   UNK N   1      20.025  20.403   3.584  0.00  0.00    -0.775 OA
HETATM   35  H   UNK N   1      19.705  20.924   4.294  0.00  0.00     0.167 HD
ENDBRANCH  32  34
ENDBRANCH  26  32
ENDBRANCH  23  26
ENDBRANCH   5  22
BRANCH   4  36
HETATM   36  O   UNK N   1      23.154  12.757   4.226  0.00  0.00    -0.229 OA
BRANCH  36  37
HETATM   37  S   UNK N   1      24.756  12.635   4.768  0.00  0.00     0.303 S 
HETATM   38  O   UNK N   1      25.503  11.981   3.591  0.00  0.00    -0.193 OA
HETATM   39  O   UNK N   1      24.783  11.491   5.791  0.00  0.00    -0.193 OA
BRANCH  37  40
HETATM   40  C   UNK N   1      25.633  14.100   5.283  0.00  0.00     0.087 A 
HETATM   41  C   UNK N   1      25.768  14.383   6.644  0.00  0.00     0.027 A 
HETATM   42  C   UNK N   1      26.482  15.509   7.060  0.00  0.00     0.014 A 
HETATM   43  C   UNK N   1      27.065  16.355   6.113  0.00  0.00    -0.026 A 
HETATM   44  C   UNK N   1      27.791  17.474   6.527  0.00  0.00     0.012 A 
HETATM   45  C   UNK N   1      26.924  16.075   4.735  0.00  0.00    -0.025 A 
HETATM   46  C   UNK N   1      28.379  18.314   5.576  0.00  0.00     0.001 A 
HETATM   47  C   UNK N   1      28.240  18.037   4.212  0.00  0.00     0.001 A 
HETATM   48  C   UNK N   1      27.512  16.920   3.790  0.00  0.00     0.012 A 
HETATM   49  C   UNK N   1      26.207  14.947   4.326  0.00  0.00     0.038 A 
ENDBRANCH  37  40
ENDBRANCH  36  37
ENDBRANCH   4  36
TORSDOF 13
ENDMDL
MODEL 7
REMARK VINA RESULT:      -8.3     12.691     16.075
REMARK  13 active torsions:
REMARK  status: ('A' for Active; 'I' for Inactive)
REMARK    1  A    between atoms: C_29  and  C_19 
REMARK    2  A    between atoms: C_30  and  C_19 
REMARK    3  A    between atoms: O_44  and  C_24 
REMARK    4  A    between atoms: S_45  and  C_25 
REMARK    5  A    between atoms: S_46  and  C_26 
REMARK    6  A    between atoms: C_31  and  C_27 
REMARK    7  A    between atoms: N_33  and  C_28 
REMARK    8  A    between atoms: C_32  and  C_29 
REMARK    9  A    between atoms: C_29  and  N_34 
REMARK   10  A    between atoms: O_36  and  C_30 
REMARK       I    between atoms: N_34  and  C_31 
REMARK   11  A    between atoms: O_39  and  C_32 
REMARK   12  A    between atoms: S_45  and  N_33 
REMARK   13  A    between atoms: S_46  and  O_44 
ROOT
HETATM    1  C   UNK N   1      37.308  12.489  11.707  0.00  0.00     0.040 A 
HETATM    2  C   UNK N   1      37.086  13.680  11.033  0.00  0.00     0.034 A 
HETATM    3  C   UNK N   1      35.626  11.414  10.339  0.00  0.00     0.057 A 
HETATM    4  C   UNK N   1      36.564  11.362  11.370  0.00  0.00     0.090 A 
HETATM    5  C   UNK N   1      35.373  12.605   9.665  0.00  0.00     0.062 A 
HETATM    6  C   UNK N   1      36.100  13.759  10.046  0.00  0.00     0.058 A 
ENDROOT
BRANCH   6   7
HETATM    7  N   UNK N   1      35.960  14.959   9.348  0.00  0.00    -0.280 N 
HETATM    8  H   UNK N   1      36.525  15.157   8.567  0.00  0.00     0.179 HD
BRANCH   7   9
HETATM    9  S   UNK N   1      34.759  16.101   9.893  0.00  0.00     0.263 S 
HETATM   10  O   UNK N   1      35.552  17.354  10.302  0.00  0.00    -0.200 OA
HETATM   11  O   UNK N   1      34.220  15.537  11.216  0.00  0.00    -0.200 OA
BRANCH   9  12
HETATM   12  C   UNK N   1      33.591  16.390   8.609  0.00  0.00     0.080 A 
HETATM   13  C   UNK N   1      32.239  16.191   8.891  0.00  0.00     0.026 A 
HETATM   14  C   UNK N   1      31.278  16.421   7.913  0.00  0.00     0.014 A 
HETATM   15  C   UNK N   1      31.671  16.851   6.649  0.00  0.00    -0.026 A 
HETATM   16  C   UNK N   1      30.710  17.084   5.666  0.00  0.00     0.012 A 
HETATM   17  C   UNK N   1      33.043  17.051   6.362  0.00  0.00    -0.025 A 
HETATM   18  C   UNK N   1      31.106  17.516   4.399  0.00  0.00     0.001 A 
HETATM   19  C   UNK N   1      32.462  17.715   4.114  0.00  0.00     0.001 A 
HETATM   20  C   UNK N   1      33.430  17.482   5.095  0.00  0.00     0.012 A 
HETATM   21  C   UNK N   1      34.001  16.819   7.349  0.00  0.00     0.037 A 
ENDBRANCH   9  12
ENDBRANCH   7   9
ENDBRANCH   6   7
BRANCH   5  22
HETATM   22  C   UNK N   1      34.331  12.573   8.598  0.00  0.00     0.256 C 
HETATM   23  N   UNK N   1      34.647  12.443   7.266  0.00  0.00    -0.337 N 
HETATM   24  C   UNK N   1      36.038  12.311   6.875  0.00  0.00     0.154 C 
HETATM   25  O   UNK N   1      33.175  12.821   8.924  0.00  0.00    -0.267 OA
BRANCH  23  26
HETATM   26  C   UNK N   1      33.632  12.611   6.212  0.00  0.00     0.194 C 
BRANCH  26  27
HETATM   27  C   UNK N   1      34.231  13.445   5.064  0.00  0.00     0.146 C 
BRANCH  27  28
HETATM   28  C   UNK N   1      33.247  14.035   4.083  0.00  0.00     0.141 C 
HETATM   29  O   UNK N   1      33.653  14.472   3.019  0.00  0.00    -0.650 OA
BRANCH  28  30
HETATM   30  O   UNK N   1      31.928  14.077   4.353  0.00  0.00    -0.776 OA
HETATM   31  H   UNK N   1      31.331  14.737   4.060  0.00  0.00     0.167 HD
ENDBRANCH  28  30
ENDBRANCH  27  28
ENDBRANCH  26  27
BRANCH  26  32
HETATM   32  C   UNK N   1      33.135  11.279   5.704  0.00  0.00     0.164 C 
HETATM   33  O   UNK N   1      32.014  10.887   5.988  0.00  0.00    -0.648 OA
BRANCH  32  34
HETATM   34  O   UNK N   1      33.949  10.494   4.974  0.00  0.00    -0.775 OA
HETATM   35  H   UNK N   1      34.809  10.632   4.630  0.00  0.00     0.167 HD
ENDBRANCH  32  34
ENDBRANCH  26  32
ENDBRANCH  23  26
ENDBRANCH   5  22
BRANCH   4  36
HETATM   36  O   UNK N   1      36.609  10.294  12.168  0.00  0.00    -0.229 OA
BRANCH  36  37
HETATM   37  S   UNK N   1      35.342  10.140  13.284  0.00  0.00     0.303 S 
HETATM   38  O   UNK N   1      35.369   8.652  13.681  0.00  0.00    -0.193 OA
HETATM   39  O   UNK N   1      34.040  10.193  12.474  0.00  0.00    -0.193 OA
BRANCH  37  40
HETATM   40  C   UNK N   1      35.331  11.144  14.758  0.00  0.00     0.087 A 
HETATM   41  C   UNK N   1      35.247  12.534  14.648  0.00  0.00     0.027 A 
HETATM   42  C   UNK N   1      35.203  13.328  15.795  0.00  0.00     0.014 A 
HETATM   43  C   UNK N   1      35.241  12.732  17.058  0.00  0.00    -0.026 A 
HETATM   44  C   UNK N   1      35.183  13.523  18.208  0.00  0.00     0.012 A 
HETATM   45  C   UNK N   1      35.333  11.327  17.173  0.00  0.00    -0.025 A 
HETATM   46  C   UNK N   1      35.213  12.923  19.470  0.00  0.00     0.001 A 
HETATM   47  C   UNK N   1      35.304  11.531  19.584  0.00  0.00     0.001 A 
HETATM   48  C   UNK N   1      35.364  10.733  18.438  0.00  0.00     0.012 A 
HETATM   49  C   UNK N   1      35.377  10.538  16.020  0.00  0.00     0.038 A 
ENDBRANCH  37  40
ENDBRANCH  36  37
ENDBRANCH   4  36
TORSDOF 13
ENDMDL
MODEL 8
REMARK VINA RESULT:      -8.2      3.902      7.574
REMARK  13 active torsions:
REMARK  status: ('A' for Active; 'I' for Inactive)
REMARK    1  A    between atoms: C_29  and  C_19 
REMARK    2  A    between atoms: C_30  and  C_19 
REMARK    3  A    between atoms: O_44  and  C_24 
REMARK    4  A    between atoms: S_45  and  C_25 
REMARK    5  A    between atoms: S_46  and  C_26 
REMARK    6  A    between atoms: C_31  and  C_27 
REMARK    7  A    between atoms: N_33  and  C_28 
REMARK    8  A    between atoms: C_32  and  C_29 
REMARK    9  A    between atoms: C_29  and  N_34 
REMARK   10  A    between atoms: O_36  and  C_30 
REMARK       I    between atoms: N_34  and  C_31 
REMARK   11  A    between atoms: O_39  and  C_32 
REMARK   12  A    between atoms: S_45  and  N_33 
REMARK   13  A    between atoms: S_46  and  O_44 
ROOT
HETATM    1  C   UNK N   1      22.872  12.708   3.899  0.00  0.00     0.040 A 
HETATM    2  C   UNK N   1      24.196  12.487   3.550  0.00  0.00     0.034 A 
HETATM    3  C   UNK N   1      23.214  15.091   3.649  0.00  0.00     0.057 A 
HETATM    4  C   UNK N   1      22.389  14.011   3.964  0.00  0.00     0.090 A 
HETATM    5  C   UNK N   1      24.552  14.892   3.318  0.00  0.00     0.062 A 
HETATM    6  C   UNK N   1      25.048  13.565   3.300  0.00  0.00     0.058 A 
ENDROOT
BRANCH   6   7
HETATM    7  N   UNK N   1      26.353  13.293   2.886  0.00  0.00    -0.280 N 
HETATM    8  H   UNK N   1      26.628  13.444   1.954  0.00  0.00     0.179 HD
BRANCH   7   9
HETATM    9  S   UNK N   1      27.484  12.676   4.062  0.00  0.00     0.263 S 
HETATM   10  O   UNK N   1      28.470  11.812   3.257  0.00  0.00    -0.200 OA
HETATM   11  O   UNK N   1      26.694  11.669   4.911  0.00  0.00    -0.200 OA
BRANCH   9  12
HETATM   12  C   UNK N   1      28.246  14.016   4.910  0.00  0.00     0.080 A 
HETATM   13  C   UNK N   1      29.613  14.226   4.718  0.00  0.00     0.026 A 
HETATM   14  C   UNK N   1      30.255  15.281   5.355  0.00  0.00     0.014 A 
HETATM   15  C   UNK N   1      29.530  16.129   6.187  0.00  0.00    -0.026 A 
HETATM   16  C   UNK N   1      30.171  17.189   6.826  0.00  0.00     0.012 A 
HETATM   17  C   UNK N   1      28.144  15.916   6.382  0.00  0.00    -0.025 A 
HETATM   18  C   UNK N   1      29.441  18.040   7.658  0.00  0.00     0.001 A 
HETATM   19  C   UNK N   1      28.070  17.830   7.853  0.00  0.00     0.001 A 
HETATM   20  C   UNK N   1      27.422  16.769   7.215  0.00  0.00     0.012 A 
HETATM   21  C   UNK N   1      27.505  14.856   5.739  0.00  0.00     0.037 A 
ENDBRANCH   9  12
ENDBRANCH   7   9
ENDBRANCH   6   7
BRANCH   5  22
HETATM   22  C   UNK N   1      25.367  16.106   3.026  0.00  0.00     0.256 C 
HETATM   23  N   UNK N   1      25.335  17.223   3.828  0.00  0.00    -0.337 N 
HETATM   24  C   UNK N   1      24.500  17.223   5.014  0.00  0.00     0.154 C 
HETATM   25  O   UNK N   1      25.961  16.148   1.953  0.00  0.00    -0.267 OA
BRANCH  23  26
HETATM   26  C   UNK N   1      25.986  18.481   3.425  0.00  0.00     0.194 C 
BRANCH  26  27
HETATM   27  C   UNK N   1      25.144  19.668   3.929  0.00  0.00     0.146 C 
BRANCH  27  28
HETATM   28  C   UNK N   1      24.529  20.549   2.869  0.00  0.00     0.141 C 
HETATM   29  O   UNK N   1      25.158  20.787   1.851  0.00  0.00    -0.650 OA
BRANCH  28  30
HETATM   30  O   UNK N   1      23.294  21.067   3.018  0.00  0.00    -0.776 OA
HETATM   31  H   UNK N   1      22.529  20.591   3.275  0.00  0.00     0.167 HD
ENDBRANCH  28  30
ENDBRANCH  27  28
ENDBRANCH  26  27
BRANCH  26  32
HETATM   32  C   UNK N   1      27.400  18.567   3.949  0.00  0.00     0.164 C 
HETATM   33  O   UNK N   1      27.700  19.399   4.791  0.00  0.00    -0.648 OA
BRANCH  32  34
HETATM   34  O   UNK N   1      28.350  17.756   3.448  0.00  0.00    -0.775 OA
HETATM   35  H   UNK N   1      28.523  16.843   3.571  0.00  0.00     0.167 HD
ENDBRANCH  32  34
ENDBRANCH  26  32
ENDBRANCH  23  26
ENDBRANCH   5  22
BRANCH   4  36
HETATM   36  O   UNK N   1      21.197  14.234   4.523  0.00  0.00    -0.229 OA
BRANCH  36  37
HETATM   37  S   UNK N   1      21.215  14.857   6.100  0.00  0.00     0.303 S 
HETATM   38  O   UNK N   1      19.757  14.720   6.575  0.00  0.00    -0.193 OA
HETATM   39  O   UNK N   1      21.327  16.381   5.964  0.00  0.00    -0.193 OA
BRANCH  37  40
HETATM   40  C   UNK N   1      22.303  14.147   7.322  0.00  0.00     0.087 A 
HETATM   41  C   UNK N   1      23.685  14.196   7.130  0.00  0.00     0.027 A 
HETATM   42  C   UNK N   1      24.548  13.674   8.096  0.00  0.00     0.014 A 
HETATM   43  C   UNK N   1      24.028  13.103   9.260  0.00  0.00    -0.026 A 
HETATM   44  C   UNK N   1      24.889  12.593  10.234  0.00  0.00     0.012 A 
HETATM   45  C   UNK N   1      22.629  13.045   9.454  0.00  0.00    -0.025 A 
HETATM   46  C   UNK N   1      24.365  12.028  11.402  0.00  0.00     0.001 A 
HETATM   47  C   UNK N   1      22.980  11.971  11.594  0.00  0.00     0.001 A 
HETATM   48  C   UNK N   1      22.112  12.478  10.622  0.00  0.00     0.012 A 
HETATM   49  C   UNK N   1      21.772  13.569   8.482  0.00  0.00     0.038 A 
ENDBRANCH  37  40
ENDBRANCH  36  37
ENDBRANCH   4  36
TORSDOF 13
ENDMDL
MODEL 9
REMARK VINA RESULT:      -8.2      1.030      2.025
REMARK  13 active torsions:
REMARK  status: ('A' for Active; 'I' for Inactive)
REMARK    1  A    between atoms: C_29  and  C_19 
REMARK    2  A    between atoms: C_30  and  C_19 
REMARK    3  A    between atoms: O_44  and  C_24 
REMARK    4  A    between atoms: S_45  and  C_25 
REMARK    5  A    between atoms: S_46  and  C_26 
REMARK    6  A    between atoms: C_31  and  C_27 
REMARK    7  A    between atoms: N_33  and  C_28 
REMARK    8  A    between atoms: C_32  and  C_29 
REMARK    9  A    between atoms: C_29  and  N_34 
REMARK   10  A    between atoms: O_36  and  C_30 
REMARK       I    between atoms: N_34  and  C_31 
REMARK   11  A    between atoms: O_39  and  C_32 
REMARK   12  A    between atoms: S_45  and  N_33 
REMARK   13  A    between atoms: S_46  and  O_44 
ROOT
HETATM    1  C   UNK N   1      20.289  16.285   1.824  0.00  0.00     0.040 A 
HETATM    2  C   UNK N   1      20.050  15.039   2.385  0.00  0.00     0.034 A 
HETATM    3  C   UNK N   1      20.928  17.129   4.000  0.00  0.00     0.057 A 
HETATM    4  C   UNK N   1      20.712  17.332   2.637  0.00  0.00     0.090 A 
HETATM    5  C   UNK N   1      20.672  15.892   4.586  0.00  0.00     0.062 A 
HETATM    6  C   UNK N   1      20.197  14.844   3.760  0.00  0.00     0.058 A 
ENDROOT
BRANCH   6   7
HETATM    7  N   UNK N   1      20.011  13.558   4.268  0.00  0.00    -0.280 N 
HETATM    8  H   UNK N   1      19.226  13.343   4.822  0.00  0.00     0.179 HD
BRANCH   7   9
HETATM    9  S   UNK N   1      21.202  12.339   3.898  0.00  0.00     0.263 S 
HETATM   10  O   UNK N   1      20.784  11.770   2.532  0.00  0.00    -0.200 OA
HETATM   11  O   UNK N   1      20.945  11.192   4.888  0.00  0.00    -0.200 OA
BRANCH   9  12
HETATM   12  C   UNK N   1      22.808  13.058   3.904  0.00  0.00     0.080 A 
HETATM   13  C   UNK N   1      23.576  12.946   5.063  0.00  0.00     0.026 A 
HETATM   14  C   UNK N   1      24.856  13.486   5.110  0.00  0.00     0.014 A 
HETATM   15  C   UNK N   1      25.370  14.140   3.994  0.00  0.00    -0.026 A 
HETATM   16  C   UNK N   1      26.654  14.680   4.036  0.00  0.00     0.012 A 
HETATM   17  C   UNK N   1      24.590  14.254   2.817  0.00  0.00    -0.025 A 
HETATM   18  C   UNK N   1      27.167  15.335   2.915  0.00  0.00     0.001 A 
HETATM   19  C   UNK N   1      26.397  15.449   1.751  0.00  0.00     0.001 A 
HETATM   20  C   UNK N   1      25.109  14.910   1.702  0.00  0.00     0.012 A 
HETATM   21  C   UNK N   1      23.306  13.710   2.778  0.00  0.00     0.037 A 
ENDBRANCH   9  12
ENDBRANCH   7   9
ENDBRANCH   6   7
BRANCH   5  22
HETATM   22  C   UNK N   1      20.903  15.776   6.055  0.00  0.00     0.256 C 
HETATM   23  N   UNK N   1      19.899  15.971   6.975  0.00  0.00    -0.337 N 
HETATM   24  C   UNK N   1      18.561  16.282   6.511  0.00  0.00     0.154 C 
HETATM   25  O   UNK N   1      22.061  15.649   6.441  0.00  0.00    -0.267 OA
BRANCH  23  26
HETATM   26  C   UNK N   1      20.180  16.049   8.418  0.00  0.00     0.194 C 
BRANCH  26  27
HETATM   27  C   UNK N   1      19.213  17.058   9.066  0.00  0.00     0.146 C 
BRANCH  27  28
HETATM   28  C   UNK N   1      19.709  18.479   9.184  0.00  0.00     0.141 C 
HETATM   29  O   UNK N   1      19.451  19.119  10.189  0.00  0.00    -0.650 OA
BRANCH  28  30
HETATM   30  O   UNK N   1      20.442  19.049   8.208  0.00  0.00    -0.776 OA
HETATM   31  H   UNK N   1      20.232  19.844   7.761  0.00  0.00     0.167 HD
ENDBRANCH  28  30
ENDBRANCH  27  28
ENDBRANCH  26  27
BRANCH  26  32
HETATM   32  C   UNK N   1      20.065  14.697   9.080  0.00  0.00     0.164 C 
HETATM   33  O   UNK N   1      19.108  14.434   9.790  0.00  0.00    -0.648 OA
BRANCH  32  34
HETATM   34  O   UNK N   1      21.050  13.792   8.929  0.00  0.00    -0.775 OA
HETATM   35  H   UNK N   1      21.186  13.115   8.295  0.00  0.00     0.167 HD
ENDBRANCH  32  34
ENDBRANCH  26  32
ENDBRANCH  23  26
ENDBRANCH   5  22
BRANCH   4  36
HETATM   36  O   UNK N   1      20.714  18.573   2.148  0.00  0.00    -0.229 OA
BRANCH  36  37
HETATM   37  S   UNK N   1      21.631  19.714   3.005  0.00  0.00     0.303 S 
HETATM   38  O   UNK N   1      20.712  20.139   4.165  0.00  0.00    -0.193 OA
HETATM   39  O   UNK N   1      21.632  20.994   2.160  0.00  0.00    -0.193 OA
BRANCH  37  40
HETATM   40  C   UNK N   1      23.229  19.261   3.653  0.00  0.00     0.087 A 
HETATM   41  C   UNK N   1      23.372  18.076   4.378  0.00  0.00     0.027 A 
HETATM   42  C   UNK N   1      24.625  17.694   4.860  0.00  0.00     0.014 A 
HETATM   43  C   UNK N   1      25.742  18.497   4.617  0.00  0.00    -0.026 A 
HETATM   44  C   UNK N   1      26.999  18.111   5.086  0.00  0.00     0.012 A 
HETATM   45  C   UNK N   1      25.599  19.701   3.889  0.00  0.00    -0.025 A 
HETATM   46  C   UNK N   1      28.115  18.914   4.833  0.00  0.00     0.001 A 
HETATM   47  C   UNK N   1      27.975  20.105   4.114  0.00  0.00     0.001 A 
HETATM   48  C   UNK N   1      26.719  20.500   3.642  0.00  0.00     0.012 A 
HETATM   49  C   UNK N   1      24.342  20.077   3.410  0.00  0.00     0.038 A 
ENDBRANCH  37  40
ENDBRANCH  36  37
ENDBRANCH   4  36
TORSDOF 13
ENDMDL
