REMARK  9 active torsions:
REMARK  status: ('A' for Active; 'I' for Inactive)
REMARK    1  A    between atoms: C_3  and  C_1 
REMARK    2  A    between atoms: O_19  and  C_1 
REMARK    3  A    between atoms: C_5  and  O_20 
REMARK    4  A    between atoms: C_6  and  O_26 
REMARK    5  A    between atoms: O_21  and  C_8 
REMARK    6  A    between atoms: C_9  and  N_18 
REMARK       I    between atoms: N_11  and  C_10 
REMARK    7  A    between atoms: P_27  and  O_22 
REMARK    8  A    between atoms: P_27  and  O_23 
REMARK    9  A    between atoms: P_27  and  O_26 
ROOT
HETATM    1  C   UNK N   1      -2.336  -3.901  -0.269  0.00  0.00     0.179 C 
HETATM    2  C   UNK N   1      -0.999  -4.627  -0.435  0.00  0.00     0.183 C 
HETATM    3  C   UNK N   1      -0.146  -3.432  -0.796  0.00  0.00     0.214 C 
HETATM    4  C   UNK N   1      -0.643  -2.482   0.289  0.00  0.00     0.263 C 
HETATM    5  O   UNK N   1      -2.052  -2.655   0.354  0.00  0.00    -0.353 OA
ENDROOT
BRANCH   4   6
HETATM    6  N   UNK N   1      -0.278  -1.088   0.019  0.00  0.00    -0.297 N 
HETATM    7  C   UNK N   1      -1.113  -0.045  -0.237  0.00  0.00     0.188 A 
HETATM    8  N   UNK N   1      -0.420   1.118  -0.404  0.00  0.00    -0.346 N 
HETATM    9  C   UNK N   1       0.869   0.765  -0.234  0.00  0.00     0.130 A 
ATOM     10  HN  UNK N   1      -0.793   2.044  -0.611  1.00  0.00     0.167 HD
HETATM   11  C   UNK N   1       0.950  -0.553   0.017  0.00  0.00     0.157 A 
HETATM   12  C   UNK N   1       2.018   1.539  -0.269  0.00  0.00     0.186 A 
HETATM   13  N   UNK N   1       2.131  -1.178   0.251  0.00  0.00    -0.174 N 
HETATM   14  C   UNK N   1       3.275  -0.430   0.213  0.00  0.00     0.679 A 
HETATM   15  H   UNK N   1       2.164  -2.143   0.442  0.00  0.00     0.186 HD
HETATM   16  N   UNK N   1       4.406  -0.990   0.420  0.00  0.00    -0.234 N 
HETATM   17  N   UNK N   1       3.216   0.918  -0.044  0.00  0.00    -0.168 N 
HETATM   18  H   UNK N   1       4.468  -1.959   0.580  0.00  0.00     0.174 HD
ATOM     19  HN  UNK N   1       5.255  -0.424   0.420  1.00  0.00     0.174 HD
ATOM     20  HN  UNK N   1       4.077   1.463  -0.068  1.00  0.00     0.186 HD
BRANCH  12  21
HETATM   21  O   UNK N   1       1.966   2.860  -0.507  0.00  0.00    -0.344 OA
HETATM   22  H   UNK N   1       2.745   3.352  -0.674  0.00  0.00     0.219 HD
ENDBRANCH  12  21
ENDBRANCH   4   6
BRANCH   3  23
HETATM   23  O   UNK N   1       1.270  -3.485  -0.900  0.00  0.00    -0.284 OA
BRANCH  23  24
HETATM   24  P   UNK N   1       2.145  -4.828  -0.178  0.00  0.00     0.391 P 
HETATM   25  O   UNK N   1       1.412  -5.467   1.029  0.00  0.00    -0.632 OA
BRANCH  24  26
HETATM   26  O   UNK N   1       2.498  -6.069  -1.339  0.00  0.00    -0.307 OA
HETATM   27  H   UNK N   1       1.996  -6.586  -1.988  0.00  0.00     0.222 HD
ENDBRANCH  24  26
BRANCH  24  28
HETATM   28  O   UNK N   1       3.639  -4.228   0.469  0.00  0.00    -0.307 OA
HETATM   29  H   UNK N   1       4.347  -4.784   0.831  0.00  0.00     0.222 HD
ENDBRANCH  24  28
ENDBRANCH  23  24
ENDBRANCH   3  23
BRANCH   2  30
HETATM   30  O   UNK N   1      -1.028  -5.610  -1.426  0.00  0.00    -0.390 OA
HETATM   31  H   UNK N   1      -1.629  -5.934  -2.114  0.00  0.00     0.210 HD
ENDBRANCH   2  30
BRANCH   1  32
HETATM   32  C   UNK N   1      -3.332  -4.695   0.571  0.00  0.00     0.198 C 
BRANCH  32  33
HETATM   33  O   UNK N   1      -3.651  -5.905  -0.047  0.00  0.00    -0.398 OA
HETATM   34  H   UNK N   1      -4.490  -6.133  -0.477  0.00  0.00     0.209 HD
ENDBRANCH  32  33
ENDBRANCH   1  32
TORSDOF 9
