REMARK  6 active torsions:
REMARK  status: ('A' for Active; 'I' for Inactive)
REMARK    1  A    between atoms: C_14  and  C_7 
REMARK    2  A    between atoms: C_15  and  C_8 
REMARK    3  A    between atoms: C_16  and  C_13 
REMARK    4  A    between atoms: C_17  and  C_13 
REMARK    5  A    between atoms: N_20  and  C_14 
REMARK    6  A    between atoms: N_23  and  C_15 
ROOT
HETATM    1  C   UNK N   1      -0.325  -0.694  -0.694  0.00  0.00     0.259 C 
HETATM    2  O   UNK N   1      -0.954  -1.735  -0.803  0.00  0.00    -0.280 OA
ENDROOT
BRANCH   1   3
HETATM    3  C   UNK N   1      -0.999   0.605  -0.458  0.00  0.00     0.161 A 
HETATM    4  N   UNK N   1      -2.324   0.893  -0.606  0.00  0.00    -0.337 N 
HETATM    5  C   UNK N   1      -2.394   2.200  -0.262  0.00  0.00     0.060 A 
HETATM    6  H   UNK N   1      -3.052   0.295  -0.894  0.00  0.00     0.167 HD
HETATM    7  C   UNK N   1      -3.492   3.060  -0.254  0.00  0.00     0.033 A 
HETATM    8  C   UNK N   1      -1.164   2.643   0.096  0.00  0.00     0.061 A 
HETATM    9  C   UNK N   1      -3.264   4.405   0.141  0.00  0.00     0.017 A 
HETATM   10  C   UNK N   1      -1.961   4.842   0.521  0.00  0.00     0.009 A 
HETATM   11  C   UNK N   1      -0.898   3.933   0.497  0.00  0.00     0.047 A 
HETATM   12  N   UNK N   1      -0.285   1.666  -0.017  0.00  0.00    -0.337 N 
ATOM     13  HN  UNK N   1       0.714   1.702   0.184  1.00  0.00     0.167 HD
BRANCH  10  14
HETATM   14  C   UNK N   1      -1.686   6.235   0.931  0.00  0.00     0.102 C 
HETATM   15  N   UNK N   1      -2.616   7.114   0.916  0.00  0.00    -0.385 N 
HETATM   16  H   UNK N   1      -2.389   8.072   0.904  0.00  0.00     0.157 HD
ATOM     17  HN  UNK N   1      -3.594   6.823   0.916  1.00  0.00     0.157 HD
BRANCH  14  18
HETATM   18  N   UNK N   1      -0.379   6.612   1.327  0.00  0.00    -0.385 N 
HETATM   19  H   UNK N   1       0.302   5.956   1.603  0.00  0.00     0.157 HD
HETATM   20  H   UNK N   1      -0.142   7.568   1.327  0.00  0.00     0.157 HD
ENDBRANCH  14  18
ENDBRANCH  10  14
ENDBRANCH   1   3
BRANCH   1  21
HETATM   21  C   UNK N   1       1.158  -0.669  -0.687  0.00  0.00     0.161 A 
HETATM   22  N   UNK N   1       1.829   0.487  -0.911  0.00  0.00    -0.337 N 
HETATM   23  C   UNK N   1       3.092   0.201  -0.638  0.00  0.00     0.060 A 
ATOM     24  HN  UNK N   1       1.446   1.379  -1.221  1.00  0.00     0.167 HD
HETATM   25  C   UNK N   1       4.158   1.082  -0.649  0.00  0.00     0.033 A 
HETATM   26  C   UNK N   1       3.196  -1.099  -0.260  0.00  0.00     0.061 A 
HETATM   27  C   UNK N   1       5.394   0.593  -0.219  0.00  0.00     0.017 A 
HETATM   28  C   UNK N   1       5.532  -0.752   0.208  0.00  0.00     0.009 A 
HETATM   29  C   UNK N   1       4.411  -1.626   0.177  0.00  0.00     0.047 A 
HETATM   30  N   UNK N   1       1.978  -1.686  -0.302  0.00  0.00    -0.337 N 
HETATM   31  H   UNK N   1       1.742  -2.620  -0.102  0.00  0.00     0.167 HD
BRANCH  28  32
HETATM   32  C   UNK N   1       6.835  -1.211   0.726  0.00  0.00     0.102 C 
HETATM   33  N   UNK N   1       7.823  -0.396   0.806  0.00  0.00    -0.385 N 
HETATM   34  H   UNK N   1       8.743  -0.739   0.868  0.00  0.00     0.157 HD
ATOM     35  HN  UNK N   1       7.654   0.610   0.806  1.00  0.00     0.157 HD
BRANCH  32  36
HETATM   36  N   UNK N   1       6.984  -2.530   1.209  0.00  0.00    -0.385 N 
HETATM   37  H   UNK N   1       6.240  -3.079   1.546  0.00  0.00     0.157 HD
HETATM   38  H   UNK N   1       7.886  -2.923   1.209  0.00  0.00     0.157 HD
ENDBRANCH  32  36
ENDBRANCH  28  32
ENDBRANCH   1  21
TORSDOF 6
