REMARK  4 active torsions:
REMARK  status: ('A' for Active; 'I' for Inactive)
REMARK    1  A    between atoms: O_1  and  C_2 
REMARK    2  A    between atoms: C_2  and  C_3 
REMARK    3  A    between atoms: C_3  and  N_4 
REMARK    4  A    between atoms: N_4  and  C_5 
ROOT
HETATM    1  C   UNK N   1       4.040  -0.414  -0.000  0.00  0.00     0.133 A 
HETATM    2  N   UNK N   1       4.908   0.646  -0.000  0.00  0.00    -0.337 N 
ATOM      3  HN  UNK N   1       5.914   0.474  -0.000  1.00  0.00     0.168 HD
HETATM    4  C   UNK N   1       4.437   1.942   0.000  0.00  0.00     0.183 A 
HETATM    5  N   UNK N   1       3.088   2.196   0.000  0.00  0.00    -0.336 N 
ATOM      6  HN  UNK N   1       2.731   3.151   0.000  1.00  0.00     0.168 HD
HETATM    7  C   UNK N   1       2.248   1.134   0.000  0.00  0.00     0.145 A 
HETATM    8  C   UNK N   1       2.692  -0.145   0.000  0.00  0.00     0.123 A 
HETATM    9  N   UNK N   1       1.654  -1.006  -0.000  0.00  0.00    -0.336 N 
ATOM     10  HN  UNK N   1       1.676  -2.026  -0.000  1.00  0.00     0.168 HD
HETATM   11  C   UNK N   1       0.573  -0.187   0.000  0.00  0.00     0.113 A 
HETATM   12  C   UNK N   1      -0.755  -0.591  -0.000  0.00  0.00     0.049 A 
HETATM   13  C   UNK N   1      -1.734   0.415  -0.000  0.00  0.00     0.005 A 
HETATM   14  C   UNK N   1      -1.360   1.776   0.000  0.00  0.00     0.018 A 
HETATM   15  C   UNK N   1       0.000   2.124   0.000  0.00  0.00     0.100 A 
HETATM   16  N   UNK N   1       0.912   1.121   0.000  0.00  0.00    -0.292 N 
ENDROOT
BRANCH   1  17
HETATM   17  N   UNK N   1       4.479  -1.756  -0.000  0.00  0.00    -0.372 N 
HETATM   18  H   UNK N   1       3.796  -2.465  -0.000  0.00  0.00     0.161 HD
BRANCH  17  19
HETATM   19  C   UNK N   1       5.857  -2.147  -0.000  0.00  0.00     0.147 C 
BRANCH  19  20
HETATM   20  C   UNK N   1       5.893  -3.662  -0.000  0.00  0.00     0.183 C 
BRANCH  20  21
HETATM   21  O   UNK N   1       7.210  -4.108   0.000  0.00  0.00    -0.399 OA
HETATM   22  H   UNK N   1       7.400  -5.060   0.000  0.00  0.00     0.209 HD
ENDBRANCH  20  21
ENDBRANCH  19  20
ENDBRANCH  17  19
ENDBRANCH   1  17
TORSDOF 4
