MODEL 1
REMARK VINA RESULT:      -3.8      0.000      0.000
REMARK  0 active torsions:
REMARK  status: ('A' for Active; 'I' for Inactive)
ROOT
HETATM    1  C   UNK N   1      21.019  12.080  11.603  0.00  0.00     0.049 C 
HETATM    2  C   UNK N   1      22.368  12.349  11.048  0.00  0.00    -0.047 A 
HETATM    3  C   UNK N   1      22.513  12.970   9.805  0.00  0.00     0.009 A 
HETATM    4  C   UNK N   1      23.791  13.214   9.301  0.00  0.00     0.018 A 
HETATM    5  C   UNK N   1      24.907  12.832  10.051  0.00  0.00     0.087 A 
HETATM    6  N   UNK N   1      24.743  12.227  11.261  0.00  0.00    -0.375 N 
ATOM      7  HN  UNK N   1      25.566  11.954  11.797  1.00  0.00     0.164 HD
HETATM    8  C   UNK N   1      23.507  11.982  11.768  0.00  0.00     0.094 A 
ENDROOT
TORSDOF 0
ENDMDL
MODEL 2
REMARK VINA RESULT:      -3.7      0.943      2.112
REMARK  0 active torsions:
REMARK  status: ('A' for Active; 'I' for Inactive)
ROOT
HETATM    1  C   UNK N   1      20.967  13.637   9.404  0.00  0.00     0.049 C 
HETATM    2  C   UNK N   1      22.149  13.079  10.106  0.00  0.00    -0.047 A 
HETATM    3  C   UNK N   1      21.989  12.268  11.231  0.00  0.00     0.009 A 
HETATM    4  C   UNK N   1      23.114  11.754  11.878  0.00  0.00     0.018 A 
HETATM    5  C   UNK N   1      24.385  12.061  11.385  0.00  0.00     0.087 A 
HETATM    6  N   UNK N   1      24.520  12.854  10.285  0.00  0.00    -0.375 N 
ATOM      7  HN  UNK N   1      25.453  13.070   9.937  1.00  0.00     0.164 HD
HETATM    8  C   UNK N   1      23.435  13.364   9.643  0.00  0.00     0.094 A 
ENDROOT
TORSDOF 0
ENDMDL
MODEL 3
REMARK VINA RESULT:      -3.7      1.114      1.834
REMARK  0 active torsions:
REMARK  status: ('A' for Active; 'I' for Inactive)
ROOT
HETATM    1  C   UNK N   1      23.194  11.845  13.075  0.00  0.00     0.049 C 
HETATM    2  C   UNK N   1      23.167  12.059  11.606  0.00  0.00    -0.047 A 
HETATM    3  C   UNK N   1      21.952  12.205  10.934  0.00  0.00     0.009 A 
HETATM    4  C   UNK N   1      21.947  12.405   9.553  0.00  0.00     0.018 A 
HETATM    5  C   UNK N   1      23.163  12.455   8.865  0.00  0.00     0.087 A 
HETATM    6  N   UNK N   1      24.337  12.310   9.540  0.00  0.00    -0.375 N 
ATOM      7  HN  UNK N   1      25.217  12.349   9.026  1.00  0.00     0.164 HD
HETATM    8  C   UNK N   1      24.361  12.115  10.885  0.00  0.00     0.094 A 
ENDROOT
TORSDOF 0
ENDMDL
MODEL 4
REMARK VINA RESULT:      -3.7     13.269     14.332
REMARK  0 active torsions:
REMARK  status: ('A' for Active; 'I' for Inactive)
ROOT
HETATM    1  C   UNK N   1      35.191  13.064  15.596  0.00  0.00     0.049 C 
HETATM    2  C   UNK N   1      35.254  12.776  17.051  0.00  0.00    -0.047 A 
HETATM    3  C   UNK N   1      35.397  11.464  17.508  0.00  0.00     0.009 A 
HETATM    4  C   UNK N   1      35.454  11.214  18.880  0.00  0.00     0.018 A 
HETATM    5  C   UNK N   1      35.366  12.285  19.774  0.00  0.00     0.087 A 
HETATM    6  N   UNK N   1      35.226  13.557  19.307  0.00  0.00    -0.375 N 
ATOM      7  HN  UNK N   1      35.163  14.329  19.970  1.00  0.00     0.164 HD
HETATM    8  C   UNK N   1      35.169  13.819  17.974  0.00  0.00     0.094 A 
ENDROOT
TORSDOF 0
ENDMDL
MODEL 5
REMARK VINA RESULT:      -3.5     19.243     20.553
REMARK  0 active torsions:
REMARK  status: ('A' for Active; 'I' for Inactive)
ROOT
HETATM    1  C   UNK N   1      27.193  24.242  -3.186  0.00  0.00     0.049 C 
HETATM    2  C   UNK N   1      26.418  25.243  -3.960  0.00  0.00    -0.047 A 
HETATM    3  C   UNK N   1      26.343  26.569  -3.531  0.00  0.00     0.009 A 
HETATM    4  C   UNK N   1      25.608  27.495  -4.274  0.00  0.00     0.018 A 
HETATM    5  C   UNK N   1      24.959  27.076  -5.438  0.00  0.00     0.087 A 
HETATM    6  N   UNK N   1      25.045  25.776  -5.840  0.00  0.00    -0.375 N 
ATOM      7  HN  UNK N   1      24.566  25.485  -6.691  1.00  0.00     0.164 HD
HETATM    8  C   UNK N   1      25.755  24.861  -5.129  0.00  0.00     0.094 A 
ENDROOT
TORSDOF 0
ENDMDL
MODEL 6
REMARK VINA RESULT:      -3.5     21.414     22.382
REMARK  0 active torsions:
REMARK  status: ('A' for Active; 'I' for Inactive)
ROOT
HETATM    1  C   UNK N   1      25.213  26.747  -6.073  0.00  0.00     0.049 C 
HETATM    2  C   UNK N   1      25.922  27.744  -5.233  0.00  0.00    -0.047 A 
HETATM    3  C   UNK N   1      26.947  28.524  -5.772  0.00  0.00     0.009 A 
HETATM    4  C   UNK N   1      27.601  29.457  -4.965  0.00  0.00     0.018 A 
HETATM    5  C   UNK N   1      27.218  29.593  -3.628  0.00  0.00     0.087 A 
HETATM    6  N   UNK N   1      26.215  28.821  -3.122  0.00  0.00    -0.375 N 
ATOM      7  HN  UNK N   1      25.945  28.931  -2.145  1.00  0.00     0.164 HD
HETATM    8  C   UNK N   1      25.566  27.908  -3.893  0.00  0.00     0.094 A 
ENDROOT
TORSDOF 0
ENDMDL
MODEL 7
REMARK VINA RESULT:      -3.5     19.917     20.755
REMARK  0 active torsions:
REMARK  status: ('A' for Active; 'I' for Inactive)
ROOT
HETATM    1  C   UNK N   1      26.190  23.937  -5.166  0.00  0.00     0.049 C 
HETATM    2  C   UNK N   1      25.962  25.350  -4.774  0.00  0.00    -0.047 A 
HETATM    3  C   UNK N   1      25.188  26.192  -5.576  0.00  0.00     0.009 A 
HETATM    4  C   UNK N   1      24.984  27.518  -5.190  0.00  0.00     0.018 A 
HETATM    5  C   UNK N   1      25.561  27.980  -4.004  0.00  0.00     0.087 A 
HETATM    6  N   UNK N   1      26.312  27.142  -3.236  0.00  0.00    -0.375 N 
ATOM      7  HN  UNK N   1      26.727  27.493  -2.373  1.00  0.00     0.164 HD
HETATM    8  C   UNK N   1      26.521  25.848  -3.596  0.00  0.00     0.094 A 
ENDROOT
TORSDOF 0
ENDMDL
MODEL 8
REMARK VINA RESULT:      -3.5     19.662     20.743
REMARK  0 active torsions:
REMARK  status: ('A' for Active; 'I' for Inactive)
ROOT
HETATM    1  C   UNK N   1      25.748  28.253  -4.018  0.00  0.00     0.049 C 
HETATM    2  C   UNK N   1      25.800  26.832  -4.441  0.00  0.00    -0.047 A 
HETATM    3  C   UNK N   1      26.464  25.884  -3.659  0.00  0.00     0.009 A 
HETATM    4  C   UNK N   1      26.502  24.552  -4.074  0.00  0.00     0.018 A 
HETATM    5  C   UNK N   1      25.873  24.189  -5.269  0.00  0.00     0.087 A 
HETATM    6  N   UNK N   1      25.231  25.130  -6.017  0.00  0.00    -0.375 N 
ATOM      7  HN  UNK N   1      24.777  24.852  -6.886  1.00  0.00     0.164 HD
HETATM    8  C   UNK N   1      25.184  26.432  -5.628  0.00  0.00     0.094 A 
ENDROOT
TORSDOF 0
ENDMDL
MODEL 9
REMARK VINA RESULT:      -3.5      1.402      2.431
REMARK  0 active torsions:
REMARK  status: ('A' for Active; 'I' for Inactive)
ROOT
HETATM    1  C   UNK N   1      21.797  12.985   8.355  0.00  0.00     0.049 C 
HETATM    2  C   UNK N   1      22.354  12.576   9.668  0.00  0.00    -0.047 A 
HETATM    3  C   UNK N   1      23.735  12.516   9.865  0.00  0.00     0.009 A 
HETATM    4  C   UNK N   1      24.239  12.128  11.107  0.00  0.00     0.018 A 
HETATM    5  C   UNK N   1      23.350  11.805  12.136  0.00  0.00     0.087 A 
HETATM    6  N   UNK N   1      22.005  11.870  11.922  0.00  0.00    -0.375 N 
ATOM      7  HN  UNK N   1      21.368  11.631  12.681  1.00  0.00     0.164 HD
HETATM    8  C   UNK N   1      21.497  12.245  10.719  0.00  0.00     0.094 A 
ENDROOT
TORSDOF 0
ENDMDL
