MODEL 1
REMARK VINA RESULT:      -7.3      0.000      0.000
REMARK  14 active torsions:
REMARK  status: ('A' for Active; 'I' for Inactive)
REMARK    1  A    between atoms: C_6  and  C_4 
REMARK    2  A    between atoms: O_24  and  C_4 
REMARK    3  A    between atoms: C_5  and  O_14 
REMARK    4  A    between atoms: O_15  and  C_7 
REMARK    5  A    between atoms: C_8  and  N_13 
REMARK    6  A    between atoms: P_27  and  N_12 
REMARK    7  A    between atoms: P_28  and  N_12 
REMARK    8  A    between atoms: P_27  and  O_18 
REMARK    9  A    between atoms: P_28  and  O_20 
REMARK   10  A    between atoms: P_29  and  O_21 
REMARK   11  A    between atoms: P_29  and  O_22 
REMARK   12  A    between atoms: P_27  and  O_24 
REMARK   13  A    between atoms: P_28  and  O_26 
REMARK   14  A    between atoms: P_29  and  O_26 
ROOT
HETATM    1  C   UNK N   1      20.964  16.609   6.920  0.00  0.00     0.214 C 
ENDROOT
BRANCH   1   2
HETATM    2  C   UNK N   1      21.451  15.252   7.401  0.00  0.00     0.177 C 
HETATM    3  C   UNK N   1      21.124  14.109   6.455  0.00  0.00     0.153 C 
HETATM    4  C   UNK N   1      21.380  12.964   7.372  0.00  0.00     0.088 C 
HETATM    5  C   UNK N   1      20.868  13.513   8.707  0.00  0.00     0.235 C 
HETATM    6  O   UNK N   1      20.894  14.928   8.649  0.00  0.00    -0.356 OA
BRANCH   3   7
HETATM    7  O   UNK N   1      19.773  14.097   6.094  0.00  0.00    -0.393 OA
HETATM    8  H   UNK N   1      18.891  14.274   6.458  0.00  0.00     0.210 HD
ENDBRANCH   3   7
BRANCH   5   9
HETATM    9  N   UNK N   1      21.683  12.964   9.810  0.00  0.00    -0.282 N 
HETATM   10  C   UNK N   1      23.039  13.006   9.658  0.00  0.00     0.102 A 
HETATM   11  C   UNK N   1      23.888  12.525  10.649  0.00  0.00     0.073 A 
HETATM   12  C   UNK N   1      23.334  12.002  11.810  0.00  0.00     0.144 A 
HETATM   13  N   UNK N   1      21.987  11.961  11.958  0.00  0.00    -0.289 N 
HETATM   14  C   UNK N   1      21.151  12.430  10.978  0.00  0.00     0.330 A 
ATOM     15  HN  UNK N   1      21.589  11.573  12.813  1.00  0.00     0.172 HD
HETATM   16  O   UNK N   1      19.947  12.382  11.161  0.00  0.00    -0.246 OA
BRANCH  12  17
HETATM   17  O   UNK N   1      24.131  11.540  12.785  0.00  0.00    -0.346 OA
HETATM   18  H   UNK N   1      23.781  11.296  13.619  0.00  0.00     0.219 HD
ENDBRANCH  12  17
ENDBRANCH   5   9
ENDBRANCH   1   2
BRANCH   1  19
HETATM   19  O   UNK N   1      22.034  17.433   6.563  0.00  0.00    -0.300 OA
BRANCH  19  20
HETATM   20  P   UNK N   1      21.628  18.093   5.008  0.00  0.00     0.353 P 
HETATM   21  O   UNK N   1      21.068  19.514   5.285  0.00  0.00    -0.637 OA
BRANCH  20  22
HETATM   22  N   UNK N   1      20.299  17.221   4.148  0.00  0.00    -0.240 N 
HETATM   23  H   UNK N   1      19.819  16.397   4.512  0.00  0.00     0.176 HD
BRANCH  22  24
HETATM   24  P   UNK N   1      19.936  17.999   2.558  0.00  0.00     0.362 P 
HETATM   25  O   UNK N   1      18.731  18.965   2.730  0.00  0.00    -0.636 OA
BRANCH  24  26
HETATM   26  O   UNK N   1      19.503  16.803   1.376  0.00  0.00    -0.312 OA
HETATM   27  H   UNK N   1      19.434  15.844   1.238  0.00  0.00     0.222 HD
ENDBRANCH  24  26
BRANCH  24  28
HETATM   28  O   UNK N   1      21.283  18.940   1.982  0.00  0.00    -0.201 OA
BRANCH  28  29
HETATM   29  P   UNK N   1      20.608  20.434   1.404  0.00  0.00     0.399 P 
HETATM   30  O   UNK N   1      22.090  20.795   1.692  0.00  0.00    -0.631 OA
BRANCH  29  31
HETATM   31  O   UNK N   1      21.154  21.082  -0.109  0.00  0.00    -0.307 OA
HETATM   32  H   UNK N   1      21.470  21.997  -0.159  0.00  0.00     0.222 HD
ENDBRANCH  29  31
BRANCH  29  33
HETATM   33  O   UNK N   1      20.497  19.224   0.163  0.00  0.00    -0.307 OA
HETATM   34  H   UNK N   1      20.974  19.091  -0.670  0.00  0.00     0.222 HD
ENDBRANCH  29  33
ENDBRANCH  28  29
ENDBRANCH  24  28
ENDBRANCH  22  24
ENDBRANCH  20  22
BRANCH  20  35
HETATM   35  O   UNK N   1      23.010  18.329   3.985  0.00  0.00    -0.312 OA
HETATM   36  H   UNK N   1      23.190  17.714   3.255  0.00  0.00     0.222 HD
ENDBRANCH  20  35
ENDBRANCH  19  20
ENDBRANCH   1  19
TORSDOF 14
ENDMDL
MODEL 2
REMARK VINA RESULT:      -7.0      1.910      2.984
REMARK  14 active torsions:
REMARK  status: ('A' for Active; 'I' for Inactive)
REMARK    1  A    between atoms: C_6  and  C_4 
REMARK    2  A    between atoms: O_24  and  C_4 
REMARK    3  A    between atoms: C_5  and  O_14 
REMARK    4  A    between atoms: O_15  and  C_7 
REMARK    5  A    between atoms: C_8  and  N_13 
REMARK    6  A    between atoms: P_27  and  N_12 
REMARK    7  A    between atoms: P_28  and  N_12 
REMARK    8  A    between atoms: P_27  and  O_18 
REMARK    9  A    between atoms: P_28  and  O_20 
REMARK   10  A    between atoms: P_29  and  O_21 
REMARK   11  A    between atoms: P_29  and  O_22 
REMARK   12  A    between atoms: P_27  and  O_24 
REMARK   13  A    between atoms: P_28  and  O_26 
REMARK   14  A    between atoms: P_29  and  O_26 
ROOT
HETATM    1  C   UNK N   1      20.142  13.801   5.329  0.00  0.00     0.214 C 
ENDROOT
BRANCH   1   2
HETATM    2  C   UNK N   1      20.406  14.031   6.808  0.00  0.00     0.177 C 
HETATM    3  C   UNK N   1      20.377  15.493   7.220  0.00  0.00     0.153 C 
HETATM    4  C   UNK N   1      21.024  15.374   8.556  0.00  0.00     0.088 C 
HETATM    5  C   UNK N   1      22.073  14.289   8.300  0.00  0.00     0.235 C 
HETATM    6  O   UNK N   1      21.659  13.520   7.184  0.00  0.00    -0.356 OA
BRANCH   3   7
HETATM    7  O   UNK N   1      21.189  16.285   6.401  0.00  0.00    -0.393 OA
HETATM    8  H   UNK N   1      21.453  17.208   6.262  0.00  0.00     0.210 HD
ENDBRANCH   3   7
BRANCH   5   9
HETATM    9  N   UNK N   1      22.256  13.481   9.523  0.00  0.00    -0.282 N 
HETATM   10  C   UNK N   1      21.126  13.090  10.181  0.00  0.00     0.102 A 
HETATM   11  C   UNK N   1      21.198  12.315  11.333  0.00  0.00     0.073 A 
HETATM   12  C   UNK N   1      22.446  11.937  11.809  0.00  0.00     0.144 A 
HETATM   13  N   UNK N   1      23.566  12.328  11.155  0.00  0.00    -0.289 N 
HETATM   14  C   UNK N   1      23.495  13.095  10.022  0.00  0.00     0.330 A 
ATOM     15  HN  UNK N   1      24.479  12.046  11.513  1.00  0.00     0.172 HD
HETATM   16  O   UNK N   1      24.529  13.413   9.461  0.00  0.00    -0.246 OA
BRANCH  12  17
HETATM   17  O   UNK N   1      22.542  11.183  12.915  0.00  0.00    -0.346 OA
HETATM   18  H   UNK N   1      22.710  10.263  12.857  0.00  0.00     0.219 HD
ENDBRANCH  12  17
ENDBRANCH   5   9
ENDBRANCH   1   2
BRANCH   1  19
HETATM   19  O   UNK N   1      21.249  14.157   4.556  0.00  0.00    -0.300 OA
BRANCH  19  20
HETATM   20  P   UNK N   1      20.612  14.710   3.037  0.00  0.00     0.353 P 
HETATM   21  O   UNK N   1      21.177  13.742   1.965  0.00  0.00    -0.637 OA
BRANCH  20  22
HETATM   22  N   UNK N   1      21.180  16.351   2.540  0.00  0.00    -0.240 N 
HETATM   23  H   UNK N   1      22.012  16.529   1.976  0.00  0.00     0.176 HD
BRANCH  22  24
HETATM   24  P   UNK N   1      20.081  17.638   3.176  0.00  0.00     0.362 P 
HETATM   25  O   UNK N   1      19.202  17.039   4.309  0.00  0.00    -0.636 OA
BRANCH  24  26
HETATM   26  O   UNK N   1      19.026  18.215   1.923  0.00  0.00    -0.312 OA
HETATM   27  H   UNK N   1      18.875  18.182   0.965  0.00  0.00     0.222 HD
ENDBRANCH  24  26
BRANCH  24  28
HETATM   28  O   UNK N   1      20.976  18.967   3.855  0.00  0.00    -0.201 OA
BRANCH  28  29
HETATM   29  P   UNK N   1      21.100  20.154   2.591  0.00  0.00     0.399 P 
HETATM   30  O   UNK N   1      20.100  20.795   3.588  0.00  0.00    -0.631 OA
BRANCH  29  31
HETATM   31  O   UNK N   1      21.823  21.691   2.937  0.00  0.00    -0.307 OA
HETATM   32  H   UNK N   1      21.407  22.507   2.618  0.00  0.00     0.222 HD
ENDBRANCH  29  31
BRANCH  29  33
HETATM   33  O   UNK N   1      22.654  19.927   3.332  0.00  0.00    -0.307 OA
HETATM   34  H   UNK N   1      23.134  20.418   4.017  0.00  0.00     0.222 HD
ENDBRANCH  29  33
ENDBRANCH  28  29
ENDBRANCH  24  28
ENDBRANCH  22  24
ENDBRANCH  20  22
BRANCH  20  35
HETATM   35  O   UNK N   1      18.885  14.566   2.930  0.00  0.00    -0.312 OA
HETATM   36  H   UNK N   1      18.317  15.331   3.119  0.00  0.00     0.222 HD
ENDBRANCH  20  35
ENDBRANCH  19  20
ENDBRANCH   1  19
TORSDOF 14
ENDMDL
MODEL 3
REMARK VINA RESULT:      -6.9     11.430     15.321
REMARK  14 active torsions:
REMARK  status: ('A' for Active; 'I' for Inactive)
REMARK    1  A    between atoms: C_6  and  C_4 
REMARK    2  A    between atoms: O_24  and  C_4 
REMARK    3  A    between atoms: C_5  and  O_14 
REMARK    4  A    between atoms: O_15  and  C_7 
REMARK    5  A    between atoms: C_8  and  N_13 
REMARK    6  A    between atoms: P_27  and  N_12 
REMARK    7  A    between atoms: P_28  and  N_12 
REMARK    8  A    between atoms: P_27  and  O_18 
REMARK    9  A    between atoms: P_28  and  O_20 
REMARK   10  A    between atoms: P_29  and  O_21 
REMARK   11  A    between atoms: P_29  and  O_22 
REMARK   12  A    between atoms: P_27  and  O_24 
REMARK   13  A    between atoms: P_28  and  O_26 
REMARK   14  A    between atoms: P_29  and  O_26 
ROOT
HETATM    1  C   UNK N   1      34.295  14.809   8.735  0.00  0.00     0.214 C 
ENDROOT
BRANCH   1   2
HETATM    2  C   UNK N   1      33.444  15.989   8.295  0.00  0.00     0.177 C 
HETATM    3  C   UNK N   1      34.116  17.339   8.484  0.00  0.00     0.153 C 
HETATM    4  C   UNK N   1      32.925  18.219   8.331  0.00  0.00     0.088 C 
HETATM    5  C   UNK N   1      31.834  17.389   9.015  0.00  0.00     0.235 C 
HETATM    6  O   UNK N   1      32.231  16.030   9.001  0.00  0.00    -0.356 OA
BRANCH   3   7
HETATM    7  O   UNK N   1      34.623  17.496   9.778  0.00  0.00    -0.393 OA
HETATM    8  H   UNK N   1      34.439  17.247  10.698  0.00  0.00     0.210 HD
ENDBRANCH   3   7
BRANCH   5   9
HETATM    9  N   UNK N   1      30.541  17.622   8.340  0.00  0.00    -0.282 N 
HETATM   10  C   UNK N   1      30.412  17.141   7.069  0.00  0.00     0.102 A 
HETATM   11  C   UNK N   1      29.227  17.299   6.359  0.00  0.00     0.073 A 
HETATM   12  C   UNK N   1      28.165  17.956   6.966  0.00  0.00     0.144 A 
HETATM   13  N   UNK N   1      28.297  18.434   8.227  0.00  0.00    -0.289 N 
HETATM   14  C   UNK N   1      29.466  18.282   8.925  0.00  0.00     0.330 A 
ATOM     15  HN  UNK N   1      27.511  18.917   8.664  1.00  0.00     0.172 HD
HETATM   16  O   UNK N   1      29.535  18.719  10.060  0.00  0.00    -0.246 OA
BRANCH  12  17
HETATM   17  O   UNK N   1      27.008  18.115   6.305  0.00  0.00    -0.346 OA
HETATM   18  H   UNK N   1      26.467  17.379   6.097  0.00  0.00     0.219 HD
ENDBRANCH  12  17
ENDBRANCH   5   9
ENDBRANCH   1   2
BRANCH   1  19
HETATM   19  O   UNK N   1      35.651  15.143   8.757  0.00  0.00    -0.300 OA
BRANCH  19  20
HETATM   20  P   UNK N   1      36.282  14.476  10.232  0.00  0.00     0.353 P 
HETATM   21  O   UNK N   1      35.913  12.969  10.205  0.00  0.00    -0.637 OA
BRANCH  20  22
HETATM   22  N   UNK N   1      35.517  15.125  11.734  0.00  0.00    -0.240 N 
HETATM   23  H   UNK N   1      34.868  15.913  11.759  0.00  0.00     0.176 HD
BRANCH  22  24
HETATM   24  P   UNK N   1      36.054  14.195  13.189  0.00  0.00     0.362 P 
HETATM   25  O   UNK N   1      36.753  15.166  14.180  0.00  0.00    -0.636 OA
BRANCH  24  26
HETATM   26  O   UNK N   1      37.195  12.966  12.742  0.00  0.00    -0.312 OA
HETATM   27  H   UNK N   1      38.095  12.835  12.403  0.00  0.00     0.222 HD
ENDBRANCH  24  26
BRANCH  24  28
HETATM   28  O   UNK N   1      34.705  13.476  14.023  0.00  0.00    -0.201 OA
BRANCH  28  29
HETATM   29  P   UNK N   1      34.865  11.760  13.796  0.00  0.00     0.399 P 
HETATM   30  O   UNK N   1      33.848  11.875  14.962  0.00  0.00    -0.631 OA
BRANCH  29  31
HETATM   31  O   UNK N   1      33.505  10.849  13.222  0.00  0.00    -0.307 OA
HETATM   32  H   UNK N   1      33.088  10.188  13.794  0.00  0.00     0.222 HD
ENDBRANCH  29  31
BRANCH  29  33
HETATM   33  O   UNK N   1      34.232  12.483  12.350  0.00  0.00    -0.307 OA
HETATM   34  H   UNK N   1      33.678  12.141  11.632  0.00  0.00     0.222 HD
ENDBRANCH  29  33
ENDBRANCH  28  29
ENDBRANCH  24  28
ENDBRANCH  22  24
ENDBRANCH  20  22
BRANCH  20  35
HETATM   35  O   UNK N   1      38.015  14.530  10.318  0.00  0.00    -0.312 OA
HETATM   36  H   UNK N   1      38.519  13.732  10.547  0.00  0.00     0.222 HD
ENDBRANCH  20  35
ENDBRANCH  19  20
ENDBRANCH   1  19
TORSDOF 14
ENDMDL
MODEL 4
REMARK VINA RESULT:      -6.9      9.747     12.297
REMARK  14 active torsions:
REMARK  status: ('A' for Active; 'I' for Inactive)
REMARK    1  A    between atoms: C_6  and  C_4 
REMARK    2  A    between atoms: O_24  and  C_4 
REMARK    3  A    between atoms: C_5  and  O_14 
REMARK    4  A    between atoms: O_15  and  C_7 
REMARK    5  A    between atoms: C_8  and  N_13 
REMARK    6  A    between atoms: P_27  and  N_12 
REMARK    7  A    between atoms: P_28  and  N_12 
REMARK    8  A    between atoms: P_27  and  O_18 
REMARK    9  A    between atoms: P_28  and  O_20 
REMARK   10  A    between atoms: P_29  and  O_21 
REMARK   11  A    between atoms: P_29  and  O_22 
REMARK   12  A    between atoms: P_27  and  O_24 
REMARK   13  A    between atoms: P_28  and  O_26 
REMARK   14  A    between atoms: P_29  and  O_26 
ROOT
HETATM    1  C   UNK N   1      32.120  17.825   8.851  0.00  0.00     0.214 C 
ENDROOT
BRANCH   1   2
HETATM    2  C   UNK N   1      30.780  18.402   8.424  0.00  0.00     0.177 C 
HETATM    3  C   UNK N   1      29.727  18.390   9.520  0.00  0.00     0.153 C 
HETATM    4  C   UNK N   1      28.518  18.641   8.687  0.00  0.00     0.088 C 
HETATM    5  C   UNK N   1      28.843  17.847   7.418  0.00  0.00     0.235 C 
HETATM    6  O   UNK N   1      30.249  17.695   7.334  0.00  0.00    -0.356 OA
BRANCH   3   7
HETATM    7  O   UNK N   1      29.604  17.131  10.116  0.00  0.00    -0.393 OA
HETATM    8  H   UNK N   1      28.935  16.523  10.471  0.00  0.00     0.210 HD
ENDBRANCH   3   7
BRANCH   5   9
HETATM    9  N   UNK N   1      28.264  18.534   6.246  0.00  0.00    -0.282 N 
HETATM   10  C   UNK N   1      27.588  19.696   6.481  0.00  0.00     0.102 A 
HETATM   11  C   UNK N   1      27.021  20.420   5.438  0.00  0.00     0.073 A 
HETATM   12  C   UNK N   1      27.155  19.944   4.141  0.00  0.00     0.144 A 
HETATM   13  N   UNK N   1      27.826  18.789   3.911  0.00  0.00    -0.289 N 
HETATM   14  C   UNK N   1      28.380  18.073   4.939  0.00  0.00     0.330 A 
ATOM     15  HN  UNK N   1      27.918  18.446   2.954  1.00  0.00     0.172 HD
HETATM   16  O   UNK N   1      28.983  17.046   4.682  0.00  0.00    -0.246 OA
BRANCH  12  17
HETATM   17  O   UNK N   1      26.624  20.628   3.116  0.00  0.00    -0.346 OA
HETATM   18  H   UNK N   1      25.798  21.060   3.203  0.00  0.00     0.219 HD
ENDBRANCH  12  17
ENDBRANCH   5   9
ENDBRANCH   1   2
BRANCH   1  19
HETATM   19  O   UNK N   1      32.176  16.449   8.619  0.00  0.00    -0.300 OA
BRANCH  19  20
HETATM   20  P   UNK N   1      33.656  15.903   9.348  0.00  0.00     0.353 P 
HETATM   21  O   UNK N   1      34.458  17.187   9.688  0.00  0.00    -0.637 OA
BRANCH  20  22
HETATM   22  N   UNK N   1      34.727  14.953   8.246  0.00  0.00    -0.240 N 
HETATM   23  H   UNK N   1      35.270  14.137   8.529  0.00  0.00     0.176 HD
BRANCH  22  24
HETATM   24  P   UNK N   1      34.711  15.642   6.574  0.00  0.00     0.362 P 
HETATM   25  O   UNK N   1      36.038  15.265   5.859  0.00  0.00    -0.636 OA
BRANCH  24  26
HETATM   26  O   UNK N   1      34.600  17.374   6.628  0.00  0.00    -0.312 OA
HETATM   27  H   UNK N   1      35.061  18.167   6.944  0.00  0.00     0.222 HD
ENDBRANCH  24  26
BRANCH  24  28
HETATM   28  O   UNK N   1      33.403  14.994   5.627  0.00  0.00    -0.201 OA
BRANCH  28  29
HETATM   29  P   UNK N   1      33.081  16.172   4.390  0.00  0.00     0.399 P 
HETATM   30  O   UNK N   1      32.982  14.821   3.634  0.00  0.00    -0.631 OA
BRANCH  29  31
HETATM   31  O   UNK N   1      31.504  16.240   3.672  0.00  0.00    -0.307 OA
HETATM   32  H   UNK N   1      31.323  16.867   2.955  0.00  0.00     0.222 HD
ENDBRANCH  29  31
BRANCH  29  33
HETATM   33  O   UNK N   1      31.867  16.279   5.627  0.00  0.00    -0.307 OA
HETATM   34  H   UNK N   1      30.924  16.055   5.645  0.00  0.00     0.222 HD
ENDBRANCH  29  33
ENDBRANCH  28  29
ENDBRANCH  24  28
ENDBRANCH  22  24
ENDBRANCH  20  22
BRANCH  20  35
HETATM   35  O   UNK N   1      33.410  15.092  10.863  0.00  0.00    -0.312 OA
HETATM   36  H   UNK N   1      33.970  14.339  11.112  0.00  0.00     0.222 HD
ENDBRANCH  20  35
ENDBRANCH  19  20
ENDBRANCH   1  19
TORSDOF 14
ENDMDL
MODEL 5
REMARK VINA RESULT:      -6.9     14.092     16.592
REMARK  14 active torsions:
REMARK  status: ('A' for Active; 'I' for Inactive)
REMARK    1  A    between atoms: C_6  and  C_4 
REMARK    2  A    between atoms: O_24  and  C_4 
REMARK    3  A    between atoms: C_5  and  O_14 
REMARK    4  A    between atoms: O_15  and  C_7 
REMARK    5  A    between atoms: C_8  and  N_13 
REMARK    6  A    between atoms: P_27  and  N_12 
REMARK    7  A    between atoms: P_28  and  N_12 
REMARK    8  A    between atoms: P_27  and  O_18 
REMARK    9  A    between atoms: P_28  and  O_20 
REMARK   10  A    between atoms: P_29  and  O_21 
REMARK   11  A    between atoms: P_29  and  O_22 
REMARK   12  A    between atoms: P_27  and  O_24 
REMARK   13  A    between atoms: P_28  and  O_26 
REMARK   14  A    between atoms: P_29  and  O_26 
ROOT
HETATM    1  C   UNK N   1      37.145  11.788  12.810  0.00  0.00     0.214 C 
ENDROOT
BRANCH   1   2
HETATM    2  C   UNK N   1      36.194  11.566  13.974  0.00  0.00     0.177 C 
HETATM    3  C   UNK N   1      34.727  11.544  13.577  0.00  0.00     0.153 C 
HETATM    4  C   UNK N   1      34.116  11.694  14.927  0.00  0.00     0.088 C 
HETATM    5  C   UNK N   1      35.093  12.657  15.607  0.00  0.00     0.235 C 
HETATM    6  O   UNK N   1      36.343  12.566  14.948  0.00  0.00    -0.356 OA
BRANCH   3   7
HETATM    7  O   UNK N   1      34.377  12.656  12.804  0.00  0.00    -0.393 OA
HETATM    8  H   UNK N   1      33.599  13.143  12.488  0.00  0.00     0.210 HD
ENDBRANCH   3   7
BRANCH   5   9
HETATM    9  N   UNK N   1      35.173  12.343  17.048  0.00  0.00    -0.282 N 
HETATM   10  C   UNK N   1      35.201  11.022  17.392  0.00  0.00     0.102 A 
HETATM   11  C   UNK N   1      35.289  10.629  18.723  0.00  0.00     0.073 A 
HETATM   12  C   UNK N   1      35.355  11.606  19.707  0.00  0.00     0.144 A 
HETATM   13  N   UNK N   1      35.326  12.916  19.362  0.00  0.00    -0.289 N 
HETATM   14  C   UNK N   1      35.234  13.303  18.051  0.00  0.00     0.330 A 
ATOM     15  HN  UNK N   1      35.373  13.627  20.093  1.00  0.00     0.172 HD
HETATM   16  O   UNK N   1      35.222  14.493  17.789  0.00  0.00    -0.246 OA
BRANCH  12  17
HETATM   17  O   UNK N   1      35.450  11.252  20.998  0.00  0.00    -0.346 OA
HETATM   18  H   UNK N   1      36.153  11.563  21.532  0.00  0.00     0.219 HD
ENDBRANCH  12  17
ENDBRANCH   5   9
ENDBRANCH   1   2
BRANCH   1  19
HETATM   19  O   UNK N   1      36.582  11.357  11.606  0.00  0.00    -0.300 OA
BRANCH  19  20
HETATM   20  P   UNK N   1      37.374  12.266  10.356  0.00  0.00     0.353 P 
HETATM   21  O   UNK N   1      38.755  11.587  10.151  0.00  0.00    -0.637 OA
BRANCH  20  22
HETATM   22  N   UNK N   1      37.749  13.977  10.798  0.00  0.00    -0.240 N 
HETATM   23  H   UNK N   1      38.691  14.364  10.865  0.00  0.00     0.176 HD
BRANCH  22  24
HETATM   24  P   UNK N   1      36.234  14.913  11.109  0.00  0.00     0.362 P 
HETATM   25  O   UNK N   1      36.430  16.373  10.616  0.00  0.00    -0.636 OA
BRANCH  24  26
HETATM   26  O   UNK N   1      35.881  14.959  12.808  0.00  0.00    -0.312 OA
HETATM   27  H   UNK N   1      35.180  14.784  13.456  0.00  0.00     0.222 HD
ENDBRANCH  24  26
BRANCH  24  28
HETATM   28  O   UNK N   1      34.880  14.245  10.241  0.00  0.00    -0.201 OA
BRANCH  28  29
HETATM   29  P   UNK N   1      33.960  15.607   9.673  0.00  0.00     0.399 P 
HETATM   30  O   UNK N   1      33.628  14.494   8.644  0.00  0.00    -0.631 OA
BRANCH  29  31
HETATM   31  O   UNK N   1      32.227  15.538   9.716  0.00  0.00    -0.307 OA
HETATM   32  H   UNK N   1      31.741  15.111   8.994  0.00  0.00     0.222 HD
ENDBRANCH  29  31
BRANCH  29  33
HETATM   33  O   UNK N   1      33.420  15.160  11.262  0.00  0.00    -0.307 OA
HETATM   34  H   UNK N   1      32.823  15.584  11.897  0.00  0.00     0.222 HD
ENDBRANCH  29  33
ENDBRANCH  28  29
ENDBRANCH  24  28
ENDBRANCH  22  24
ENDBRANCH  20  22
BRANCH  20  35
HETATM   35  O   UNK N   1      36.570  12.159   8.821  0.00  0.00    -0.312 OA
HETATM   36  H   UNK N   1      36.545  12.925   8.227  0.00  0.00     0.222 HD
ENDBRANCH  20  35
ENDBRANCH  19  20
ENDBRANCH   1  19
TORSDOF 14
ENDMDL
MODEL 6
REMARK VINA RESULT:      -6.8     13.860     15.801
REMARK  14 active torsions:
REMARK  status: ('A' for Active; 'I' for Inactive)
REMARK    1  A    between atoms: C_6  and  C_4 
REMARK    2  A    between atoms: O_24  and  C_4 
REMARK    3  A    between atoms: C_5  and  O_14 
REMARK    4  A    between atoms: O_15  and  C_7 
REMARK    5  A    between atoms: C_8  and  N_13 
REMARK    6  A    between atoms: P_27  and  N_12 
REMARK    7  A    between atoms: P_28  and  N_12 
REMARK    8  A    between atoms: P_27  and  O_18 
REMARK    9  A    between atoms: P_28  and  O_20 
REMARK   10  A    between atoms: P_29  and  O_21 
REMARK   11  A    between atoms: P_29  and  O_22 
REMARK   12  A    between atoms: P_27  and  O_24 
REMARK   13  A    between atoms: P_28  and  O_26 
REMARK   14  A    between atoms: P_29  and  O_26 
ROOT
HETATM    1  C   UNK N   1      36.770  13.644  13.331  0.00  0.00     0.214 C 
ENDROOT
BRANCH   1   2
HETATM    2  C   UNK N   1      36.243  12.733  14.428  0.00  0.00     0.177 C 
HETATM    3  C   UNK N   1      35.069  11.868  14.001  0.00  0.00     0.153 C 
HETATM    4  C   UNK N   1      34.597  11.431  15.344  0.00  0.00     0.088 C 
HETATM    5  C   UNK N   1      34.832  12.691  16.182  0.00  0.00     0.235 C 
HETATM    6  O   UNK N   1      35.825  13.474  15.544  0.00  0.00    -0.356 OA
BRANCH   3   7
HETATM    7  O   UNK N   1      34.056  12.621  13.396  0.00  0.00    -0.393 OA
HETATM    8  H   UNK N   1      33.175  12.525  13.002  0.00  0.00     0.210 HD
ENDBRANCH   3   7
BRANCH   5   9
HETATM    9  N   UNK N   1      35.197  12.305  17.561  0.00  0.00    -0.282 N 
HETATM   10  C   UNK N   1      35.479  10.988  17.780  0.00  0.00     0.102 A 
HETATM   11  C   UNK N   1      35.845  10.533  19.042  0.00  0.00     0.073 A 
HETATM   12  C   UNK N   1      35.926  11.445  20.086  0.00  0.00     0.144 A 
HETATM   13  N   UNK N   1      35.644  12.752  19.865  0.00  0.00    -0.289 N 
HETATM   14  C   UNK N   1      35.278  13.199  18.623  0.00  0.00     0.330 A 
ATOM     15  HN  UNK N   1      35.704  13.414  20.639  1.00  0.00     0.172 HD
HETATM   16  O   UNK N   1      35.044  14.385  18.470  0.00  0.00    -0.246 OA
BRANCH  12  17
HETATM   17  O   UNK N   1      36.285  11.032  21.311  0.00  0.00    -0.346 OA
HETATM   18  H   UNK N   1      36.027  11.509  22.075  0.00  0.00     0.219 HD
ENDBRANCH  12  17
ENDBRANCH   5   9
ENDBRANCH   1   2
BRANCH   1  19
HETATM   19  O   UNK N   1      36.172  14.906  13.390  0.00  0.00    -0.300 OA
BRANCH  19  20
HETATM   20  P   UNK N   1      35.752  15.311  11.754  0.00  0.00     0.353 P 
HETATM   21  O   UNK N   1      35.258  16.781  11.796  0.00  0.00    -0.637 OA
BRANCH  20  22
HETATM   22  N   UNK N   1      34.368  14.366  11.080  0.00  0.00    -0.240 N 
HETATM   23  H   UNK N   1      33.876  13.625  11.580  0.00  0.00     0.176 HD
BRANCH  22  24
HETATM   24  P   UNK N   1      33.971  14.905   9.400  0.00  0.00     0.362 P 
HETATM   25  O   UNK N   1      32.489  15.368   9.354  0.00  0.00    -0.636 OA
BRANCH  24  26
HETATM   26  O   UNK N   1      34.163  13.596   8.276  0.00  0.00    -0.312 OA
HETATM   27  H   UNK N   1      34.379  13.399   7.351  0.00  0.00     0.222 HD
ENDBRANCH  24  26
BRANCH  24  28
HETATM   28  O   UNK N   1      34.957  16.255   8.912  0.00  0.00    -0.201 OA
BRANCH  28  29
HETATM   29  P   UNK N   1      33.868  17.405   8.196  0.00  0.00     0.399 P 
HETATM   30  O   UNK N   1      35.072  18.277   8.639  0.00  0.00    -0.631 OA
BRANCH  29  31
HETATM   31  O   UNK N   1      34.329  18.211   6.731  0.00  0.00    -0.307 OA
HETATM   32  H   UNK N   1      33.901  17.978   5.893  0.00  0.00     0.222 HD
ENDBRANCH  29  31
BRANCH  29  33
HETATM   33  O   UNK N   1      34.354  16.241   7.002  0.00  0.00    -0.307 OA
HETATM   34  H   UNK N   1      35.029  15.545   6.999  0.00  0.00     0.222 HD
ENDBRANCH  29  33
ENDBRANCH  28  29
ENDBRANCH  24  28
ENDBRANCH  22  24
ENDBRANCH  20  22
BRANCH  20  35
HETATM   35  O   UNK N   1      37.117  15.309  10.680  0.00  0.00    -0.312 OA
HETATM   36  H   UNK N   1      38.011  15.466  11.024  0.00  0.00     0.222 HD
ENDBRANCH  20  35
ENDBRANCH  19  20
ENDBRANCH   1  19
TORSDOF 14
ENDMDL
MODEL 7
REMARK VINA RESULT:      -6.8     12.710     15.136
REMARK  14 active torsions:
REMARK  status: ('A' for Active; 'I' for Inactive)
REMARK    1  A    between atoms: C_6  and  C_4 
REMARK    2  A    between atoms: O_24  and  C_4 
REMARK    3  A    between atoms: C_5  and  O_14 
REMARK    4  A    between atoms: O_15  and  C_7 
REMARK    5  A    between atoms: C_8  and  N_13 
REMARK    6  A    between atoms: P_27  and  N_12 
REMARK    7  A    between atoms: P_28  and  N_12 
REMARK    8  A    between atoms: P_27  and  O_18 
REMARK    9  A    between atoms: P_28  and  O_20 
REMARK   10  A    between atoms: P_29  and  O_21 
REMARK   11  A    between atoms: P_29  and  O_22 
REMARK   12  A    between atoms: P_27  and  O_24 
REMARK   13  A    between atoms: P_28  and  O_26 
REMARK   14  A    between atoms: P_29  and  O_26 
ROOT
HETATM    1  C   UNK N   1      35.218  13.713  11.953  0.00  0.00     0.214 C 
ENDROOT
BRANCH   1   2
HETATM    2  C   UNK N   1      35.822  13.293  13.283  0.00  0.00     0.177 C 
HETATM    3  C   UNK N   1      36.980  12.318  13.155  0.00  0.00     0.153 C 
HETATM    4  C   UNK N   1      37.055  11.854  14.568  0.00  0.00     0.088 C 
HETATM    5  C   UNK N   1      35.576  11.813  14.962  0.00  0.00     0.235 C 
HETATM    6  O   UNK N   1      34.860  12.686  14.107  0.00  0.00    -0.356 OA
BRANCH   3   7
HETATM    7  O   UNK N   1      36.657  11.224  12.344  0.00  0.00    -0.393 OA
HETATM    8  H   UNK N   1      37.001  10.360  12.066  0.00  0.00     0.210 HD
ENDBRANCH   3   7
BRANCH   5   9
HETATM    9  N   UNK N   1      35.437  12.159  16.391  0.00  0.00    -0.282 N 
HETATM   10  C   UNK N   1      35.416  13.487  16.707  0.00  0.00     0.102 A 
HETATM   11  C   UNK N   1      35.275  13.909  18.024  0.00  0.00     0.073 A 
HETATM   12  C   UNK N   1      35.148  12.955  19.024  0.00  0.00     0.144 A 
HETATM   13  N   UNK N   1      35.170  11.637  18.708  0.00  0.00    -0.289 N 
HETATM   14  C   UNK N   1      35.315  11.221  17.410  0.00  0.00     0.330 A 
ATOM     15  HN  UNK N   1      35.079  10.943  19.450  1.00  0.00     0.172 HD
HETATM   16  O   UNK N   1      35.318  10.026  17.173  0.00  0.00    -0.246 OA
BRANCH  12  17
HETATM   17  O   UNK N   1      35.002  13.337  20.302  0.00  0.00    -0.346 OA
HETATM   18  H   UNK N   1      34.873  14.238  20.523  0.00  0.00     0.219 HD
ENDBRANCH  12  17
ENDBRANCH   5   9
ENDBRANCH   1   2
BRANCH   1  19
HETATM   19  O   UNK N   1      34.729  15.020  12.009  0.00  0.00    -0.300 OA
BRANCH  19  20
HETATM   20  P   UNK N   1      35.072  15.723  10.458  0.00  0.00     0.353 P 
HETATM   21  O   UNK N   1      36.373  16.547  10.646  0.00  0.00    -0.637 OA
BRANCH  20  22
HETATM   22  N   UNK N   1      33.838  16.912   9.886  0.00  0.00    -0.240 N 
HETATM   23  H   UNK N   1      33.004  17.178  10.411  0.00  0.00     0.176 HD
BRANCH  22  24
HETATM   24  P   UNK N   1      34.274  17.567   8.258  0.00  0.00     0.362 P 
HETATM   25  O   UNK N   1      35.114  16.507   7.495  0.00  0.00    -0.636 OA
BRANCH  24  26
HETATM   26  O   UNK N   1      35.233  19.006   8.415  0.00  0.00    -0.312 OA
HETATM   27  H   UNK N   1      35.492  19.696   9.046  0.00  0.00     0.222 HD
ENDBRANCH  24  26
BRANCH  24  28
HETATM   28  O   UNK N   1      32.858  17.901   7.302  0.00  0.00    -0.201 OA
BRANCH  28  29
HETATM   29  P   UNK N   1      32.899  16.772   5.980  0.00  0.00     0.399 P 
HETATM   30  O   UNK N   1      31.422  17.247   6.002  0.00  0.00    -0.631 OA
BRANCH  29  31
HETATM   31  O   UNK N   1      32.648  17.349   4.364  0.00  0.00    -0.307 OA
HETATM   32  H   UNK N   1      33.399  17.436   3.757  0.00  0.00     0.222 HD
ENDBRANCH  29  31
BRANCH  29  33
HETATM   33  O   UNK N   1      33.969  18.099   5.648  0.00  0.00    -0.307 OA
HETATM   34  H   UNK N   1      34.349  18.448   4.828  0.00  0.00     0.222 HD
ENDBRANCH  29  33
ENDBRANCH  28  29
ENDBRANCH  24  28
ENDBRANCH  22  24
ENDBRANCH  20  22
BRANCH  20  35
HETATM   35  O   UNK N   1      35.440  14.542   9.240  0.00  0.00    -0.312 OA
HETATM   36  H   UNK N   1      36.274  14.047   9.275  0.00  0.00     0.222 HD
ENDBRANCH  20  35
ENDBRANCH  19  20
ENDBRANCH   1  19
TORSDOF 14
ENDMDL
MODEL 8
REMARK VINA RESULT:      -6.7     11.513     15.658
REMARK  14 active torsions:
REMARK  status: ('A' for Active; 'I' for Inactive)
REMARK    1  A    between atoms: C_6  and  C_4 
REMARK    2  A    between atoms: O_24  and  C_4 
REMARK    3  A    between atoms: C_5  and  O_14 
REMARK    4  A    between atoms: O_15  and  C_7 
REMARK    5  A    between atoms: C_8  and  N_13 
REMARK    6  A    between atoms: P_27  and  N_12 
REMARK    7  A    between atoms: P_28  and  N_12 
REMARK    8  A    between atoms: P_27  and  O_18 
REMARK    9  A    between atoms: P_28  and  O_20 
REMARK   10  A    between atoms: P_29  and  O_21 
REMARK   11  A    between atoms: P_29  and  O_22 
REMARK   12  A    between atoms: P_27  and  O_24 
REMARK   13  A    between atoms: P_28  and  O_26 
REMARK   14  A    between atoms: P_29  and  O_26 
ROOT
HETATM    1  C   UNK N   1      34.442  14.871   9.082  0.00  0.00     0.214 C 
ENDROOT
BRANCH   1   2
HETATM    2  C   UNK N   1      33.606  15.922   8.370  0.00  0.00     0.177 C 
HETATM    3  C   UNK N   1      34.362  17.201   8.053  0.00  0.00     0.153 C 
HETATM    4  C   UNK N   1      33.206  18.086   7.740  0.00  0.00     0.088 C 
HETATM    5  C   UNK N   1      32.162  17.606   8.753  0.00  0.00     0.235 C 
HETATM    6  O   UNK N   1      32.486  16.282   9.136  0.00  0.00    -0.356 OA
BRANCH   3   7
HETATM    7  O   UNK N   1      35.022  17.712   9.176  0.00  0.00    -0.393 OA
HETATM    8  H   UNK N   1      35.241  17.484  10.094  0.00  0.00     0.210 HD
ENDBRANCH   3   7
BRANCH   5   9
HETATM    9  N   UNK N   1      30.813  17.724   8.163  0.00  0.00    -0.282 N 
HETATM   10  C   UNK N   1      30.626  17.169   6.930  0.00  0.00     0.102 A 
HETATM   11  C   UNK N   1      29.387  17.218   6.301  0.00  0.00     0.073 A 
HETATM   12  C   UNK N   1      28.329  17.840   6.952  0.00  0.00     0.144 A 
HETATM   13  N   UNK N   1      28.518  18.391   8.175  0.00  0.00    -0.289 N 
HETATM   14  C   UNK N   1      29.741  18.348   8.792  0.00  0.00     0.330 A 
ATOM     15  HN  UNK N   1      27.736  18.848   8.644  1.00  0.00     0.172 HD
HETATM   16  O   UNK N   1      29.860  18.847   9.897  0.00  0.00    -0.246 OA
BRANCH  12  17
HETATM   17  O   UNK N   1      27.121  17.893   6.370  0.00  0.00    -0.346 OA
HETATM   18  H   UNK N   1      26.876  18.622   5.836  0.00  0.00     0.219 HD
ENDBRANCH  12  17
ENDBRANCH   5   9
ENDBRANCH   1   2
BRANCH   1  19
HETATM   19  O   UNK N   1      34.305  14.969  10.469  0.00  0.00    -0.300 OA
BRANCH  19  20
HETATM   20  P   UNK N   1      35.902  14.762  11.121  0.00  0.00     0.353 P 
HETATM   21  O   UNK N   1      36.546  13.611  10.303  0.00  0.00    -0.637 OA
BRANCH  20  22
HETATM   22  N   UNK N   1      35.942  14.203  12.838  0.00  0.00    -0.240 N 
HETATM   23  H   UNK N   1      36.306  14.753  13.617  0.00  0.00     0.176 HD
BRANCH  22  24
HETATM   24  P   UNK N   1      35.255  12.538  12.994  0.00  0.00     0.362 P 
HETATM   25  O   UNK N   1      36.421  11.516  13.100  0.00  0.00    -0.636 OA
BRANCH  24  26
HETATM   26  O   UNK N   1      34.309  12.133  11.596  0.00  0.00    -0.312 OA
HETATM   27  H   UNK N   1      34.361  11.707  10.725  0.00  0.00     0.222 HD
ENDBRANCH  24  26
BRANCH  24  28
HETATM   28  O   UNK N   1      34.286  12.377  14.431  0.00  0.00    -0.201 OA
BRANCH  28  29
HETATM   29  P   UNK N   1      35.346  12.726  15.763  0.00  0.00     0.399 P 
HETATM   30  O   UNK N   1      34.017  13.412  16.173  0.00  0.00    -0.631 OA
BRANCH  29  31
HETATM   31  O   UNK N   1      35.012  12.035  17.318  0.00  0.00    -0.307 OA
HETATM   32  H   UNK N   1      34.125  12.110  17.702  0.00  0.00     0.222 HD
ENDBRANCH  29  31
BRANCH  29  33
HETATM   33  O   UNK N   1      35.137  11.008  15.619  0.00  0.00    -0.307 OA
HETATM   34  H   UNK N   1      34.795  10.334  16.225  0.00  0.00     0.222 HD
ENDBRANCH  29  33
ENDBRANCH  28  29
ENDBRANCH  24  28
ENDBRANCH  22  24
ENDBRANCH  20  22
BRANCH  20  35
HETATM   35  O   UNK N   1      36.925  16.142  10.869  0.00  0.00    -0.312 OA
HETATM   36  H   UNK N   1      36.786  16.721  10.103  0.00  0.00     0.222 HD
ENDBRANCH  20  35
ENDBRANCH  19  20
ENDBRANCH   1  19
TORSDOF 14
ENDMDL
MODEL 9
REMARK VINA RESULT:      -6.7     10.780     13.634
REMARK  14 active torsions:
REMARK  status: ('A' for Active; 'I' for Inactive)
REMARK    1  A    between atoms: C_6  and  C_4 
REMARK    2  A    between atoms: O_24  and  C_4 
REMARK    3  A    between atoms: C_5  and  O_14 
REMARK    4  A    between atoms: O_15  and  C_7 
REMARK    5  A    between atoms: C_8  and  N_13 
REMARK    6  A    between atoms: P_27  and  N_12 
REMARK    7  A    between atoms: P_28  and  N_12 
REMARK    8  A    between atoms: P_27  and  O_18 
REMARK    9  A    between atoms: P_28  and  O_20 
REMARK   10  A    between atoms: P_29  and  O_21 
REMARK   11  A    between atoms: P_29  and  O_22 
REMARK   12  A    between atoms: P_27  and  O_24 
REMARK   13  A    between atoms: P_28  and  O_26 
REMARK   14  A    between atoms: P_29  and  O_26 
ROOT
HETATM    1  C   UNK N   1      33.357  16.591   5.681  0.00  0.00     0.214 C 
ENDROOT
BRANCH   1   2
HETATM    2  C   UNK N   1      31.902  16.402   5.286  0.00  0.00     0.177 C 
HETATM    3  C   UNK N   1      31.573  16.896   3.887  0.00  0.00     0.153 C 
HETATM    4  C   UNK N   1      30.087  16.913   3.987  0.00  0.00     0.088 C 
HETATM    5  C   UNK N   1      29.877  17.375   5.432  0.00  0.00     0.235 C 
HETATM    6  O   UNK N   1      31.045  17.073   6.173  0.00  0.00    -0.356 OA
BRANCH   3   7
HETATM    7  O   UNK N   1      32.020  18.204   3.674  0.00  0.00    -0.393 OA
HETATM    8  H   UNK N   1      32.399  18.961   4.149  0.00  0.00     0.210 HD
ENDBRANCH   3   7
BRANCH   5   9
HETATM    9  N   UNK N   1      28.662  16.739   5.981  0.00  0.00    -0.282 N 
HETATM   10  C   UNK N   1      28.192  15.637   5.328  0.00  0.00     0.102 A 
HETATM   11  C   UNK N   1      27.062  14.963   5.779  0.00  0.00     0.073 A 
HETATM   12  C   UNK N   1      26.415  15.427   6.916  0.00  0.00     0.144 A 
HETATM   13  N   UNK N   1      26.883  16.522   7.561  0.00  0.00    -0.289 N 
HETATM   14  C   UNK N   1      27.993  17.189   7.114  0.00  0.00     0.330 A 
ATOM     15  HN  UNK N   1      26.399  16.856   8.395  1.00  0.00     0.172 HD
HETATM   16  O   UNK N   1      28.383  18.163   7.733  0.00  0.00    -0.246 OA
BRANCH  12  17
HETATM   17  O   UNK N   1      25.327  14.789   7.376  0.00  0.00    -0.346 OA
HETATM   18  H   UNK N   1      25.051  14.888   8.265  0.00  0.00     0.219 HD
ENDBRANCH  12  17
ENDBRANCH   5   9
ENDBRANCH   1   2
BRANCH   1  19
HETATM   19  O   UNK N   1      33.579  17.870   6.199  0.00  0.00    -0.300 OA
BRANCH  19  20
HETATM   20  P   UNK N   1      34.024  17.640   7.862  0.00  0.00     0.353 P 
HETATM   21  O   UNK N   1      34.869  18.882   8.249  0.00  0.00    -0.637 OA
BRANCH  20  22
HETATM   22  N   UNK N   1      35.103  16.222   8.159  0.00  0.00    -0.240 N 
HETATM   23  H   UNK N   1      35.556  15.677   7.425  0.00  0.00     0.176 HD
BRANCH  22  24
HETATM   24  P   UNK N   1      35.272  15.894   9.929  0.00  0.00     0.362 P 
HETATM   25  O   UNK N   1      34.199  14.855  10.356  0.00  0.00    -0.636 OA
BRANCH  24  26
HETATM   26  O   UNK N   1      35.014  17.345  10.846  0.00  0.00    -0.312 OA
HETATM   27  H   UNK N   1      35.236  17.777  11.687  0.00  0.00     0.222 HD
ENDBRANCH  24  26
BRANCH  24  28
HETATM   28  O   UNK N   1      36.832  15.222  10.310  0.00  0.00    -0.201 OA
BRANCH  28  29
HETATM   29  P   UNK N   1      36.517  13.750  11.178  0.00  0.00     0.399 P 
HETATM   30  O   UNK N   1      37.969  13.561  10.665  0.00  0.00    -0.631 OA
BRANCH  29  31
HETATM   31  O   UNK N   1      37.406  13.413  12.629  0.00  0.00    -0.307 OA
HETATM   32  H   UNK N   1      38.229  13.891  12.816  0.00  0.00     0.222 HD
ENDBRANCH  29  31
BRANCH  29  33
HETATM   33  O   UNK N   1      36.416  15.100  12.265  0.00  0.00    -0.307 OA
HETATM   34  H   UNK N   1      36.026  15.208  13.145  0.00  0.00     0.222 HD
ENDBRANCH  29  33
ENDBRANCH  28  29
ENDBRANCH  24  28
ENDBRANCH  22  24
ENDBRANCH  20  22
BRANCH  20  35
HETATM   35  O   UNK N   1      32.662  17.649   8.940  0.00  0.00    -0.312 OA
HETATM   36  H   UNK N   1      31.915  17.049   8.789  0.00  0.00     0.222 HD
ENDBRANCH  20  35
ENDBRANCH  19  20
ENDBRANCH   1  19
TORSDOF 14
ENDMDL
