MODEL 1
REMARK VINA RESULT:      -8.3      0.000      0.000
REMARK  3 active torsions:
REMARK  status: ('A' for Active; 'I' for Inactive)
REMARK    1  A    between atoms: C_5  and  C_9 
REMARK    2  A    between atoms: C_11  and  C_28 
REMARK    3  A    between atoms: N_19  and  C_20 
ROOT
HETATM    1  C   UNK N   1      20.268  16.831   8.023  0.00  0.00    -0.014 A 
HETATM    2  C   UNK N   1      20.726  17.520   6.890  0.00  0.00     0.020 A 
HETATM    3  C   UNK N   1      21.568  16.925   5.948  0.00  0.00    -0.051 A 
HETATM    4  C   UNK N   1      21.985  15.610   6.142  0.00  0.00     0.038 A 
HETATM    5  C   UNK N   1      21.605  14.884   7.274  0.00  0.00     0.050 A 
HETATM    6  C   UNK N   1      20.717  15.485   8.207  0.00  0.00    -0.019 A 
HETATM    7  C   UNK N   1      20.266  14.642   9.364  0.00  0.00     0.051 C 
HETATM    8  C   UNK N   1      21.432  13.857   9.912  0.00  0.00     0.108 C 
HETATM    9  C   UNK N   1      22.030  13.043   8.806  0.00  0.00     0.229 C 
HETATM   10  O   UNK N   1      22.499  11.947   9.080  0.00  0.00    -0.273 OA
HETATM   11  N   UNK N   1      22.136  13.558   7.534  0.00  0.00    -0.279 N 
ENDROOT
BRANCH   1  12
HETATM   12  C   UNK N   1      19.380  17.567   9.007  0.00  0.00     0.013 A 
HETATM   13  C   UNK N   1      19.864  18.687   9.708  0.00  0.00     0.018 A 
HETATM   14  C   UNK N   1      19.054  19.411  10.583  0.00  0.00     0.043 A 
HETATM   15  C   UNK N   1      17.729  19.032  10.778  0.00  0.00     0.119 A 
HETATM   16  F   UNK N   1      16.938  19.743  11.616  0.00  0.00    -0.206 F 
HETATM   17  C   UNK N   1      17.219  17.923  10.106  0.00  0.00     0.085 A 
HETATM   18  C   UNK N   1      18.024  17.190   9.227  0.00  0.00     0.130 A 
HETATM   19  F   UNK N   1      17.466  16.127   8.597  0.00  0.00    -0.205 F 
ENDBRANCH   1  12
BRANCH   3  20
HETATM   20  C   UNK N   1      22.164  17.722   4.817  0.00  0.00     0.022 C 
HETATM   21  C   UNK N   1      21.401  19.006   4.509  0.00  0.00     0.028 C 
HETATM   22  C   UNK N   1      21.997  19.625   3.245  0.00  0.00     0.114 C 
HETATM   23  N   UNK N   1      23.414  19.934   3.447  0.00  0.00    -0.421 N 
HETATM   24  C   UNK N   1      24.150  18.692   3.686  0.00  0.00     0.114 C 
HETATM   25  H   UNK N   1      23.824  20.867   3.426  0.00  0.00     0.153 HD
HETATM   26  C   UNK N   1      23.656  18.026   4.967  0.00  0.00     0.028 C 
ENDBRANCH   3  20
BRANCH  11  27
HETATM   27  C   UNK N   1      22.805  12.785   6.513  0.00  0.00     0.086 A 
HETATM   28  C   UNK N   1      22.047  11.934   5.660  0.00  0.00     0.063 A 
HETATM   29 Cl   UNK N   1      20.291  11.836   5.747  0.00  0.00    -0.082 Cl
HETATM   30  C   UNK N   1      22.683  11.161   4.686  0.00  0.00     0.026 A 
HETATM   31  C   UNK N   1      24.065  11.205   4.539  0.00  0.00     0.003 A 
HETATM   32  C   UNK N   1      24.826  12.016   5.375  0.00  0.00     0.026 A 
HETATM   33  C   UNK N   1      24.220  12.804   6.358  0.00  0.00     0.063 A 
HETATM   34 Cl   UNK N   1      25.297  13.688   7.432  0.00  0.00    -0.082 Cl
ENDBRANCH  11  27
TORSDOF 3
ENDMDL
MODEL 2
REMARK VINA RESULT:      -8.3      4.937      8.907
REMARK  3 active torsions:
REMARK  status: ('A' for Active; 'I' for Inactive)
REMARK    1  A    between atoms: C_5  and  C_9 
REMARK    2  A    between atoms: C_11  and  C_28 
REMARK    3  A    between atoms: N_19  and  C_20 
ROOT
HETATM    1  C   UNK N   1      24.461  14.931   3.003  0.00  0.00    -0.014 A 
HETATM    2  C   UNK N   1      23.474  15.169   3.970  0.00  0.00     0.020 A 
HETATM    3  C   UNK N   1      23.620  16.147   4.957  0.00  0.00    -0.051 A 
HETATM    4  C   UNK N   1      24.789  16.903   4.998  0.00  0.00     0.038 A 
HETATM    5  C   UNK N   1      25.832  16.682   4.093  0.00  0.00     0.050 A 
HETATM    6  C   UNK N   1      25.657  15.711   3.070  0.00  0.00    -0.019 A 
HETATM    7  C   UNK N   1      26.766  15.565   2.068  0.00  0.00     0.051 C 
HETATM    8  C   UNK N   1      28.100  15.611   2.770  0.00  0.00     0.108 C 
HETATM    9  C   UNK N   1      28.194  16.888   3.549  0.00  0.00     0.229 C 
HETATM   10  O   UNK N   1      29.287  17.425   3.653  0.00  0.00    -0.273 OA
HETATM   11  N   UNK N   1      27.095  17.387   4.212  0.00  0.00    -0.279 N 
ENDROOT
BRANCH   1  12
HETATM   12  C   UNK N   1      24.227  13.828   1.988  0.00  0.00     0.013 A 
HETATM   13  C   UNK N   1      23.523  14.090   0.799  0.00  0.00     0.018 A 
HETATM   14  C   UNK N   1      23.334  13.107  -0.174  0.00  0.00     0.043 A 
HETATM   15  C   UNK N   1      23.851  11.829   0.021  0.00  0.00     0.119 A 
HETATM   16  F   UNK N   1      23.681  10.878  -0.928  0.00  0.00    -0.206 F 
HETATM   17  C   UNK N   1      24.547  11.533   1.191  0.00  0.00     0.085 A 
HETATM   18  C   UNK N   1      24.740  12.512   2.173  0.00  0.00     0.130 A 
HETATM   19  F   UNK N   1      25.433  12.164   3.284  0.00  0.00    -0.205 F 
ENDBRANCH   1  12
BRANCH   3  20
HETATM   20  C   UNK N   1      22.616  16.291   6.072  0.00  0.00     0.022 C 
HETATM   21  C   UNK N   1      21.599  17.402   5.835  0.00  0.00     0.028 C 
HETATM   22  C   UNK N   1      20.757  17.558   7.101  0.00  0.00     0.114 C 
HETATM   23  N   UNK N   1      20.056  16.308   7.404  0.00  0.00    -0.421 N 
HETATM   24  C   UNK N   1      21.037  15.260   7.686  0.00  0.00     0.114 C 
HETATM   25  H   UNK N   1      19.044  16.188   7.417  0.00  0.00     0.153 HD
HETATM   26  C   UNK N   1      21.895  14.996   6.452  0.00  0.00     0.028 C 
ENDBRANCH   3  20
BRANCH  11  27
HETATM   27  C   UNK N   1      27.243  18.567   5.033  0.00  0.00     0.086 A 
HETATM   28  C   UNK N   1      27.717  18.444   6.369  0.00  0.00     0.063 A 
HETATM   29 Cl   UNK N   1      28.211  16.899   7.054  0.00  0.00    -0.082 Cl
HETATM   30  C   UNK N   1      27.839  19.573   7.182  0.00  0.00     0.026 A 
HETATM   31  C   UNK N   1      27.494  20.831   6.702  0.00  0.00     0.003 A 
HETATM   32  C   UNK N   1      27.010  20.971   5.406  0.00  0.00     0.026 A 
HETATM   33  C   UNK N   1      26.879  19.862   4.565  0.00  0.00     0.063 A 
HETATM   34 Cl   UNK N   1      26.139  20.149   2.994  0.00  0.00    -0.082 Cl
ENDBRANCH  11  27
TORSDOF 3
ENDMDL
MODEL 3
REMARK VINA RESULT:      -8.3      6.397     10.217
REMARK  3 active torsions:
REMARK  status: ('A' for Active; 'I' for Inactive)
REMARK    1  A    between atoms: C_5  and  C_9 
REMARK    2  A    between atoms: C_11  and  C_28 
REMARK    3  A    between atoms: N_19  and  C_20 
ROOT
HETATM    1  C   UNK N   1      28.945  16.408   3.540  0.00  0.00    -0.014 A 
HETATM    2  C   UNK N   1      28.264  15.467   2.755  0.00  0.00     0.020 A 
HETATM    3  C   UNK N   1      26.902  15.585   2.468  0.00  0.00    -0.051 A 
HETATM    4  C   UNK N   1      26.186  16.660   2.989  0.00  0.00     0.038 A 
HETATM    5  C   UNK N   1      26.795  17.606   3.819  0.00  0.00     0.050 A 
HETATM    6  C   UNK N   1      28.190  17.498   4.074  0.00  0.00    -0.019 A 
HETATM    7  C   UNK N   1      28.821  18.582   4.899  0.00  0.00     0.051 C 
HETATM    8  C   UNK N   1      27.922  18.932   6.059  0.00  0.00     0.108 C 
HETATM    9  C   UNK N   1      26.577  19.324   5.528  0.00  0.00     0.229 C 
HETATM   10  O   UNK N   1      25.947  20.187   6.122  0.00  0.00    -0.273 OA
HETATM   11  N   UNK N   1      26.024  18.657   4.458  0.00  0.00    -0.279 N 
ENDROOT
BRANCH   1  12
HETATM   12  C   UNK N   1      30.418  16.182   3.822  0.00  0.00     0.013 A 
HETATM   13  C   UNK N   1      31.398  16.682   2.946  0.00  0.00     0.018 A 
HETATM   14  C   UNK N   1      32.761  16.530   3.206  0.00  0.00     0.043 A 
HETATM   15  C   UNK N   1      33.179  15.871   4.358  0.00  0.00     0.119 A 
HETATM   16  F   UNK N   1      34.501  15.736   4.619  0.00  0.00    -0.206 F 
HETATM   17  C   UNK N   1      32.235  15.357   5.244  0.00  0.00     0.085 A 
HETATM   18  C   UNK N   1      30.866  15.503   4.992  0.00  0.00     0.130 A 
HETATM   19  F   UNK N   1      29.999  14.989   5.897  0.00  0.00    -0.205 F 
ENDBRANCH   1  12
BRANCH   3  20
HETATM   20  C   UNK N   1      26.156  14.492   1.745  0.00  0.00     0.022 C 
HETATM   21  C   UNK N   1      26.425  13.099   2.304  0.00  0.00     0.028 C 
HETATM   22  C   UNK N   1      25.755  12.078   1.385  0.00  0.00     0.114 C 
HETATM   23  N   UNK N   1      24.311  12.313   1.327  0.00  0.00    -0.421 N 
HETATM   24  C   UNK N   1      24.059  13.627   0.738  0.00  0.00     0.114 C 
HETATM   25  H   UNK N   1      23.594  11.663   1.648  0.00  0.00     0.153 HD
HETATM   26  C   UNK N   1      24.649  14.723   1.621  0.00  0.00     0.028 C 
ENDBRANCH   3  20
BRANCH  11  27
HETATM   27  C   UNK N   1      24.685  18.995   4.031  0.00  0.00     0.086 A 
HETATM   28  C   UNK N   1      24.477  20.107   3.168  0.00  0.00     0.063 A 
HETATM   29 Cl   UNK N   1      25.809  21.062   2.526  0.00  0.00    -0.082 Cl
HETATM   30  C   UNK N   1      23.186  20.460   2.770  0.00  0.00     0.026 A 
HETATM   31  C   UNK N   1      22.085  19.736   3.214  0.00  0.00     0.003 A 
HETATM   32  C   UNK N   1      22.265  18.658   4.074  0.00  0.00     0.026 A 
HETATM   33  C   UNK N   1      23.544  18.276   4.490  0.00  0.00     0.063 A 
HETATM   34 Cl   UNK N   1      23.632  16.977   5.674  0.00  0.00    -0.082 Cl
ENDBRANCH  11  27
TORSDOF 3
ENDMDL
MODEL 4
REMARK VINA RESULT:      -8.2      4.996      8.254
REMARK  3 active torsions:
REMARK  status: ('A' for Active; 'I' for Inactive)
REMARK    1  A    between atoms: C_5  and  C_9 
REMARK    2  A    between atoms: C_11  and  C_28 
REMARK    3  A    between atoms: N_19  and  C_20 
ROOT
HETATM    1  C   UNK N   1      26.282  15.804   6.387  0.00  0.00    -0.014 A 
HETATM    2  C   UNK N   1      25.889  14.816   7.301  0.00  0.00     0.020 A 
HETATM    3  C   UNK N   1      24.566  14.377   7.399  0.00  0.00    -0.051 A 
HETATM    4  C   UNK N   1      23.597  14.948   6.577  0.00  0.00     0.038 A 
HETATM    5  C   UNK N   1      23.914  15.972   5.679  0.00  0.00     0.050 A 
HETATM    6  C   UNK N   1      25.269  16.384   5.560  0.00  0.00    -0.019 A 
HETATM    7  C   UNK N   1      25.579  17.425   4.525  0.00  0.00     0.051 C 
HETATM    8  C   UNK N   1      24.520  18.499   4.544  0.00  0.00     0.108 C 
HETATM    9  C   UNK N   1      23.181  17.861   4.334  0.00  0.00     0.229 C 
HETATM   10  O   UNK N   1      22.332  18.485   3.713  0.00  0.00    -0.273 OA
HETATM   11  N   UNK N   1      22.884  16.647   4.911  0.00  0.00    -0.279 N 
ENDROOT
BRANCH   1  12
HETATM   12  C   UNK N   1      27.735  16.237   6.371  0.00  0.00     0.013 A 
HETATM   13  C   UNK N   1      28.192  17.237   7.249  0.00  0.00     0.018 A 
HETATM   14  C   UNK N   1      29.533  17.621   7.288  0.00  0.00     0.043 A 
HETATM   15  C   UNK N   1      30.457  17.008   6.447  0.00  0.00     0.119 A 
HETATM   16  F   UNK N   1      31.761  17.370   6.495  0.00  0.00    -0.206 F 
HETATM   17  C   UNK N   1      30.037  16.019   5.560  0.00  0.00     0.085 A 
HETATM   18  C   UNK N   1      28.694  15.628   5.512  0.00  0.00     0.130 A 
HETATM   19  F   UNK N   1      28.352  14.654   4.634  0.00  0.00    -0.205 F 
ENDBRANCH   1  12
BRANCH   3  20
HETATM   20  C   UNK N   1      24.137  13.421   8.481  0.00  0.00     0.022 C 
HETATM   21  C   UNK N   1      25.107  13.355   9.655  0.00  0.00     0.028 C 
HETATM   22  C   UNK N   1      24.651  12.235  10.591  0.00  0.00     0.114 C 
HETATM   23  N   UNK N   1      23.299  12.503  11.086  0.00  0.00    -0.421 N 
HETATM   24  C   UNK N   1      22.365  12.509   9.961  0.00  0.00     0.114 C 
HETATM   25  H   UNK N   1      23.050  12.661  12.062  0.00  0.00     0.153 HD
HETATM   26  C   UNK N   1      22.711  13.637   8.995  0.00  0.00     0.028 C 
ENDBRANCH   3  20
BRANCH  11  27
HETATM   27  C   UNK N   1      21.551  16.106   4.770  0.00  0.00     0.086 A 
HETATM   28  C   UNK N   1      20.546  16.444   5.719  0.00  0.00     0.063 A 
HETATM   29 Cl   UNK N   1      20.840  17.570   7.040  0.00  0.00    -0.082 Cl
HETATM   30  C   UNK N   1      19.262  15.906   5.610  0.00  0.00     0.026 A 
HETATM   31  C   UNK N   1      18.947  15.030   4.577  0.00  0.00     0.003 A 
HETATM   32  C   UNK N   1      19.920  14.672   3.650  0.00  0.00     0.026 A 
HETATM   33  C   UNK N   1      21.214  15.193   3.729  0.00  0.00     0.063 A 
HETATM   34 Cl   UNK N   1      22.387  14.569   2.575  0.00  0.00    -0.082 Cl
ENDBRANCH  11  27
TORSDOF 3
ENDMDL
MODEL 5
REMARK VINA RESULT:      -8.2      4.892      8.227
REMARK  3 active torsions:
REMARK  status: ('A' for Active; 'I' for Inactive)
REMARK    1  A    between atoms: C_5  and  C_9 
REMARK    2  A    between atoms: C_11  and  C_28 
REMARK    3  A    between atoms: N_19  and  C_20 
ROOT
HETATM    1  C   UNK N   1      26.260  15.757   6.310  0.00  0.00    -0.014 A 
HETATM    2  C   UNK N   1      25.900  14.759   7.227  0.00  0.00     0.020 A 
HETATM    3  C   UNK N   1      24.578  14.334   7.383  0.00  0.00    -0.051 A 
HETATM    4  C   UNK N   1      23.577  14.929   6.618  0.00  0.00     0.038 A 
HETATM    5  C   UNK N   1      23.862  15.962   5.721  0.00  0.00     0.050 A 
HETATM    6  C   UNK N   1      25.215  16.361   5.542  0.00  0.00    -0.019 A 
HETATM    7  C   UNK N   1      25.487  17.414   4.508  0.00  0.00     0.051 C 
HETATM    8  C   UNK N   1      24.443  18.500   4.595  0.00  0.00     0.108 C 
HETATM    9  C   UNK N   1      23.087  17.881   4.441  0.00  0.00     0.229 C 
HETATM   10  O   UNK N   1      22.216  18.523   3.872  0.00  0.00    -0.273 OA
HETATM   11  N   UNK N   1      22.804  16.661   5.014  0.00  0.00    -0.279 N 
ENDROOT
BRANCH   1  12
HETATM   12  C   UNK N   1      27.715  16.174   6.230  0.00  0.00     0.013 A 
HETATM   13  C   UNK N   1      28.521  15.752   5.157  0.00  0.00     0.018 A 
HETATM   14  C   UNK N   1      29.850  16.159   5.033  0.00  0.00     0.043 A 
HETATM   15  C   UNK N   1      30.409  17.006   5.986  0.00  0.00     0.119 A 
HETATM   16  F   UNK N   1      31.695  17.413   5.860  0.00  0.00    -0.206 F 
HETATM   17  C   UNK N   1      29.642  17.436   7.067  0.00  0.00     0.085 A 
HETATM   18  C   UNK N   1      28.308  17.032   7.199  0.00  0.00     0.130 A 
HETATM   19  F   UNK N   1      27.613  17.493   8.268  0.00  0.00    -0.205 F 
ENDBRANCH   1  12
BRANCH   3  20
HETATM   20  C   UNK N   1      24.190  13.366   8.471  0.00  0.00     0.022 C 
HETATM   21  C   UNK N   1      25.134  13.386   9.668  0.00  0.00     0.028 C 
HETATM   22  C   UNK N   1      24.735  12.250  10.610  0.00  0.00     0.114 C 
HETATM   23  N   UNK N   1      23.356  12.430  11.070  0.00  0.00    -0.421 N 
HETATM   24  C   UNK N   1      22.451  12.354   9.924  0.00  0.00     0.114 C 
HETATM   25  H   UNK N   1      23.072  12.584  12.037  0.00  0.00     0.153 HD
HETATM   26  C   UNK N   1      22.741  13.489   8.947  0.00  0.00     0.028 C 
ENDBRANCH   3  20
BRANCH  11  27
HETATM   27  C   UNK N   1      21.460  16.137   4.930  0.00  0.00     0.086 A 
HETATM   28  C   UNK N   1      21.081  15.339   3.814  0.00  0.00     0.063 A 
HETATM   29 Cl   UNK N   1      22.218  14.894   2.545  0.00  0.00    -0.082 Cl
HETATM   30  C   UNK N   1      19.778  14.848   3.706  0.00  0.00     0.026 A 
HETATM   31  C   UNK N   1      18.831  15.135   4.683  0.00  0.00     0.003 A 
HETATM   32  C   UNK N   1      19.175  15.929   5.772  0.00  0.00     0.026 A 
HETATM   33  C   UNK N   1      20.471  16.434   5.911  0.00  0.00     0.063 A 
HETATM   34 Cl   UNK N   1      20.750  17.526   7.263  0.00  0.00    -0.082 Cl
ENDBRANCH  11  27
TORSDOF 3
ENDMDL
MODEL 6
REMARK VINA RESULT:      -8.2      4.903      8.854
REMARK  3 active torsions:
REMARK  status: ('A' for Active; 'I' for Inactive)
REMARK    1  A    between atoms: C_5  and  C_9 
REMARK    2  A    between atoms: C_11  and  C_28 
REMARK    3  A    between atoms: N_19  and  C_20 
ROOT
HETATM    1  C   UNK N   1      24.408  14.867   3.052  0.00  0.00    -0.014 A 
HETATM    2  C   UNK N   1      23.437  15.044   4.048  0.00  0.00     0.020 A 
HETATM    3  C   UNK N   1      23.571  16.001   5.057  0.00  0.00    -0.051 A 
HETATM    4  C   UNK N   1      24.713  16.798   5.091  0.00  0.00     0.038 A 
HETATM    5  C   UNK N   1      25.741  16.640   4.158  0.00  0.00     0.050 A 
HETATM    6  C   UNK N   1      25.577  15.690   3.113  0.00  0.00    -0.019 A 
HETATM    7  C   UNK N   1      26.666  15.611   2.083  0.00  0.00     0.051 C 
HETATM    8  C   UNK N   1      28.014  15.687   2.755  0.00  0.00     0.108 C 
HETATM    9  C   UNK N   1      28.080  16.946   3.565  0.00  0.00     0.229 C 
HETATM   10  O   UNK N   1      29.156  17.520   3.659  0.00  0.00    -0.273 OA
HETATM   11  N   UNK N   1      26.980  17.387   4.266  0.00  0.00    -0.279 N 
ENDROOT
BRANCH   1  12
HETATM   12  C   UNK N   1      24.191  13.784   2.014  0.00  0.00     0.013 A 
HETATM   13  C   UNK N   1      23.485  14.062   0.829  0.00  0.00     0.018 A 
HETATM   14  C   UNK N   1      23.311  13.097  -0.164  0.00  0.00     0.043 A 
HETATM   15  C   UNK N   1      23.844  11.822   0.004  0.00  0.00     0.119 A 
HETATM   16  F   UNK N   1      23.688  10.890  -0.966  0.00  0.00    -0.206 F 
HETATM   17  C   UNK N   1      24.541  11.511   1.169  0.00  0.00     0.085 A 
HETATM   18  C   UNK N   1      24.720  12.471   2.171  0.00  0.00     0.130 A 
HETATM   19  F   UNK N   1      25.417  12.108   3.276  0.00  0.00    -0.205 F 
ENDBRANCH   1  12
BRANCH   3  20
HETATM   20  C   UNK N   1      22.589  16.079   6.198  0.00  0.00     0.022 C 
HETATM   21  C   UNK N   1      21.462  17.079   5.963  0.00  0.00     0.028 C 
HETATM   22  C   UNK N   1      20.644  17.188   7.250  0.00  0.00     0.114 C 
HETATM   23  N   UNK N   1      20.078  15.886   7.607  0.00  0.00    -0.421 N 
HETATM   24  C   UNK N   1      21.165  14.947   7.886  0.00  0.00     0.114 C 
HETATM   25  H   UNK N   1      19.084  15.668   7.654  0.00  0.00     0.153 HD
HETATM   26  C   UNK N   1      22.009  14.732   6.634  0.00  0.00     0.028 C 
ENDBRANCH   3  20
BRANCH  11  27
HETATM   27  C   UNK N   1      27.105  18.550   5.115  0.00  0.00     0.086 A 
HETATM   28  C   UNK N   1      26.684  19.823   4.636  0.00  0.00     0.063 A 
HETATM   29 Cl   UNK N   1      25.939  20.035   3.055  0.00  0.00    -0.082 Cl
HETATM   30  C   UNK N   1      26.824  20.959   5.436  0.00  0.00     0.026 A 
HETATM   31  C   UNK N   1      27.378  20.866   6.708  0.00  0.00     0.003 A 
HETATM   32  C   UNK N   1      27.812  19.635   7.187  0.00  0.00     0.026 A 
HETATM   33  C   UNK N   1      27.686  18.478   6.413  0.00  0.00     0.063 A 
HETATM   34 Cl   UNK N   1      28.385  17.006   7.078  0.00  0.00    -0.082 Cl
ENDBRANCH  11  27
TORSDOF 3
ENDMDL
MODEL 7
REMARK VINA RESULT:      -8.0     16.376     17.703
REMARK  3 active torsions:
REMARK  status: ('A' for Active; 'I' for Inactive)
REMARK    1  A    between atoms: C_5  and  C_9 
REMARK    2  A    between atoms: C_11  and  C_28 
REMARK    3  A    between atoms: N_19  and  C_20 
ROOT
HETATM    1  C   UNK N   1      28.136  25.813  -5.194  0.00  0.00    -0.014 A 
HETATM    2  C   UNK N   1      27.304  24.956  -5.929  0.00  0.00     0.020 A 
HETATM    3  C   UNK N   1      27.739  23.711  -6.390  0.00  0.00    -0.051 A 
HETATM    4  C   UNK N   1      29.047  23.307  -6.128  0.00  0.00     0.038 A 
HETATM    5  C   UNK N   1      29.941  24.134  -5.443  0.00  0.00     0.050 A 
HETATM    6  C   UNK N   1      29.478  25.382  -4.945  0.00  0.00    -0.019 A 
HETATM    7  C   UNK N   1      30.445  26.201  -4.142  0.00  0.00     0.051 C 
HETATM    8  C   UNK N   1      31.807  26.168  -4.790  0.00  0.00     0.108 C 
HETATM    9  C   UNK N   1      32.241  24.741  -4.931  0.00  0.00     0.229 C 
HETATM   10  O   UNK N   1      33.431  24.482  -4.821  0.00  0.00    -0.273 OA
HETATM   11  N   UNK N   1      31.335  23.763  -5.276  0.00  0.00    -0.279 N 
ENDROOT
BRANCH   1  12
HETATM   12  C   UNK N   1      27.587  27.157  -4.760  0.00  0.00     0.013 A 
HETATM   13  C   UNK N   1      27.913  28.326  -5.472  0.00  0.00     0.018 A 
HETATM   14  C   UNK N   1      27.384  29.569  -5.123  0.00  0.00     0.043 A 
HETATM   15  C   UNK N   1      26.507  29.674  -4.047  0.00  0.00     0.119 A 
HETATM   16  F   UNK N   1      25.981  30.878  -3.717  0.00  0.00    -0.206 F 
HETATM   17  C   UNK N   1      26.168  28.538  -3.315  0.00  0.00     0.085 A 
HETATM   18  C   UNK N   1      26.695  27.287  -3.656  0.00  0.00     0.130 A 
HETATM   19  F   UNK N   1      26.319  26.219  -2.911  0.00  0.00    -0.205 F 
ENDBRANCH   1  12
BRANCH   3  20
HETATM   20  C   UNK N   1      26.882  22.869  -7.299  0.00  0.00     0.022 C 
HETATM   21  C   UNK N   1      27.595  21.634  -7.837  0.00  0.00     0.028 C 
HETATM   22  C   UNK N   1      26.686  20.968  -8.870  0.00  0.00     0.114 C 
HETATM   23  N   UNK N   1      25.418  20.572  -8.254  0.00  0.00    -0.421 N 
HETATM   24  C   UNK N   1      24.713  21.767  -7.791  0.00  0.00     0.114 C 
HETATM   25  H   UNK N   1      25.081  19.615  -8.162  0.00  0.00     0.153 HD
HETATM   26  C   UNK N   1      25.526  22.473  -6.710  0.00  0.00     0.028 C 
ENDBRANCH   3  20
BRANCH  11  27
HETATM   27  C   UNK N   1      31.803  22.414  -5.499  0.00  0.00     0.086 A 
HETATM   28  C   UNK N   1      31.828  21.486  -4.420  0.00  0.00     0.063 A 
HETATM   29 Cl   UNK N   1      31.235  21.895  -2.813  0.00  0.00    -0.082 Cl
HETATM   30  C   UNK N   1      32.303  20.188  -4.616  0.00  0.00     0.026 A 
HETATM   31  C   UNK N   1      32.763  19.783  -5.864  0.00  0.00     0.003 A 
HETATM   32  C   UNK N   1      32.764  20.680  -6.927  0.00  0.00     0.026 A 
HETATM   33  C   UNK N   1      32.294  21.986  -6.766  0.00  0.00     0.063 A 
HETATM   34 Cl   UNK N   1      32.463  23.061  -8.149  0.00  0.00    -0.082 Cl
ENDBRANCH  11  27
TORSDOF 3
ENDMDL
MODEL 8
REMARK VINA RESULT:      -8.0      3.898      5.263
REMARK  3 active torsions:
REMARK  status: ('A' for Active; 'I' for Inactive)
REMARK    1  A    between atoms: C_5  and  C_9 
REMARK    2  A    between atoms: C_11  and  C_28 
REMARK    3  A    between atoms: N_19  and  C_20 
ROOT
HETATM    1  C   UNK N   1      22.784  13.227   7.678  0.00  0.00    -0.014 A 
HETATM    2  C   UNK N   1      22.616  14.582   7.359  0.00  0.00     0.020 A 
HETATM    3  C   UNK N   1      22.636  15.044   6.041  0.00  0.00    -0.051 A 
HETATM    4  C   UNK N   1      22.847  14.137   5.004  0.00  0.00     0.038 A 
HETATM    5  C   UNK N   1      23.069  12.780   5.258  0.00  0.00     0.050 A 
HETATM    6  C   UNK N   1      23.009  12.315   6.599  0.00  0.00    -0.019 A 
HETATM    7  C   UNK N   1      23.168  10.838   6.820  0.00  0.00     0.051 C 
HETATM    8  C   UNK N   1      24.274  10.306   5.943  0.00  0.00     0.108 C 
HETATM    9  C   UNK N   1      23.966  10.644   4.516  0.00  0.00     0.229 C 
HETATM   10  O   UNK N   1      24.304   9.854   3.646  0.00  0.00    -0.273 OA
HETATM   11  N   UNK N   1      23.406  11.858   4.188  0.00  0.00    -0.279 N 
ENDROOT
BRANCH   1  12
HETATM   12  C   UNK N   1      22.776  12.822   9.139  0.00  0.00     0.013 A 
HETATM   13  C   UNK N   1      21.561  12.609   9.815  0.00  0.00     0.018 A 
HETATM   14  C   UNK N   1      21.525  12.190  11.145  0.00  0.00     0.043 A 
HETATM   15  C   UNK N   1      22.713  11.971  11.837  0.00  0.00     0.119 A 
HETATM   16  F   UNK N   1      22.680  11.551  13.124  0.00  0.00    -0.206 F 
HETATM   17  C   UNK N   1      23.935  12.181  11.201  0.00  0.00     0.085 A 
HETATM   18  C   UNK N   1      23.981  12.602   9.867  0.00  0.00     0.130 A 
HETATM   19  F   UNK N   1      25.201  12.778   9.302  0.00  0.00    -0.205 F 
ENDBRANCH   1  12
BRANCH   3  20
HETATM   20  C   UNK N   1      22.599  16.517   5.726  0.00  0.00     0.022 C 
HETATM   21  C   UNK N   1      23.767  16.986   4.866  0.00  0.00     0.028 C 
HETATM   22  C   UNK N   1      23.706  18.510   4.766  0.00  0.00     0.114 C 
HETATM   23  N   UNK N   1      22.445  18.932   4.152  0.00  0.00    -0.421 N 
HETATM   24  C   UNK N   1      21.332  18.529   5.011  0.00  0.00     0.114 C 
HETATM   25  H   UNK N   1      22.357  19.428   3.266  0.00  0.00     0.153 HD
HETATM   26  C   UNK N   1      21.279  17.008   5.126  0.00  0.00     0.028 C 
ENDBRANCH   3  20
BRANCH  11  27
HETATM   27  C   UNK N   1      23.211  12.193   2.796  0.00  0.00     0.086 A 
HETATM   28  C   UNK N   1      21.979  11.873   2.158  0.00  0.00     0.063 A 
HETATM   29 Cl   UNK N   1      20.633  11.141   3.024  0.00  0.00    -0.082 Cl
HETATM   30  C   UNK N   1      21.787  12.166   0.806  0.00  0.00     0.026 A 
HETATM   31  C   UNK N   1      22.796  12.768   0.062  0.00  0.00     0.003 A 
HETATM   32  C   UNK N   1      24.013  13.072   0.662  0.00  0.00     0.026 A 
HETATM   33  C   UNK N   1      24.238  12.794   2.013  0.00  0.00     0.063 A 
HETATM   34 Cl   UNK N   1      25.858  13.109   2.624  0.00  0.00    -0.082 Cl
ENDBRANCH  11  27
TORSDOF 3
ENDMDL
MODEL 9
REMARK VINA RESULT:      -8.0      3.892      5.486
REMARK  3 active torsions:
REMARK  status: ('A' for Active; 'I' for Inactive)
REMARK    1  A    between atoms: C_5  and  C_9 
REMARK    2  A    between atoms: C_11  and  C_28 
REMARK    3  A    between atoms: N_19  and  C_20 
ROOT
HETATM    1  C   UNK N   1      22.772  13.231   7.654  0.00  0.00    -0.014 A 
HETATM    2  C   UNK N   1      22.608  14.586   7.333  0.00  0.00     0.020 A 
HETATM    3  C   UNK N   1      22.631  15.046   6.014  0.00  0.00    -0.051 A 
HETATM    4  C   UNK N   1      22.840  14.137   4.979  0.00  0.00     0.038 A 
HETATM    5  C   UNK N   1      23.058  12.780   5.234  0.00  0.00     0.050 A 
HETATM    6  C   UNK N   1      22.995  12.317   6.577  0.00  0.00    -0.019 A 
HETATM    7  C   UNK N   1      23.151  10.840   6.799  0.00  0.00     0.051 C 
HETATM    8  C   UNK N   1      24.256  10.304   5.924  0.00  0.00     0.108 C 
HETATM    9  C   UNK N   1      23.951  10.641   4.497  0.00  0.00     0.229 C 
HETATM   10  O   UNK N   1      24.288   9.849   3.628  0.00  0.00    -0.273 OA
HETATM   11  N   UNK N   1      23.395  11.856   4.167  0.00  0.00    -0.279 N 
ENDROOT
BRANCH   1  12
HETATM   12  C   UNK N   1      22.761  12.828   9.115  0.00  0.00     0.013 A 
HETATM   13  C   UNK N   1      21.544  12.612   9.788  0.00  0.00     0.018 A 
HETATM   14  C   UNK N   1      21.506  12.195  11.119  0.00  0.00     0.043 A 
HETATM   15  C   UNK N   1      22.692  11.980  11.814  0.00  0.00     0.119 A 
HETATM   16  F   UNK N   1      22.656  11.561  13.102  0.00  0.00    -0.206 F 
HETATM   17  C   UNK N   1      23.915  12.192  11.181  0.00  0.00     0.085 A 
HETATM   18  C   UNK N   1      23.964  12.611   9.847  0.00  0.00     0.130 A 
HETATM   19  F   UNK N   1      25.185  12.790   9.285  0.00  0.00    -0.205 F 
ENDBRANCH   1  12
BRANCH   3  20
HETATM   20  C   UNK N   1      22.597  16.519   5.697  0.00  0.00     0.022 C 
HETATM   21  C   UNK N   1      23.755  16.979   4.818  0.00  0.00     0.028 C 
HETATM   22  C   UNK N   1      23.702  18.504   4.717  0.00  0.00     0.114 C 
HETATM   23  N   UNK N   1      22.434  18.932   4.122  0.00  0.00    -0.421 N 
HETATM   24  C   UNK N   1      21.331  18.537   4.999  0.00  0.00     0.114 C 
HETATM   25  H   UNK N   1      22.335  19.427   3.236  0.00  0.00     0.153 HD
HETATM   26  C   UNK N   1      21.272  17.017   5.117  0.00  0.00     0.028 C 
ENDBRANCH   3  20
BRANCH  11  27
HETATM   27  C   UNK N   1      23.202  12.189   2.774  0.00  0.00     0.086 A 
HETATM   28  C   UNK N   1      24.243  12.837   2.051  0.00  0.00     0.063 A 
HETATM   29 Cl   UNK N   1      25.810  13.191   2.771  0.00  0.00    -0.082 Cl
HETATM   30  C   UNK N   1      24.060  13.189   0.711  0.00  0.00     0.026 A 
HETATM   31  C   UNK N   1      22.859  12.917   0.066  0.00  0.00     0.003 A 
HETATM   32  C   UNK N   1      21.823  12.301   0.759  0.00  0.00     0.026 A 
HETATM   33  C   UNK N   1      21.973  11.935   2.100  0.00  0.00     0.063 A 
HETATM   34 Cl   UNK N   1      20.550  11.279   2.902  0.00  0.00    -0.082 Cl
ENDBRANCH  11  27
TORSDOF 3
ENDMDL
