MODEL 1
REMARK VINA RESULT:      -7.5      0.000      0.000
REMARK  9 active torsions:
REMARK  status: ('A' for Active; 'I' for Inactive)
REMARK    1  A    between atoms: C_25  and  C_17 
REMARK    2  A    between atoms: C_26  and  C_18 
REMARK    3  A    between atoms: C_27  and  C_19 
REMARK    4  A    between atoms: O_30  and  C_20 
REMARK    5  A    between atoms: C_25  and  C_21 
REMARK    6  A    between atoms: C_22  and  N_29 
REMARK    7  A    between atoms: O_31  and  C_23 
REMARK    8  A    between atoms: C_24  and  O_35 
REMARK       I    between atoms: N_29  and  C_26 
REMARK    9  A    between atoms: O_35  and  C_27 
ROOT
HETATM    1  C   UNK N   1      21.477  12.434  10.465  0.00  0.00     0.022 C 
HETATM    2  C   UNK N   1      21.511  13.836   9.864  0.00  0.00     0.036 C 
HETATM    3  C   UNK N   1      22.781  11.675  10.201  0.00  0.00     0.114 C 
HETATM    4  C   UNK N   1      22.765  11.753   7.813  0.00  0.00     0.141 C 
HETATM    5  C   UNK N   1      21.467  12.541   7.557  0.00  0.00     0.131 C 
HETATM    6  C   UNK N   1      21.227  13.877   8.349  0.00  0.00     0.156 C 
HETATM    7  N   UNK N   1      23.478  12.164   9.016  0.00  0.00    -0.419 N 
HETATM    8  H   UNK N   1      24.337  12.714   9.028  0.00  0.00     0.153 HD
ENDROOT
BRANCH   6   9
HETATM    9  O   UNK N   1      19.927  14.312   8.127  0.00  0.00    -0.310 OA
BRANCH   9  10
HETATM   10  C   UNK N   1      19.588  15.629   8.116  0.00  0.00     0.293 C 
HETATM   11  O   UNK N   1      18.691  16.055   8.830  0.00  0.00    -0.259 OA
BRANCH  10  12
HETATM   12  C   UNK N   1      20.079  16.442   7.014  0.00  0.00     0.039 A 
HETATM   13  C   UNK N   1      19.745  16.091   5.700  0.00  0.00     0.018 A 
HETATM   14  C   UNK N   1      20.259  16.818   4.633  0.00  0.00     0.016 A 
HETATM   15  C   UNK N   1      21.091  17.911   4.876  0.00  0.00     0.015 A 
HETATM   16  C   UNK N   1      21.408  18.274   6.192  0.00  0.00     0.016 A 
HETATM   17  C   UNK N   1      20.951  17.504   7.257  0.00  0.00     0.018 A 
BRANCH  15  18
HETATM   18  C   UNK N   1      21.329  18.860   3.794  0.00  0.00     0.195 C 
HETATM   19  O   UNK N   1      20.392  19.446   3.271  0.00  0.00    -0.287 OA
BRANCH  18  20
HETATM   20  C   UNK N   1      22.740  19.232   3.498  0.00  0.00     0.048 A 
HETATM   21  C   UNK N   1      23.752  18.289   3.764  0.00  0.00     0.018 A 
HETATM   22  C   UNK N   1      25.094  18.597   3.568  0.00  0.00     0.001 A 
HETATM   23  C   UNK N   1      25.450  19.859   3.097  0.00  0.00     0.003 A 
HETATM   24  C   UNK N   1      24.461  20.807   2.819  0.00  0.00     0.037 A 
HETATM   25  C   UNK N   1      23.109  20.504   3.020  0.00  0.00     0.079 A 
BRANCH  25  26
HETATM   26  O   UNK N   1      22.181  21.438   2.750  0.00  0.00    -0.360 OA
HETATM   27  H   UNK N   1      22.017  22.127   3.364  0.00  0.00     0.217 HD
ENDBRANCH  25  26
ENDBRANCH  18  20
ENDBRANCH  15  18
ENDBRANCH  10  12
ENDBRANCH   9  10
ENDBRANCH   6   9
BRANCH   5  28
HETATM   28  N   UNK N   1      21.125  12.721   6.141  0.00  0.00    -0.348 N 
HETATM   29  C   UNK N   1      21.899  13.162   5.109  0.00  0.00     0.252 C 
HETATM   30  O   UNK N   1      21.507  12.961   3.963  0.00  0.00    -0.268 OA
HETATM   31  H   UNK N   1      20.199  12.489   5.901  0.00  0.00     0.163 HD
BRANCH  29  32
HETATM   32  C   UNK N   1      23.225  13.790   5.296  0.00  0.00     0.032 A 
HETATM   33  C   UNK N   1      23.319  15.022   5.951  0.00  0.00     0.020 A 
HETATM   34  C   UNK N   1      24.543  15.696   6.006  0.00  0.00     0.037 A 
HETATM   35  C   UNK N   1      25.682  15.127   5.428  0.00  0.00     0.065 A 
HETATM   36  C   UNK N   1      25.610  13.865   4.837  0.00  0.00     0.037 A 
HETATM   37  C   UNK N   1      24.388  13.196   4.775  0.00  0.00     0.020 A 
BRANCH  35  38
HETATM   38  O   UNK N   1      26.846  15.793   5.440  0.00  0.00    -0.361 OA
HETATM   39  H   UNK N   1      27.647  15.339   5.268  0.00  0.00     0.217 HD
ENDBRANCH  35  38
ENDBRANCH  29  32
ENDBRANCH   5  28
TORSDOF 9
ENDMDL
MODEL 2
REMARK VINA RESULT:      -7.5     11.538     15.753
REMARK  9 active torsions:
REMARK  status: ('A' for Active; 'I' for Inactive)
REMARK    1  A    between atoms: C_25  and  C_17 
REMARK    2  A    between atoms: C_26  and  C_18 
REMARK    3  A    between atoms: C_27  and  C_19 
REMARK    4  A    between atoms: O_30  and  C_20 
REMARK    5  A    between atoms: C_25  and  C_21 
REMARK    6  A    between atoms: C_22  and  N_29 
REMARK    7  A    between atoms: O_31  and  C_23 
REMARK    8  A    between atoms: C_24  and  O_35 
REMARK       I    between atoms: N_29  and  C_26 
REMARK    9  A    between atoms: O_35  and  C_27 
ROOT
HETATM    1  C   UNK N   1      34.557  12.368   7.288  0.00  0.00     0.022 C 
HETATM    2  C   UNK N   1      35.462  12.869   8.409  0.00  0.00     0.036 C 
HETATM    3  C   UNK N   1      35.209  12.543   5.914  0.00  0.00     0.114 C 
HETATM    4  C   UNK N   1      35.535  14.909   5.971  0.00  0.00     0.141 C 
HETATM    5  C   UNK N   1      34.968  15.248   7.362  0.00  0.00     0.131 C 
HETATM    6  C   UNK N   1      35.443  14.398   8.597  0.00  0.00     0.156 C 
HETATM    7  N   UNK N   1      36.201  13.614   5.903  0.00  0.00    -0.419 N 
HETATM    8  H   UNK N   1      37.210  13.477   5.856  0.00  0.00     0.153 HD
ENDROOT
BRANCH   6   9
HETATM    9  O   UNK N   1      34.666  14.726   9.701  0.00  0.00    -0.310 OA
BRANCH   9  10
HETATM   10  C   UNK N   1      35.182  15.329  10.805  0.00  0.00     0.293 C 
HETATM   11  O   UNK N   1      35.666  16.451  10.742  0.00  0.00    -0.259 OA
BRANCH  10  12
HETATM   12  C   UNK N   1      35.445  14.496  11.968  0.00  0.00     0.039 A 
HETATM   13  C   UNK N   1      34.824  13.245  12.070  0.00  0.00     0.018 A 
HETATM   14  C   UNK N   1      35.013  12.464  13.205  0.00  0.00     0.016 A 
HETATM   15  C   UNK N   1      35.841  12.922  14.231  0.00  0.00     0.015 A 
HETATM   16  C   UNK N   1      36.478  14.164  14.118  0.00  0.00     0.016 A 
HETATM   17  C   UNK N   1      36.234  14.977  13.015  0.00  0.00     0.018 A 
BRANCH  15  18
HETATM   18  C   UNK N   1      36.306  11.966  15.230  0.00  0.00     0.195 C 
HETATM   19  O   UNK N   1      37.169  11.149  14.945  0.00  0.00    -0.287 OA
BRANCH  18  20
HETATM   20  C   UNK N   1      35.848  12.155  16.634  0.00  0.00     0.048 A 
HETATM   21  C   UNK N   1      35.527  13.456  17.065  0.00  0.00     0.018 A 
HETATM   22  C   UNK N   1      35.151  13.708  18.381  0.00  0.00     0.001 A 
HETATM   23  C   UNK N   1      35.088  12.656  19.292  0.00  0.00     0.003 A 
HETATM   24  C   UNK N   1      35.394  11.355  18.883  0.00  0.00     0.037 A 
HETATM   25  C   UNK N   1      35.779  11.097  17.561  0.00  0.00     0.079 A 
BRANCH  25  26
HETATM   26  O   UNK N   1      36.074   9.838  17.198  0.00  0.00    -0.360 OA
HETATM   27  H   UNK N   1      36.620   9.308  17.745  0.00  0.00     0.217 HD
ENDBRANCH  25  26
ENDBRANCH  18  20
ENDBRANCH  15  18
ENDBRANCH  10  12
ENDBRANCH   9  10
ENDBRANCH   6   9
BRANCH   5  28
HETATM   28  N   UNK N   1      34.969  16.676   7.697  0.00  0.00    -0.348 N 
HETATM   29  C   UNK N   1      34.059  17.643   7.385  0.00  0.00     0.252 C 
HETATM   30  O   UNK N   1      34.102  18.701   8.005  0.00  0.00    -0.268 OA
HETATM   31  H   UNK N   1      35.741  16.982   8.225  0.00  0.00     0.163 HD
BRANCH  29  32
HETATM   32  C   UNK N   1      32.972  17.451   6.401  0.00  0.00     0.032 A 
HETATM   33  C   UNK N   1      33.246  17.577   5.035  0.00  0.00     0.020 A 
HETATM   34  C   UNK N   1      32.204  17.543   4.104  0.00  0.00     0.037 A 
HETATM   35  C   UNK N   1      30.887  17.358   4.535  0.00  0.00     0.065 A 
HETATM   36  C   UNK N   1      30.615  17.160   5.889  0.00  0.00     0.037 A 
HETATM   37  C   UNK N   1      31.654  17.201   6.819  0.00  0.00     0.020 A 
BRANCH  35  38
HETATM   38  O   UNK N   1      29.881  17.372   3.647  0.00  0.00    -0.361 OA
HETATM   39  H   UNK N   1      29.805  16.684   3.016  0.00  0.00     0.217 HD
ENDBRANCH  35  38
ENDBRANCH  29  32
ENDBRANCH   5  28
TORSDOF 9
ENDMDL
MODEL 3
REMARK VINA RESULT:      -7.5      3.452      6.833
REMARK  9 active torsions:
REMARK  status: ('A' for Active; 'I' for Inactive)
REMARK    1  A    between atoms: C_25  and  C_17 
REMARK    2  A    between atoms: C_26  and  C_18 
REMARK    3  A    between atoms: C_27  and  C_19 
REMARK    4  A    between atoms: O_30  and  C_20 
REMARK    5  A    between atoms: C_25  and  C_21 
REMARK    6  A    between atoms: C_22  and  N_29 
REMARK    7  A    between atoms: O_31  and  C_23 
REMARK    8  A    between atoms: C_24  and  O_35 
REMARK       I    between atoms: N_29  and  C_26 
REMARK    9  A    between atoms: O_35  and  C_27 
ROOT
HETATM    1  C   UNK N   1      21.024  14.399   1.152  0.00  0.00     0.022 C 
HETATM    2  C   UNK N   1      22.370  14.969   1.588  0.00  0.00     0.036 C 
HETATM    3  C   UNK N   1      20.025  15.507   0.807  0.00  0.00     0.114 C 
HETATM    4  C   UNK N   1      20.010  16.643   2.910  0.00  0.00     0.141 C 
HETATM    5  C   UNK N   1      21.015  15.791   3.707  0.00  0.00     0.131 C 
HETATM    6  C   UNK N   1      22.403  15.452   3.052  0.00  0.00     0.156 C 
HETATM    7  N   UNK N   1      20.330  16.760   1.492  0.00  0.00    -0.419 N 
HETATM    8  H   UNK N   1      20.710  17.594   1.045  0.00  0.00     0.153 HD
ENDROOT
BRANCH   6   9
HETATM    9  O   UNK N   1      23.064  14.517   3.840  0.00  0.00    -0.310 OA
BRANCH   9  10
HETATM   10  C   UNK N   1      24.390  14.253   3.704  0.00  0.00     0.293 C 
HETATM   11  O   UNK N   1      24.785  13.129   3.429  0.00  0.00    -0.259 OA
BRANCH  10  12
HETATM   12  C   UNK N   1      25.329  15.241   4.213  0.00  0.00     0.039 A 
HETATM   13  C   UNK N   1      26.117  15.967   3.311  0.00  0.00     0.018 A 
HETATM   14  C   UNK N   1      27.066  16.868   3.783  0.00  0.00     0.016 A 
HETATM   15  C   UNK N   1      27.213  17.062   5.157  0.00  0.00     0.015 A 
HETATM   16  C   UNK N   1      26.410  16.350   6.057  0.00  0.00     0.016 A 
HETATM   17  C   UNK N   1      25.510  15.397   5.588  0.00  0.00     0.018 A 
BRANCH  15  18
HETATM   18  C   UNK N   1      27.940  18.239   5.620  0.00  0.00     0.195 C 
HETATM   19  O   UNK N   1      27.733  19.330   5.111  0.00  0.00    -0.287 OA
BRANCH  18  20
HETATM   20  C   UNK N   1      28.772  18.099   6.848  0.00  0.00     0.048 A 
HETATM   21  C   UNK N   1      29.940  17.316   6.781  0.00  0.00     0.018 A 
HETATM   22  C   UNK N   1      30.726  17.097   7.907  0.00  0.00     0.001 A 
HETATM   23  C   UNK N   1      30.357  17.661   9.126  0.00  0.00     0.003 A 
HETATM   24  C   UNK N   1      29.205  18.448   9.213  0.00  0.00     0.037 A 
HETATM   25  C   UNK N   1      28.407  18.668   8.083  0.00  0.00     0.079 A 
BRANCH  25  26
HETATM   26  O   UNK N   1      27.302  19.423   8.199  0.00  0.00    -0.360 OA
HETATM   27  H   UNK N   1      26.455  19.032   8.108  0.00  0.00     0.217 HD
ENDBRANCH  25  26
ENDBRANCH  18  20
ENDBRANCH  15  18
ENDBRANCH  10  12
ENDBRANCH   9  10
ENDBRANCH   6   9
BRANCH   5  28
HETATM   28  N   UNK N   1      21.199  16.202   5.104  0.00  0.00    -0.348 N 
HETATM   29  C   UNK N   1      21.682  17.373   5.609  0.00  0.00     0.252 C 
HETATM   30  O   UNK N   1      21.480  17.620   6.794  0.00  0.00    -0.268 OA
HETATM   31  H   UNK N   1      20.936  15.533   5.776  0.00  0.00     0.163 HD
BRANCH  29  32
HETATM   32  C   UNK N   1      22.356  18.399   4.785  0.00  0.00     0.032 A 
HETATM   33  C   UNK N   1      21.593  19.238   3.965  0.00  0.00     0.020 A 
HETATM   34  C   UNK N   1      22.224  20.110   3.074  0.00  0.00     0.037 A 
HETATM   35  C   UNK N   1      23.620  20.165   3.017  0.00  0.00     0.065 A 
HETATM   36  C   UNK N   1      24.386  19.383   3.883  0.00  0.00     0.037 A 
HETATM   37  C   UNK N   1      23.757  18.507   4.767  0.00  0.00     0.020 A 
BRANCH  35  38
HETATM   38  O   UNK N   1      24.226  20.968   2.130  0.00  0.00    -0.361 OA
HETATM   39  H   UNK N   1      23.721  21.582   1.634  0.00  0.00     0.217 HD
ENDBRANCH  35  38
ENDBRANCH  29  32
ENDBRANCH   5  28
TORSDOF 9
ENDMDL
MODEL 4
REMARK VINA RESULT:      -7.3      7.594     11.670
REMARK  9 active torsions:
REMARK  status: ('A' for Active; 'I' for Inactive)
REMARK    1  A    between atoms: C_25  and  C_17 
REMARK    2  A    between atoms: C_26  and  C_18 
REMARK    3  A    between atoms: C_27  and  C_19 
REMARK    4  A    between atoms: O_30  and  C_20 
REMARK    5  A    between atoms: C_25  and  C_21 
REMARK    6  A    between atoms: C_22  and  N_29 
REMARK    7  A    between atoms: O_31  and  C_23 
REMARK    8  A    between atoms: C_24  and  O_35 
REMARK       I    between atoms: N_29  and  C_26 
REMARK    9  A    between atoms: O_35  and  C_27 
ROOT
HETATM    1  C   UNK N   1      29.640  14.017   4.129  0.00  0.00     0.022 C 
HETATM    2  C   UNK N   1      30.651  15.027   3.596  0.00  0.00     0.036 C 
HETATM    3  C   UNK N   1      28.557  13.700   3.093  0.00  0.00     0.114 C 
HETATM    4  C   UNK N   1      27.708  15.911   2.775  0.00  0.00     0.141 C 
HETATM    5  C   UNK N   1      28.614  16.711   3.729  0.00  0.00     0.131 C 
HETATM    6  C   UNK N   1      30.169  16.490   3.655  0.00  0.00     0.156 C 
HETATM    7  N   UNK N   1      28.374  14.784   2.133  0.00  0.00    -0.419 N 
HETATM    8  H   UNK N   1      28.670  14.757   1.157  0.00  0.00     0.153 HD
ENDROOT
BRANCH   6   9
HETATM    9  O   UNK N   1      30.774  17.141   4.722  0.00  0.00    -0.310 OA
BRANCH   9  10
HETATM   10  C   UNK N   1      32.103  17.428   4.746  0.00  0.00     0.293 C 
HETATM   11  O   UNK N   1      32.727  17.611   3.710  0.00  0.00    -0.259 OA
BRANCH  10  12
HETATM   12  C   UNK N   1      32.823  17.187   5.987  0.00  0.00     0.039 A 
HETATM   13  C   UNK N   1      34.050  16.513   5.948  0.00  0.00     0.018 A 
HETATM   14  C   UNK N   1      34.720  16.217   7.130  0.00  0.00     0.016 A 
HETATM   15  C   UNK N   1      34.175  16.613   8.353  0.00  0.00     0.015 A 
HETATM   16  C   UNK N   1      32.958  17.305   8.388  0.00  0.00     0.016 A 
HETATM   17  C   UNK N   1      32.253  17.539   7.211  0.00  0.00     0.018 A 
BRANCH  15  18
HETATM   18  C   UNK N   1      35.036  16.616   9.531  0.00  0.00     0.195 C 
HETATM   19  O   UNK N   1      35.322  17.668  10.082  0.00  0.00    -0.287 OA
BRANCH  18  20
HETATM   20  C   UNK N   1      35.374  15.301  10.142  0.00  0.00     0.048 A 
HETATM   21  C   UNK N   1      36.655  14.763   9.910  0.00  0.00     0.018 A 
HETATM   22  C   UNK N   1      37.010  13.511  10.401  0.00  0.00     0.001 A 
HETATM   23  C   UNK N   1      36.088  12.773  11.140  0.00  0.00     0.003 A 
HETATM   24  C   UNK N   1      34.815  13.292  11.389  0.00  0.00     0.037 A 
HETATM   25  C   UNK N   1      34.449  14.549  10.892  0.00  0.00     0.079 A 
BRANCH  25  26
HETATM   26  O   UNK N   1      33.216  15.019  11.142  0.00  0.00    -0.360 OA
HETATM   27  H   UNK N   1      33.023  15.926  11.006  0.00  0.00     0.217 HD
ENDBRANCH  25  26
ENDBRANCH  18  20
ENDBRANCH  15  18
ENDBRANCH  10  12
ENDBRANCH   9  10
ENDBRANCH   6   9
BRANCH   5  28
HETATM   28  N   UNK N   1      28.308  18.144   3.813  0.00  0.00    -0.348 N 
HETATM   29  C   UNK N   1      28.114  18.928   4.911  0.00  0.00     0.252 C 
HETATM   30  O   UNK N   1      28.159  20.146   4.769  0.00  0.00    -0.268 OA
HETATM   31  H   UNK N   1      28.231  18.607   2.948  0.00  0.00     0.163 HD
BRANCH  29  32
HETATM   32  C   UNK N   1      27.941  18.388   6.277  0.00  0.00     0.032 A 
HETATM   33  C   UNK N   1      28.377  19.136   7.376  0.00  0.00     0.020 A 
HETATM   34  C   UNK N   1      28.354  18.579   8.658  0.00  0.00     0.037 A 
HETATM   35  C   UNK N   1      27.871  17.281   8.848  0.00  0.00     0.065 A 
HETATM   36  C   UNK N   1      27.367  16.556   7.767  0.00  0.00     0.037 A 
HETATM   37  C   UNK N   1      27.397  17.109   6.487  0.00  0.00     0.020 A 
BRANCH  35  38
HETATM   38  O   UNK N   1      27.891  16.728  10.070  0.00  0.00    -0.361 OA
HETATM   39  H   UNK N   1      27.112  16.350  10.426  0.00  0.00     0.217 HD
ENDBRANCH  35  38
ENDBRANCH  29  32
ENDBRANCH   5  28
TORSDOF 9
ENDMDL
MODEL 5
REMARK VINA RESULT:      -7.3     14.101     17.019
REMARK  9 active torsions:
REMARK  status: ('A' for Active; 'I' for Inactive)
REMARK    1  A    between atoms: C_25  and  C_17 
REMARK    2  A    between atoms: C_26  and  C_18 
REMARK    3  A    between atoms: C_27  and  C_19 
REMARK    4  A    between atoms: O_30  and  C_20 
REMARK    5  A    between atoms: C_25  and  C_21 
REMARK    6  A    between atoms: C_22  and  N_29 
REMARK    7  A    between atoms: O_31  and  C_23 
REMARK    8  A    between atoms: C_24  and  O_35 
REMARK       I    between atoms: N_29  and  C_26 
REMARK    9  A    between atoms: O_35  and  C_27 
ROOT
HETATM    1  C   UNK N   1      28.237  29.489  -5.425  0.00  0.00     0.022 C 
HETATM    2  C   UNK N   1      29.139  28.888  -4.352  0.00  0.00     0.036 C 
HETATM    3  C   UNK N   1      27.079  30.281  -4.811  0.00  0.00     0.114 C 
HETATM    4  C   UNK N   1      26.090  28.528  -3.523  0.00  0.00     0.141 C 
HETATM    5  C   UNK N   1      27.040  27.360  -3.844  0.00  0.00     0.131 C 
HETATM    6  C   UNK N   1      28.590  27.592  -3.722  0.00  0.00     0.156 C 
HETATM    7  N   UNK N   1      26.750  29.827  -3.464  0.00  0.00    -0.419 N 
HETATM    8  H   UNK N   1      26.952  30.342  -2.607  0.00  0.00     0.153 HD
ENDROOT
BRANCH   6   9
HETATM    9  O   UNK N   1      29.259  26.495  -4.248  0.00  0.00    -0.310 OA
BRANCH   9  10
HETATM   10  C   UNK N   1      30.294  25.892  -3.604  0.00  0.00     0.293 C 
HETATM   11  O   UNK N   1      31.090  26.544  -2.943  0.00  0.00    -0.259 OA
BRANCH  10  12
HETATM   12  C   UNK N   1      30.622  24.527  -3.986  0.00  0.00     0.039 A 
HETATM   13  C   UNK N   1      30.156  23.465  -3.201  0.00  0.00     0.018 A 
HETATM   14  C   UNK N   1      30.514  22.158  -3.513  0.00  0.00     0.016 A 
HETATM   15  C   UNK N   1      31.321  21.908  -4.624  0.00  0.00     0.015 A 
HETATM   16  C   UNK N   1      31.769  22.970  -5.420  0.00  0.00     0.016 A 
HETATM   17  C   UNK N   1      31.469  24.282  -5.067  0.00  0.00     0.018 A 
BRANCH  15  18
HETATM   18  C   UNK N   1      31.394  20.545  -5.140  0.00  0.00     0.195 C 
HETATM   19  O   UNK N   1      31.767  19.633  -4.417  0.00  0.00    -0.287 OA
BRANCH  18  20
HETATM   20  C   UNK N   1      30.813  20.283  -6.485  0.00  0.00     0.048 A 
HETATM   21  C   UNK N   1      29.447  20.558  -6.691  0.00  0.00     0.018 A 
HETATM   22  C   UNK N   1      28.831  20.277  -7.906  0.00  0.00     0.001 A 
HETATM   23  C   UNK N   1      29.574  19.717  -8.943  0.00  0.00     0.003 A 
HETATM   24  C   UNK N   1      30.933  19.444  -8.762  0.00  0.00     0.037 A 
HETATM   25  C   UNK N   1      31.557  19.719  -7.539  0.00  0.00     0.079 A 
BRANCH  25  26
HETATM   26  O   UNK N   1      32.863  19.440  -7.393  0.00  0.00    -0.360 OA
HETATM   27  H   UNK N   1      33.445  20.087  -7.046  0.00  0.00     0.217 HD
ENDBRANCH  25  26
ENDBRANCH  18  20
ENDBRANCH  15  18
ENDBRANCH  10  12
ENDBRANCH   9  10
ENDBRANCH   6   9
BRANCH   5  28
HETATM   28  N   UNK N   1      26.669  26.078  -3.232  0.00  0.00    -0.348 N 
HETATM   29  C   UNK N   1      26.559  24.843  -3.800  0.00  0.00     0.252 C 
HETATM   30  O   UNK N   1      26.522  23.866  -3.059  0.00  0.00    -0.268 OA
HETATM   31  H   UNK N   1      26.470  26.116  -2.269  0.00  0.00     0.163 HD
BRANCH  29  32
HETATM   32  C   UNK N   1      26.570  24.615  -5.260  0.00  0.00     0.032 A 
HETATM   33  C   UNK N   1      27.572  23.819  -5.828  0.00  0.00     0.020 A 
HETATM   34  C   UNK N   1      27.682  23.714  -7.217  0.00  0.00     0.037 A 
HETATM   35  C   UNK N   1      26.774  24.384  -8.043  0.00  0.00     0.065 A 
HETATM   36  C   UNK N   1      25.730  25.121  -7.484  0.00  0.00     0.037 A 
HETATM   37  C   UNK N   1      25.624  25.232  -6.097  0.00  0.00     0.020 A 
BRANCH  35  38
HETATM   38  O   UNK N   1      26.907  24.322  -9.377  0.00  0.00    -0.361 OA
HETATM   39  H   UNK N   1      26.163  24.465  -9.928  0.00  0.00     0.217 HD
ENDBRANCH  35  38
ENDBRANCH  29  32
ENDBRANCH   5  28
TORSDOF 9
ENDMDL
MODEL 6
REMARK VINA RESULT:      -7.1     12.988     15.992
REMARK  9 active torsions:
REMARK  status: ('A' for Active; 'I' for Inactive)
REMARK    1  A    between atoms: C_25  and  C_17 
REMARK    2  A    between atoms: C_26  and  C_18 
REMARK    3  A    between atoms: C_27  and  C_19 
REMARK    4  A    between atoms: O_30  and  C_20 
REMARK    5  A    between atoms: C_25  and  C_21 
REMARK    6  A    between atoms: C_22  and  N_29 
REMARK    7  A    between atoms: O_31  and  C_23 
REMARK    8  A    between atoms: C_24  and  O_35 
REMARK       I    between atoms: N_29  and  C_26 
REMARK    9  A    between atoms: O_35  and  C_27 
ROOT
HETATM    1  C   UNK N   1      39.343   9.094  14.709  0.00  0.00     0.022 C 
HETATM    2  C   UNK N   1      38.707   8.978  13.328  0.00  0.00     0.036 C 
HETATM    3  C   UNK N   1      39.077   7.849  15.560  0.00  0.00     0.114 C 
HETATM    4  C   UNK N   1      36.688   7.905  15.538  0.00  0.00     0.141 C 
HETATM    5  C   UNK N   1      36.434   9.151  14.671  0.00  0.00     0.131 C 
HETATM    6  C   UNK N   1      37.197   9.287  13.303  0.00  0.00     0.156 C 
HETATM    7  N   UNK N   1      37.868   7.143  15.147  0.00  0.00    -0.419 N 
HETATM    8  H   UNK N   1      37.851   6.249  14.656  0.00  0.00     0.153 HD
ENDROOT
BRANCH   6   9
HETATM    9  O   UNK N   1      36.986  10.559  12.787  0.00  0.00    -0.310 OA
BRANCH   9  10
HETATM   10  C   UNK N   1      36.528  10.770  11.524  0.00  0.00     0.293 C 
HETATM   11  O   UNK N   1      36.674   9.925  10.652  0.00  0.00    -0.259 OA
BRANCH  10  12
HETATM   12  C   UNK N   1      36.167  12.130  11.156  0.00  0.00     0.039 A 
HETATM   13  C   UNK N   1      35.337  12.873  12.006  0.00  0.00     0.018 A 
HETATM   14  C   UNK N   1      34.929  14.150  11.638  0.00  0.00     0.016 A 
HETATM   15  C   UNK N   1      35.367  14.697  10.431  0.00  0.00     0.015 A 
HETATM   16  C   UNK N   1      36.213  13.960   9.593  0.00  0.00     0.016 A 
HETATM   17  C   UNK N   1      36.565  12.656   9.926  0.00  0.00     0.018 A 
BRANCH  15  18
HETATM   18  C   UNK N   1      35.230  16.135  10.227  0.00  0.00     0.195 C 
HETATM   19  O   UNK N   1      36.063  16.904  10.682  0.00  0.00    -0.287 OA
BRANCH  18  20
HETATM   20  C   UNK N   1      34.171  16.602   9.289  0.00  0.00     0.048 A 
HETATM   21  C   UNK N   1      33.068  15.760   9.051  0.00  0.00     0.018 A 
HETATM   22  C   UNK N   1      32.077  16.111   8.139  0.00  0.00     0.001 A 
HETATM   23  C   UNK N   1      32.171  17.318   7.450  0.00  0.00     0.003 A 
HETATM   24  C   UNK N   1      33.254  18.172   7.678  0.00  0.00     0.037 A 
HETATM   25  C   UNK N   1      34.258  17.821   8.590  0.00  0.00     0.079 A 
BRANCH  25  26
HETATM   26  O   UNK N   1      35.289  18.659   8.784  0.00  0.00    -0.360 OA
HETATM   27  H   UNK N   1      36.027  18.636   8.206  0.00  0.00     0.217 HD
ENDBRANCH  25  26
ENDBRANCH  18  20
ENDBRANCH  15  18
ENDBRANCH  10  12
ENDBRANCH   9  10
ENDBRANCH   6   9
BRANCH   5  28
HETATM   28  N   UNK N   1      35.020   9.507  14.502  0.00  0.00    -0.348 N 
HETATM   29  C   UNK N   1      34.270  10.430  15.169  0.00  0.00     0.252 C 
HETATM   30  O   UNK N   1      33.198  10.770  14.678  0.00  0.00    -0.268 OA
HETATM   31  H   UNK N   1      34.542   9.004  13.804  0.00  0.00     0.163 HD
BRANCH  29  32
HETATM   32  C   UNK N   1      34.720  11.106  16.404  0.00  0.00     0.032 A 
HETATM   33  C   UNK N   1      34.928  10.355  17.566  0.00  0.00     0.020 A 
HETATM   34  C   UNK N   1      35.211  10.998  18.775  0.00  0.00     0.037 A 
HETATM   35  C   UNK N   1      35.312  12.391  18.821  0.00  0.00     0.065 A 
HETATM   36  C   UNK N   1      35.178  13.141  17.652  0.00  0.00     0.037 A 
HETATM   37  C   UNK N   1      34.888  12.501  16.447  0.00  0.00     0.020 A 
BRANCH  35  38
HETATM   38  O   UNK N   1      35.538  13.011  19.989  0.00  0.00    -0.361 OA
HETATM   39  H   UNK N   1      36.024  12.578  20.662  0.00  0.00     0.217 HD
ENDBRANCH  35  38
ENDBRANCH  29  32
ENDBRANCH   5  28
TORSDOF 9
ENDMDL
MODEL 7
REMARK VINA RESULT:      -7.1     11.610     14.697
REMARK  9 active torsions:
REMARK  status: ('A' for Active; 'I' for Inactive)
REMARK    1  A    between atoms: C_25  and  C_17 
REMARK    2  A    between atoms: C_26  and  C_18 
REMARK    3  A    between atoms: C_27  and  C_19 
REMARK    4  A    between atoms: O_30  and  C_20 
REMARK    5  A    between atoms: C_25  and  C_21 
REMARK    6  A    between atoms: C_22  and  N_29 
REMARK    7  A    between atoms: O_31  and  C_23 
REMARK    8  A    between atoms: C_24  and  O_35 
REMARK       I    between atoms: N_29  and  C_26 
REMARK    9  A    between atoms: O_35  and  C_27 
ROOT
HETATM    1  C   UNK N   1      36.284   9.393  10.376  0.00  0.00     0.022 C 
HETATM    2  C   UNK N   1      36.031  10.826   9.918  0.00  0.00     0.036 C 
HETATM    3  C   UNK N   1      34.984   8.586  10.449  0.00  0.00     0.114 C 
HETATM    4  C   UNK N   1      33.799   9.954  12.009  0.00  0.00     0.141 C 
HETATM    5  C   UNK N   1      34.833  11.066  12.265  0.00  0.00     0.131 C 
HETATM    6  C   UNK N   1      35.515  11.760  11.030  0.00  0.00     0.156 C 
HETATM    7  N   UNK N   1      33.814   9.435  10.647  0.00  0.00    -0.419 N 
HETATM    8  H   UNK N   1      33.110   9.637   9.936  0.00  0.00     0.153 HD
ENDROOT
BRANCH   6   9
HETATM    9  O   UNK N   1      36.549  12.573  11.477  0.00  0.00    -0.310 OA
BRANCH   9  10
HETATM   10  C   UNK N   1      37.187  13.458  10.665  0.00  0.00     0.293 C 
HETATM   11  O   UNK N   1      38.408  13.515  10.631  0.00  0.00    -0.259 OA
BRANCH  10  12
HETATM   12  C   UNK N   1      36.399  14.541  10.099  0.00  0.00     0.039 A 
HETATM   13  C   UNK N   1      36.135  15.676  10.876  0.00  0.00     0.018 A 
HETATM   14  C   UNK N   1      35.329  16.692  10.373  0.00  0.00     0.016 A 
HETATM   15  C   UNK N   1      34.805  16.587   9.085  0.00  0.00     0.015 A 
HETATM   16  C   UNK N   1      35.087  15.461   8.301  0.00  0.00     0.016 A 
HETATM   17  C   UNK N   1      35.834  14.412   8.829  0.00  0.00     0.018 A 
BRANCH  15  18
HETATM   18  C   UNK N   1      34.271  17.787   8.449  0.00  0.00     0.195 C 
HETATM   19  O   UNK N   1      34.933  18.814   8.421  0.00  0.00    -0.287 OA
BRANCH  18  20
HETATM   20  C   UNK N   1      33.007  17.655   7.675  0.00  0.00     0.048 A 
HETATM   21  C   UNK N   1      31.792  17.575   8.383  0.00  0.00     0.018 A 
HETATM   22  C   UNK N   1      30.583  17.389   7.720  0.00  0.00     0.001 A 
HETATM   23  C   UNK N   1      30.567  17.283   6.332  0.00  0.00     0.003 A 
HETATM   24  C   UNK N   1      31.761  17.368   5.609  0.00  0.00     0.037 A 
HETATM   25  C   UNK N   1      32.981  17.549   6.271  0.00  0.00     0.079 A 
BRANCH  25  26
HETATM   26  O   UNK N   1      34.113  17.620   5.550  0.00  0.00    -0.360 OA
HETATM   27  H   UNK N   1      34.930  17.369   5.934  0.00  0.00     0.217 HD
ENDBRANCH  25  26
ENDBRANCH  18  20
ENDBRANCH  15  18
ENDBRANCH  10  12
ENDBRANCH   9  10
ENDBRANCH   6   9
BRANCH   5  28
HETATM   28  N   UNK N   1      34.425  12.072  13.252  0.00  0.00    -0.348 N 
HETATM   29  C   UNK N   1      34.733  12.164  14.577  0.00  0.00     0.252 C 
HETATM   30  O   UNK N   1      34.529  13.232  15.146  0.00  0.00    -0.268 OA
HETATM   31  H   UNK N   1      33.842  12.786  12.907  0.00  0.00     0.163 HD
BRANCH  29  32
HETATM   32  C   UNK N   1      35.379  11.076  15.341  0.00  0.00     0.032 A 
HETATM   33  C   UNK N   1      36.768  10.916  15.276  0.00  0.00     0.020 A 
HETATM   34  C   UNK N   1      37.375   9.807  15.872  0.00  0.00     0.037 A 
HETATM   35  C   UNK N   1      36.599   8.868  16.557  0.00  0.00     0.065 A 
HETATM   36  C   UNK N   1      35.223   9.059  16.687  0.00  0.00     0.037 A 
HETATM   37  C   UNK N   1      34.615  10.161  16.086  0.00  0.00     0.020 A 
BRANCH  35  38
HETATM   38  O   UNK N   1      37.175   7.780  17.089  0.00  0.00    -0.361 OA
HETATM   39  H   UNK N   1      37.824   7.309  16.604  0.00  0.00     0.217 HD
ENDBRANCH  35  38
ENDBRANCH  29  32
ENDBRANCH   5  28
TORSDOF 9
ENDMDL
MODEL 8
REMARK VINA RESULT:      -7.1      3.501      6.952
REMARK  9 active torsions:
REMARK  status: ('A' for Active; 'I' for Inactive)
REMARK    1  A    between atoms: C_25  and  C_17 
REMARK    2  A    between atoms: C_26  and  C_18 
REMARK    3  A    between atoms: C_27  and  C_19 
REMARK    4  A    between atoms: O_30  and  C_20 
REMARK    5  A    between atoms: C_25  and  C_21 
REMARK    6  A    between atoms: C_22  and  N_29 
REMARK    7  A    between atoms: O_31  and  C_23 
REMARK    8  A    between atoms: C_24  and  O_35 
REMARK       I    between atoms: N_29  and  C_26 
REMARK    9  A    between atoms: O_35  and  C_27 
ROOT
HETATM    1  C   UNK N   1      20.663  13.281   2.501  0.00  0.00     0.022 C 
HETATM    2  C   UNK N   1      21.838  13.937   1.783  0.00  0.00     0.036 C 
HETATM    3  C   UNK N   1      19.344  13.999   2.199  0.00  0.00     0.114 C 
HETATM    4  C   UNK N   1      19.929  16.175   2.994  0.00  0.00     0.141 C 
HETATM    5  C   UNK N   1      21.378  15.935   3.456  0.00  0.00     0.131 C 
HETATM    6  C   UNK N   1      22.371  15.205   2.479  0.00  0.00     0.156 C 
HETATM    7  N   UNK N   1      19.546  15.395   1.824  0.00  0.00    -0.419 N 
HETATM    8  H   UNK N   1      19.435  15.770   0.881  0.00  0.00     0.153 HD
ENDROOT
BRANCH   6   9
HETATM    9  O   UNK N   1      23.546  14.910   3.158  0.00  0.00    -0.310 OA
BRANCH   9  10
HETATM   10  C   UNK N   1      24.762  15.349   2.740  0.00  0.00     0.293 C 
HETATM   11  O   UNK N   1      25.283  14.896   1.730  0.00  0.00    -0.259 OA
BRANCH  10  12
HETATM   12  C   UNK N   1      25.565  16.111   3.684  0.00  0.00     0.039 A 
HETATM   13  C   UNK N   1      26.385  17.142   3.211  0.00  0.00     0.018 A 
HETATM   14  C   UNK N   1      27.208  17.837   4.091  0.00  0.00     0.016 A 
HETATM   15  C   UNK N   1      27.196  17.518   5.449  0.00  0.00     0.015 A 
HETATM   16  C   UNK N   1      26.359  16.500   5.924  0.00  0.00     0.016 A 
HETATM   17  C   UNK N   1      25.589  15.757   5.034  0.00  0.00     0.018 A 
BRANCH  15  18
HETATM   18  C   UNK N   1      27.778  18.466   6.393  0.00  0.00     0.195 C 
HETATM   19  O   UNK N   1      27.313  19.591   6.502  0.00  0.00    -0.287 OA
BRANCH  18  20
HETATM   20  C   UNK N   1      28.805  17.954   7.342  0.00  0.00     0.048 A 
HETATM   21  C   UNK N   1      30.014  17.457   6.819  0.00  0.00     0.018 A 
HETATM   22  C   UNK N   1      30.987  16.908   7.648  0.00  0.00     0.001 A 
HETATM   23  C   UNK N   1      30.767  16.849   9.023  0.00  0.00     0.003 A 
HETATM   24  C   UNK N   1      29.577  17.344   9.564  0.00  0.00     0.037 A 
HETATM   25  C   UNK N   1      28.592  17.892   8.733  0.00  0.00     0.079 A 
BRANCH  25  26
HETATM   26  O   UNK N   1      27.455  18.353   9.281  0.00  0.00    -0.360 OA
HETATM   27  H   UNK N   1      27.486  19.046   9.911  0.00  0.00     0.217 HD
ENDBRANCH  25  26
ENDBRANCH  18  20
ENDBRANCH  15  18
ENDBRANCH  10  12
ENDBRANCH   9  10
ENDBRANCH   6   9
BRANCH   5  28
HETATM   28  N   UNK N   1      22.031  17.099   4.067  0.00  0.00    -0.348 N 
HETATM   29  C   UNK N   1      22.282  17.366   5.380  0.00  0.00     0.252 C 
HETATM   30  O   UNK N   1      23.090  18.249   5.648  0.00  0.00    -0.268 OA
HETATM   31  H   UNK N   1      22.332  17.791   3.434  0.00  0.00     0.163 HD
BRANCH  29  32
HETATM   32  C   UNK N   1      21.698  16.589   6.494  0.00  0.00     0.032 A 
HETATM   33  C   UNK N   1      22.202  15.317   6.789  0.00  0.00     0.020 A 
HETATM   34  C   UNK N   1      21.566  14.513   7.739  0.00  0.00     0.037 A 
HETATM   35  C   UNK N   1      20.440  14.988   8.417  0.00  0.00     0.065 A 
HETATM   36  C   UNK N   1      19.975  16.282   8.181  0.00  0.00     0.037 A 
HETATM   37  C   UNK N   1      20.604  17.082   7.227  0.00  0.00     0.020 A 
BRANCH  35  38
HETATM   38  O   UNK N   1      19.802  14.200   9.296  0.00  0.00    -0.361 OA
HETATM   39  H   UNK N   1      19.346  14.581  10.020  0.00  0.00     0.217 HD
ENDBRANCH  35  38
ENDBRANCH  29  32
ENDBRANCH   5  28
TORSDOF 9
ENDMDL
MODEL 9
REMARK VINA RESULT:      -7.1      3.221      5.691
REMARK  9 active torsions:
REMARK  status: ('A' for Active; 'I' for Inactive)
REMARK    1  A    between atoms: C_25  and  C_17 
REMARK    2  A    between atoms: C_26  and  C_18 
REMARK    3  A    between atoms: C_27  and  C_19 
REMARK    4  A    between atoms: O_30  and  C_20 
REMARK    5  A    between atoms: C_25  and  C_21 
REMARK    6  A    between atoms: C_22  and  N_29 
REMARK    7  A    between atoms: O_31  and  C_23 
REMARK    8  A    between atoms: C_24  and  O_35 
REMARK       I    between atoms: N_29  and  C_26 
REMARK    9  A    between atoms: O_35  and  C_27 
ROOT
HETATM    1  C   UNK N   1      20.684  17.429   6.651  0.00  0.00     0.022 C 
HETATM    2  C   UNK N   1      22.103  16.893   6.502  0.00  0.00     0.036 C 
HETATM    3  C   UNK N   1      20.124  17.165   8.052  0.00  0.00     0.114 C 
HETATM    4  C   UNK N   1      20.313  14.784   8.071  0.00  0.00     0.141 C 
HETATM    5  C   UNK N   1      20.926  14.530   6.681  0.00  0.00     0.131 C 
HETATM    6  C   UNK N   1      22.178  15.375   6.243  0.00  0.00     0.156 C 
HETATM    7  N   UNK N   1      20.761  16.021   8.697  0.00  0.00    -0.419 N 
HETATM    8  H   UNK N   1      21.423  16.079   9.471  0.00  0.00     0.153 HD
ENDROOT
BRANCH   6   9
HETATM    9  O   UNK N   1      22.440  15.139   4.899  0.00  0.00    -0.310 OA
BRANCH   9  10
HETATM   10  C   UNK N   1      23.675  14.802   4.443  0.00  0.00     0.293 C 
HETATM   11  O   UNK N   1      23.917  13.666   4.061  0.00  0.00    -0.259 OA
BRANCH  10  12
HETATM   12  C   UNK N   1      24.771  15.716   4.727  0.00  0.00     0.039 A 
HETATM   13  C   UNK N   1      25.001  16.798   3.869  0.00  0.00     0.018 A 
HETATM   14  C   UNK N   1      26.084  17.643   4.088  0.00  0.00     0.016 A 
HETATM   15  C   UNK N   1      26.925  17.421   5.179  0.00  0.00     0.015 A 
HETATM   16  C   UNK N   1      26.681  16.351   6.049  0.00  0.00     0.016 A 
HETATM   17  C   UNK N   1      25.640  15.464   5.789  0.00  0.00     0.018 A 
BRANCH  15  18
HETATM   18  C   UNK N   1      27.822  18.494   5.597  0.00  0.00     0.195 C 
HETATM   19  O   UNK N   1      27.753  19.594   5.069  0.00  0.00    -0.287 OA
BRANCH  18  20
HETATM   20  C   UNK N   1      28.663  18.262   6.803  0.00  0.00     0.048 A 
HETATM   21  C   UNK N   1      29.806  17.449   6.678  0.00  0.00     0.018 A 
HETATM   22  C   UNK N   1      30.597  17.144   7.780  0.00  0.00     0.001 A 
HETATM   23  C   UNK N   1      30.260  17.651   9.033  0.00  0.00     0.003 A 
HETATM   24  C   UNK N   1      29.134  18.467   9.178  0.00  0.00     0.037 A 
HETATM   25  C   UNK N   1      28.330  18.772   8.073  0.00  0.00     0.079 A 
BRANCH  25  26
HETATM   26  O   UNK N   1      27.250  19.553   8.244  0.00  0.00    -0.360 OA
HETATM   27  H   UNK N   1      26.783  19.876   7.499  0.00  0.00     0.217 HD
ENDBRANCH  25  26
ENDBRANCH  18  20
ENDBRANCH  15  18
ENDBRANCH  10  12
ENDBRANCH   9  10
ENDBRANCH   6   9
BRANCH   5  28
HETATM   28  N   UNK N   1      21.125  13.115   6.344  0.00  0.00    -0.348 N 
HETATM   29  C   UNK N   1      21.804  12.146   7.023  0.00  0.00     0.252 C 
HETATM   30  O   UNK N   1      21.602  10.975   6.718  0.00  0.00    -0.268 OA
HETATM   31  H   UNK N   1      20.706  12.822   5.503  0.00  0.00     0.163 HD
BRANCH  29  32
HETATM   32  C   UNK N   1      22.702  12.429   8.162  0.00  0.00     0.032 A 
HETATM   33  C   UNK N   1      23.993  12.912   7.921  0.00  0.00     0.020 A 
HETATM   34  C   UNK N   1      24.901  13.044   8.976  0.00  0.00     0.037 A 
HETATM   35  C   UNK N   1      24.513  12.718  10.278  0.00  0.00     0.065 A 
HETATM   36  C   UNK N   1      23.206  12.305  10.536  0.00  0.00     0.037 A 
HETATM   37  C   UNK N   1      22.302  12.165   9.483  0.00  0.00     0.020 A 
BRANCH  35  38
HETATM   38  O   UNK N   1      25.398  12.800  11.284  0.00  0.00    -0.361 OA
HETATM   39  H   UNK N   1      25.454  12.111  11.915  0.00  0.00     0.217 HD
ENDBRANCH  35  38
ENDBRANCH  29  32
ENDBRANCH   5  28
TORSDOF 9
ENDMDL
