REMARK  26 active torsions:
REMARK  status: ('A' for Active; 'I' for Inactive)
REMARK    1  A    between atoms: C_8  and  C_7 
REMARK    2  A    between atoms: C_9  and  C_7 
REMARK    3  A    between atoms: C_10  and  C_8 
REMARK    4  A    between atoms: C_11  and  C_9 
REMARK    5  A    between atoms: C_12  and  C_10 
REMARK    6  A    between atoms: C_13  and  C_11 
REMARK    7  A    between atoms: C_14  and  C_12 
REMARK    8  A    between atoms: C_24  and  C_13 
REMARK    9  A    between atoms: C_35  and  C_14 
REMARK   10  A    between atoms: C_36  and  C_22 
REMARK   11  A    between atoms: N_43  and  C_22 
REMARK   12  A    between atoms: C_32  and  C_23 
REMARK   13  A    between atoms: O_53  and  C_23 
REMARK   14  A    between atoms: C_38  and  C_25 
REMARK   15  A    between atoms: N_45  and  C_25 
REMARK   16  A    between atoms: C_31  and  C_42 
REMARK   17  A    between atoms: C_40  and  C_32 
REMARK   18  A    between atoms: C_32  and  N_51 
REMARK   19  A    between atoms: O_54  and  C_33 
REMARK   20  A    between atoms: O_55  and  C_34 
REMARK       I    between atoms: N_51  and  C_35 
REMARK       I    between atoms: N_52  and  C_36 
REMARK   21  A    between atoms: C_37  and  N_52 
REMARK   22  A    between atoms: O_58  and  C_38 
REMARK   23  A    between atoms: C_39  and  O_59 
REMARK   24  A    between atoms: C_40  and  O_60 
REMARK   25  A    between atoms: C_41  and  O_61 
REMARK   26  A    between atoms: O_63  and  C_42 
ROOT
HETATM    1  C   UNK N   1      -8.032  -3.276   1.891  0.00  0.00     0.154 C 
HETATM    2  C   UNK N   1      -8.521  -1.541   0.270  0.00  0.00     0.238 C 
HETATM    3  N   UNK N   1      -8.975  -2.600   1.028  0.00  0.00    -0.339 N 
HETATM    4  O   UNK N   1      -7.364  -1.158   0.401  0.00  0.00    -0.272 OA
ENDROOT
BRANCH   3   5
HETATM    5  C   UNK N   1     -10.343  -3.152   0.978  0.00  0.00     0.194 C 
HETATM    6  C   UNK N   1     -11.497  -2.179   0.775  0.00  0.00    -0.026 A 
HETATM    7  C   UNK N   1     -11.441  -0.839   1.169  0.00  0.00     0.012 A 
HETATM    8  C   UNK N   1     -12.721  -2.688   0.361  0.00  0.00     0.025 A 
HETATM    9  C   UNK N   1     -12.550  -0.011   0.998  0.00  0.00     0.038 A 
HETATM   10  C   UNK N   1     -13.766  -0.521   0.527  0.00  0.00     0.076 A 
HETATM   11  C   UNK N   1     -13.885  -1.910   0.235  0.00  0.00     0.011 A 
HETATM   12  C   UNK N   1     -15.135  -2.682  -0.142  0.00  0.00     0.011 A 
HETATM   13  C   UNK N   1     -14.933  -4.045  -0.424  0.00  0.00     0.022 A 
HETATM   14  C   UNK N   1     -16.481  -2.210  -0.153  0.00  0.00     0.076 A 
HETATM   15  C   UNK N   1     -15.971  -4.921  -0.689  0.00  0.00    -0.055 A 
HETATM   16  C   UNK N   1     -17.280  -4.448  -0.697  0.00  0.00     0.010 A 
HETATM   17  C   UNK N   1     -15.671  -6.371  -0.926  0.00  0.00     0.074 C 
HETATM   18  C   UNK N   1     -17.530  -3.098  -0.438  0.00  0.00     0.038 A 
HETATM   19  C   UNK N   1     -14.900  -7.020   0.246  0.00  0.00     0.185 C 
HETATM   20  N   UNK N   1     -13.488  -6.608   0.259  0.00  0.00    -0.358 N 
HETATM   21  C   UNK N   1     -12.504  -7.221  -0.330  0.00  0.00     0.135 C 
ATOM     22  HN  UNK N   1     -13.259  -5.761   0.780  1.00  0.00     0.162 HD
HETATM   23  C   UNK N   1     -11.073  -6.719  -0.215  0.00  0.00     0.153 C 
HETATM   24  C   UNK N   1     -10.246  -7.785   0.481  0.00  0.00     0.041 C 
HETATM   25  N   UNK N   1     -10.949  -5.481   0.546  0.00  0.00    -0.361 N 
HETATM   26  C   UNK N   1     -10.424  -4.384   0.085  0.00  0.00     0.140 C 
ATOM     27  HN  UNK N   1     -11.296  -5.476   1.504  1.00  0.00     0.162 HD
BRANCH  10  28
HETATM   28  O   UNK N   1     -14.781   0.337   0.380  0.00  0.00    -0.360 OA
HETATM   29  H   UNK N   1     -14.616   1.253   0.278  0.00  0.00     0.217 HD
ENDBRANCH  10  28
BRANCH  19  30
HETATM   30  C   UNK N   1     -15.085  -8.524   0.269  0.00  0.00     0.163 C 
HETATM   31  O   UNK N   1     -15.740  -9.088  -0.595  0.00  0.00    -0.648 OA
BRANCH  30  32
HETATM   32  O   UNK N   1     -14.529  -9.249   1.258  0.00  0.00    -0.775 OA
HETATM   33  H   UNK N   1     -14.773  -9.837   1.946  0.00  0.00     0.167 HD
ENDBRANCH  30  32
ENDBRANCH  19  30
BRANCH  21  34
HETATM   34  O   UNK N   1     -12.724  -8.344  -1.047  0.00  0.00    -0.348 OA
HETATM   35  H   UNK N   1     -13.475  -8.602  -1.544  0.00  0.00     0.219 HD
ENDBRANCH  21  34
BRANCH  26  36
HETATM   36  O   UNK N   1      -9.968  -4.313  -1.184  0.00  0.00    -0.348 OA
HETATM   37  H   UNK N   1      -9.767  -4.562  -2.064  0.00  0.00     0.219 HD
ENDBRANCH  26  36
BRANCH  14  38
HETATM   38  O   UNK N   1     -16.806  -0.945   0.136  0.00  0.00    -0.360 OA
HETATM   39  H   UNK N   1     -16.152  -0.305   0.338  0.00  0.00     0.217 HD
ENDBRANCH  14  38
ENDBRANCH   3   5
BRANCH   2  40
HETATM   40  C   UNK N   1      -9.402  -0.814  -0.708  0.00  0.00     0.224 C 
BRANCH  40  41
HETATM   41  N   UNK N   1      -8.674  -0.214  -1.796  0.00  0.00    -0.364 N 
HETATM   42  C   UNK N   1      -8.568   1.062  -1.961  0.00  0.00     0.134 C 
ATOM     43  HN  UNK N   1      -8.219  -0.829  -2.471  1.00  0.00     0.161 HD
BRANCH  42  44
HETATM   44  C   UNK N   1      -9.144   2.070  -0.963  0.00  0.00     0.153 C 
HETATM   45  C   UNK N   1      -8.991   3.510  -1.445  0.00  0.00     0.041 C 
BRANCH  44  46
HETATM   46  N   UNK N   1      -8.582   1.934   0.380  0.00  0.00    -0.361 N 
HETATM   47  C   UNK N   1      -7.344   2.084   0.751  0.00  0.00     0.137 C 
ATOM     48  HN  UNK N   1      -9.243   1.692   1.118  1.00  0.00     0.162 HD
BRANCH  47  49
HETATM   49  C   UNK N   1      -6.214   2.393  -0.225  0.00  0.00     0.184 C 
BRANCH  49  50
HETATM   50  C   UNK N   1      -5.650   3.815  -0.076  0.00  0.00     0.198 C 
BRANCH  50  51
HETATM   51  O   UNK N   1      -5.382   4.166   1.247  0.00  0.00    -0.398 OA
HETATM   52  H   UNK N   1      -5.078   4.126   2.167  0.00  0.00     0.209 HD
ENDBRANCH  50  51
ENDBRANCH  49  50
BRANCH  49  53
HETATM   53  N   UNK N   1      -5.181   1.355  -0.226  0.00  0.00    -0.342 N 
HETATM   54  C   UNK N   1      -5.101   0.490  -1.389  0.00  0.00     0.153 C 
HETATM   55  C   UNK N   1      -4.256   1.192   0.772  0.00  0.00     0.220 C 
HETATM   56  O   UNK N   1      -4.275   1.899   1.771  0.00  0.00    -0.273 OA
BRANCH  55  57
HETATM   57  C   UNK N   1      -3.140   0.203   0.613  0.00  0.00     0.103 C 
BRANCH  57  58
HETATM   58  C   UNK N   1      -1.824   0.914   0.302  0.00  0.00     0.009 C 
BRANCH  58  59
HETATM   59  C   UNK N   1      -1.908   1.795  -0.950  0.00  0.00     0.000 C 
BRANCH  59  60
HETATM   60  C   UNK N   1      -2.373   3.218  -0.625  0.00  0.00     0.000 C 
BRANCH  60  61
HETATM   61  C   UNK N   1      -1.538   3.864   0.483  0.00  0.00     0.000 C 
BRANCH  61  62
HETATM   62  C   UNK N   1      -0.196   4.388  -0.015  0.00  0.00     0.000 C 
BRANCH  62  63
HETATM   63  C   UNK N   1       0.658   3.270  -0.587  0.00  0.00     0.000 C 
BRANCH  63  64
HETATM   64  C   UNK N   1       1.931   3.078   0.211  0.00  0.00     0.004 C 
BRANCH  64  65
HETATM   65  C   UNK N   1       2.648   1.833  -0.282  0.00  0.00    -0.023 C 
HETATM   66  C   UNK N   1       4.075   1.832   0.221  0.00  0.00     0.009 C 
HETATM   67  C   UNK N   1       1.942   0.584   0.216  0.00  0.00     0.009 C 
ENDBRANCH  64  65
ENDBRANCH  63  64
ENDBRANCH  62  63
ENDBRANCH  61  62
ENDBRANCH  60  61
ENDBRANCH  59  60
ENDBRANCH  58  59
ENDBRANCH  57  58
ENDBRANCH  55  57
ENDBRANCH  49  53
ENDBRANCH  47  49
BRANCH  47  68
HETATM   68  O   UNK N   1      -7.050   1.959   2.059  0.00  0.00    -0.348 OA
HETATM   69  H   UNK N   1      -7.023   1.739   2.970  0.00  0.00     0.219 HD
ENDBRANCH  47  68
ENDBRANCH  44  46
ENDBRANCH  42  44
BRANCH  42  70
HETATM   70  O   UNK N   1      -7.937   1.514  -3.064  0.00  0.00    -0.348 OA
HETATM   71  H   UNK N   1      -7.446   1.291  -3.831  0.00  0.00     0.219 HD
ENDBRANCH  42  70
ENDBRANCH  40  41
ENDBRANCH   2  40
TORSDOF 26
