MODEL 1
REMARK VINA RESULT:      -7.2      0.000      0.000
REMARK  23 active torsions:
REMARK  status: ('A' for Active; 'I' for Inactive)
REMARK    1  A    between atoms: C_10  and  C_9 
REMARK    2  A    between atoms: C_17  and  C_9 
REMARK    3  A    between atoms: C_20  and  C_10 
REMARK    4  A    between atoms: C_28  and  C_17 
REMARK    5  A    between atoms: N_37  and  C_20 
REMARK    6  A    between atoms: C_26  and  C_23 
REMARK    7  A    between atoms: C_31  and  C_23 
REMARK    8  A    between atoms: C_27  and  C_24 
REMARK    9  A    between atoms: O_53  and  C_24 
REMARK   10  A    between atoms: C_34  and  C_25 
REMARK   11  A    between atoms: N_42  and  C_25 
REMARK   12  A    between atoms: C_32  and  C_28 
REMARK   13  A    between atoms: C_28  and  N_38 
REMARK   14  A    between atoms: C_29  and  C_33 
REMARK   15  A    between atoms: C_30  and  C_35 
REMARK   16  A    between atoms: C_31  and  N_40 
REMARK   17  A    between atoms: P_54  and  C_31 
REMARK   18  A    between atoms: C_32  and  O_45 
REMARK   19  A    between atoms: C_33  and  O_46 
REMARK       I    between atoms: N_43  and  C_34 
REMARK   20  A    between atoms: O_52  and  C_35 
REMARK       I    between atoms: N_44  and  C_36 
REMARK   21  A    between atoms: O_53  and  C_36 
REMARK   22  A    between atoms: P_54  and  N_42 
REMARK   23  A    between atoms: P_54  and  O_50 
ROOT
HETATM    1  C   UNK N   1      26.703  16.787   3.391  0.00  0.00     0.135 C 
HETATM    2  N   UNK N   1      27.639  15.965   3.743  0.00  0.00    -0.357 N 
ATOM      3  HN  UNK N   1      27.687  15.123   3.169  1.00  0.00     0.162 HD
ENDROOT
BRANCH   1   4
HETATM    4  C   UNK N   1      26.354  18.139   4.018  0.00  0.00     0.158 C 
BRANCH   4   5
HETATM    5  C   UNK N   1      27.559  19.096   4.055  0.00  0.00     0.033 C 
BRANCH   5   6
HETATM    6  C   UNK N   1      27.260  20.494   4.584  0.00  0.00     0.004 C 
BRANCH   6   7
HETATM    7  C   UNK N   1      27.492  20.542   6.087  0.00  0.00     0.027 C 
BRANCH   7   8
HETATM    8  C   UNK N   1      26.506  21.469   6.779  0.00  0.00     0.229 C 
BRANCH   8   9
HETATM    9  N   UNK N   1      26.027  20.843   7.997  0.00  0.00    -0.079 N 
HETATM   10  H   UNK N   1      25.744  21.404   8.800  0.00  0.00     0.274 HD
HETATM   11  H   UNK N   1      25.974  19.825   8.051  0.00  0.00     0.274 HD
HETATM   12  H   UNK N   1      25.693  20.390   8.848  0.00  0.00     0.274 HD
ENDBRANCH   8   9
ENDBRANCH   7   8
ENDBRANCH   6   7
ENDBRANCH   5   6
ENDBRANCH   4   5
BRANCH   4  13
HETATM   13  N   UNK N   1      25.054  18.767   3.789  0.00  0.00    -0.361 N 
HETATM   14  C   UNK N   1      23.972  18.612   4.485  0.00  0.00     0.135 C 
ATOM     15  HN  UNK N   1      24.992  19.399   2.991  1.00  0.00     0.162 HD
BRANCH  14  16
HETATM   16  C   UNK N   1      22.636  19.103   3.950  0.00  0.00     0.163 C 
HETATM   17  C   UNK N   1      22.686  20.174   2.876  0.00  0.00     0.035 C 
HETATM   18  C   UNK N   1      21.260  20.156   2.295  0.00  0.00     0.022 C 
HETATM   19  C   UNK N   1      20.703  18.763   2.603  0.00  0.00     0.129 C 
HETATM   20  N   UNK N   1      21.778  18.126   3.309  0.00  0.00    -0.316 N 
HETATM   21  C   UNK N   1      22.002  16.778   3.169  0.00  0.00     0.363 C 
HETATM   22  O   UNK N   1      21.191  16.087   2.572  0.00  0.00    -0.238 OA
BRANCH  21  23
HETATM   23  O   UNK N   1      23.130  16.209   3.655  0.00  0.00    -0.299 OA
BRANCH  23  24
HETATM   24  C   UNK N   1      23.314  14.845   3.760  0.00  0.00     0.219 C 
BRANCH  24  25
HETATM   25  C   UNK N   1      24.063  14.419   4.970  0.00  0.00    -0.034 A 
HETATM   26  C   UNK N   1      25.195  13.607   4.846  0.00  0.00     0.009 A 
HETATM   27  C   UNK N   1      25.832  13.117   5.988  0.00  0.00     0.001 A 
HETATM   28  C   UNK N   1      25.329  13.427   7.256  0.00  0.00     0.000 A 
HETATM   29  C   UNK N   1      24.191  14.229   7.381  0.00  0.00     0.001 A 
HETATM   30  C   UNK N   1      23.553  14.717   6.237  0.00  0.00     0.009 A 
ENDBRANCH  24  25
ENDBRANCH  23  24
ENDBRANCH  21  23
ENDBRANCH  14  16
BRANCH  14  31
HETATM   31  O   UNK N   1      23.999  18.010   5.688  0.00  0.00    -0.348 OA
HETATM   32  H   UNK N   1      24.146  17.154   6.040  0.00  0.00     0.219 HD
ENDBRANCH  14  31
ENDBRANCH   4  13
ENDBRANCH   1   4
BRANCH   1  33
HETATM   33  O   UNK N   1      25.902  16.395   2.381  0.00  0.00    -0.348 OA
HETATM   34  H   UNK N   1      25.455  16.896   1.728  0.00  0.00     0.219 HD
ENDBRANCH   1  33
BRANCH   2  35
HETATM   35  C   UNK N   1      28.631  16.009   4.796  0.00  0.00     0.192 C 
BRANCH  35  36
HETATM   36  C   UNK N   1      27.861  15.997   6.129  0.00  0.00     0.075 C 
BRANCH  36  37
HETATM   37  C   UNK N   1      28.461  16.867   7.211  0.00  0.00    -0.056 A 
HETATM   38  C   UNK N   1      27.695  17.191   8.338  0.00  0.00     0.007 A 
HETATM   39  C   UNK N   1      28.235  17.989   9.353  0.00  0.00     0.001 A 
HETATM   40  C   UNK N   1      29.543  18.474   9.243  0.00  0.00     0.000 A 
HETATM   41  C   UNK N   1      30.308  18.160   8.117  0.00  0.00     0.001 A 
HETATM   42  C   UNK N   1      29.767  17.358   7.107  0.00  0.00     0.007 A 
ENDBRANCH  36  37
ENDBRANCH  35  36
BRANCH  35  43
HETATM   43  P   UNK N   1      29.779  14.509   4.780  0.00  0.00     0.218 P 
HETATM   44  O   UNK N   1      29.200  13.071   4.731  0.00  0.00    -0.657 OA
BRANCH  43  45
HETATM   45  N   UNK N   1      31.493  14.503   4.228  0.00  0.00    -0.341 N 
HETATM   46  H   UNK N   1      31.880  13.783   3.618  0.00  0.00     0.163 HD
BRANCH  45  47
HETATM   47  C   UNK N   1      32.275  15.621   4.732  0.00  0.00     0.173 C 
HETATM   48  C   UNK N   1      33.188  16.067   3.603  0.00  0.00     0.042 C 
BRANCH  47  49
HETATM   49  C   UNK N   1      33.136  15.274   5.948  0.00  0.00     0.243 C 
HETATM   50  N   UNK N   1      33.721  16.211   6.785  0.00  0.00    -0.336 N 
HETATM   51  C   UNK N   1      33.558  17.631   6.604  0.00  0.00     0.127 C 
HETATM   52  C   UNK N   1      34.471  15.921   8.000  0.00  0.00     0.187 C 
HETATM   53  C   UNK N   1      34.015  18.261   7.911  0.00  0.00     0.022 C 
HETATM   54  C   UNK N   1      34.099  17.095   8.887  0.00  0.00     0.037 C 
HETATM   55  O   UNK N   1      33.304  14.085   6.159  0.00  0.00    -0.271 OA
BRANCH  52  56
HETATM   56  C   UNK N   1      34.240  14.589   8.685  0.00  0.00     0.281 C 
HETATM   57  O   UNK N   1      33.196  14.395   9.293  0.00  0.00    -0.263 OA
BRANCH  56  58
HETATM   58  O   UNK N   1      35.150  13.592   8.557  0.00  0.00    -0.325 OA
HETATM   59  C   UNK N   1      36.384  13.794   7.983  0.00  0.00     0.213 C 
ENDBRANCH  56  58
ENDBRANCH  52  56
ENDBRANCH  47  49
ENDBRANCH  45  47
ENDBRANCH  43  45
BRANCH  43  60
HETATM   60  O   UNK N   1      29.537  14.588   3.071  0.00  0.00    -0.333 OA
HETATM   61  H   UNK N   1      30.045  14.190   2.347  0.00  0.00     0.219 HD
ENDBRANCH  43  60
ENDBRANCH  35  43
ENDBRANCH   2  35
TORSDOF 23
ENDMDL
MODEL 2
REMARK VINA RESULT:      -7.1      4.124      7.046
REMARK  23 active torsions:
REMARK  status: ('A' for Active; 'I' for Inactive)
REMARK    1  A    between atoms: C_10  and  C_9 
REMARK    2  A    between atoms: C_17  and  C_9 
REMARK    3  A    between atoms: C_20  and  C_10 
REMARK    4  A    between atoms: C_28  and  C_17 
REMARK    5  A    between atoms: N_37  and  C_20 
REMARK    6  A    between atoms: C_26  and  C_23 
REMARK    7  A    between atoms: C_31  and  C_23 
REMARK    8  A    between atoms: C_27  and  C_24 
REMARK    9  A    between atoms: O_53  and  C_24 
REMARK   10  A    between atoms: C_34  and  C_25 
REMARK   11  A    between atoms: N_42  and  C_25 
REMARK   12  A    between atoms: C_32  and  C_28 
REMARK   13  A    between atoms: C_28  and  N_38 
REMARK   14  A    between atoms: C_29  and  C_33 
REMARK   15  A    between atoms: C_30  and  C_35 
REMARK   16  A    between atoms: C_31  and  N_40 
REMARK   17  A    between atoms: P_54  and  C_31 
REMARK   18  A    between atoms: C_32  and  O_45 
REMARK   19  A    between atoms: C_33  and  O_46 
REMARK       I    between atoms: N_43  and  C_34 
REMARK   20  A    between atoms: O_52  and  C_35 
REMARK       I    between atoms: N_44  and  C_36 
REMARK   21  A    between atoms: O_53  and  C_36 
REMARK   22  A    between atoms: P_54  and  N_42 
REMARK   23  A    between atoms: P_54  and  O_50 
ROOT
HETATM    1  C   UNK N   1      20.048  14.178   5.688  0.00  0.00     0.135 C 
HETATM    2  N   UNK N   1      20.888  13.212   5.887  0.00  0.00    -0.357 N 
ATOM      3  HN  UNK N   1      20.583  12.316   5.508  1.00  0.00     0.162 HD
ENDROOT
BRANCH   1   4
HETATM    4  C   UNK N   1      20.184  15.643   6.107  0.00  0.00     0.158 C 
BRANCH   4   5
HETATM    5  C   UNK N   1      21.216  15.837   7.233  0.00  0.00     0.033 C 
BRANCH   5   6
HETATM    6  C   UNK N   1      20.650  15.795   8.647  0.00  0.00     0.004 C 
BRANCH   6   7
HETATM    7  C   UNK N   1      19.288  16.474   8.683  0.00  0.00     0.027 C 
BRANCH   7   8
HETATM    8  C   UNK N   1      19.403  17.943   9.052  0.00  0.00     0.229 C 
BRANCH   8   9
HETATM    9  N   UNK N   1      18.228  18.346   9.802  0.00  0.00    -0.079 N 
HETATM   10  H   UNK N   1      17.344  17.847   9.704  0.00  0.00     0.274 HD
HETATM   11  H   UNK N   1      18.288  19.142  10.437  0.00  0.00     0.274 HD
HETATM   12  H   UNK N   1      17.409  18.641  10.335  0.00  0.00     0.274 HD
ENDBRANCH   8   9
ENDBRANCH   7   8
ENDBRANCH   6   7
ENDBRANCH   5   6
ENDBRANCH   4   5
BRANCH   4  13
HETATM   13  N   UNK N   1      20.110  16.723   5.124  0.00  0.00    -0.361 N 
HETATM   14  C   UNK N   1      21.069  17.176   4.380  0.00  0.00     0.135 C 
ATOM     15  HN  UNK N   1      19.201  17.169   5.011  1.00  0.00     0.162 HD
BRANCH  14  16
HETATM   16  C   UNK N   1      20.905  18.486   3.626  0.00  0.00     0.163 C 
HETATM   17  C   UNK N   1      22.107  19.412   3.604  0.00  0.00     0.035 C 
HETATM   18  C   UNK N   1      21.765  20.407   2.480  0.00  0.00     0.022 C 
HETATM   19  C   UNK N   1      20.768  19.681   1.572  0.00  0.00     0.129 C 
HETATM   20  N   UNK N   1      20.609  18.404   2.209  0.00  0.00    -0.316 N 
HETATM   21  C   UNK N   1      20.401  17.272   1.461  0.00  0.00     0.363 C 
HETATM   22  O   UNK N   1      20.189  17.367   0.262  0.00  0.00    -0.238 OA
BRANCH  21  23
HETATM   23  O   UNK N   1      20.462  16.045   2.030  0.00  0.00    -0.299 OA
BRANCH  23  24
HETATM   24  C   UNK N   1      20.056  14.888   1.396  0.00  0.00     0.219 C 
BRANCH  24  25
HETATM   25  C   UNK N   1      21.168  14.006   0.959  0.00  0.00    -0.034 A 
HETATM   26  C   UNK N   1      20.942  12.643   0.746  0.00  0.00     0.009 A 
HETATM   27  C   UNK N   1      22.011  11.796   0.442  0.00  0.00     0.001 A 
HETATM   28  C   UNK N   1      23.309  12.310   0.365  0.00  0.00     0.000 A 
HETATM   29  C   UNK N   1      23.538  13.671   0.588  0.00  0.00     0.001 A 
HETATM   30  C   UNK N   1      22.468  14.516   0.894  0.00  0.00     0.009 A 
ENDBRANCH  24  25
ENDBRANCH  23  24
ENDBRANCH  21  23
ENDBRANCH  14  16
BRANCH  14  31
HETATM   31  O   UNK N   1      22.232  16.508   4.260  0.00  0.00    -0.348 OA
HETATM   32  H   UNK N   1      23.074  16.633   3.868  0.00  0.00     0.219 HD
ENDBRANCH  14  31
ENDBRANCH   4  13
ENDBRANCH   1   4
BRANCH   1  33
HETATM   33  O   UNK N   1      18.890  13.856   5.079  0.00  0.00    -0.348 OA
HETATM   34  H   UNK N   1      18.727  13.486   4.234  0.00  0.00     0.219 HD
ENDBRANCH   1  33
BRANCH   2  35
HETATM   35  C   UNK N   1      22.175  13.159   6.544  0.00  0.00     0.192 C 
BRANCH  35  36
HETATM   36  C   UNK N   1      22.205  11.848   7.352  0.00  0.00     0.075 C 
BRANCH  36  37
HETATM   37  C   UNK N   1      22.660  12.002   8.786  0.00  0.00    -0.056 A 
HETATM   38  C   UNK N   1      21.716  12.277   9.783  0.00  0.00     0.007 A 
HETATM   39  C   UNK N   1      22.116  12.415  11.117  0.00  0.00     0.001 A 
HETATM   40  C   UNK N   1      23.466  12.286  11.460  0.00  0.00     0.000 A 
HETATM   41  C   UNK N   1      24.414  12.020  10.469  0.00  0.00     0.001 A 
HETATM   42  C   UNK N   1      24.009  11.877   9.137  0.00  0.00     0.007 A 
ENDBRANCH  36  37
ENDBRANCH  35  36
BRANCH  35  43
HETATM   43  P   UNK N   1      23.616  13.116   5.324  0.00  0.00     0.218 P 
HETATM   44  O   UNK N   1      23.823  11.896   4.387  0.00  0.00    -0.657 OA
BRANCH  43  45
HETATM   45  N   UNK N   1      24.480  14.552   4.666  0.00  0.00    -0.341 N 
HETATM   46  H   UNK N   1      24.176  15.051   3.831  0.00  0.00     0.163 HD
BRANCH  45  47
HETATM   47  C   UNK N   1      25.653  14.933   5.437  0.00  0.00     0.173 C 
HETATM   48  C   UNK N   1      25.398  14.501   6.872  0.00  0.00     0.042 C 
BRANCH  47  49
HETATM   49  C   UNK N   1      25.940  16.436   5.424  0.00  0.00     0.243 C 
HETATM   50  N   UNK N   1      27.202  16.993   5.559  0.00  0.00    -0.336 N 
HETATM   51  C   UNK N   1      28.394  16.199   5.710  0.00  0.00     0.127 C 
HETATM   52  C   UNK N   1      27.525  18.410   5.463  0.00  0.00     0.187 C 
HETATM   53  C   UNK N   1      29.550  17.150   5.440  0.00  0.00     0.022 C 
HETATM   54  C   UNK N   1      28.897  18.376   4.816  0.00  0.00     0.037 C 
HETATM   55  O   UNK N   1      24.969  17.161   5.290  0.00  0.00    -0.271 OA
BRANCH  52  56
HETATM   56  C   UNK N   1      26.563  19.316   4.720  0.00  0.00     0.281 C 
HETATM   57  O   UNK N   1      26.389  19.158   3.519  0.00  0.00    -0.263 OA
BRANCH  56  58
HETATM   58  O   UNK N   1      25.842  20.243   5.398  0.00  0.00    -0.325 OA
HETATM   59  C   UNK N   1      26.375  20.973   6.435  0.00  0.00     0.213 C 
ENDBRANCH  56  58
ENDBRANCH  52  56
ENDBRANCH  47  49
ENDBRANCH  45  47
ENDBRANCH  43  45
BRANCH  43  60
HETATM   60  O   UNK N   1      22.429  13.684   4.205  0.00  0.00    -0.333 OA
HETATM   61  H   UNK N   1      22.055  13.258   3.418  0.00  0.00     0.219 HD
ENDBRANCH  43  60
ENDBRANCH  35  43
ENDBRANCH   2  35
TORSDOF 23
ENDMDL
MODEL 3
REMARK VINA RESULT:      -7.1      4.186      9.157
REMARK  23 active torsions:
REMARK  status: ('A' for Active; 'I' for Inactive)
REMARK    1  A    between atoms: C_10  and  C_9 
REMARK    2  A    between atoms: C_17  and  C_9 
REMARK    3  A    between atoms: C_20  and  C_10 
REMARK    4  A    between atoms: C_28  and  C_17 
REMARK    5  A    between atoms: N_37  and  C_20 
REMARK    6  A    between atoms: C_26  and  C_23 
REMARK    7  A    between atoms: C_31  and  C_23 
REMARK    8  A    between atoms: C_27  and  C_24 
REMARK    9  A    between atoms: O_53  and  C_24 
REMARK   10  A    between atoms: C_34  and  C_25 
REMARK   11  A    between atoms: N_42  and  C_25 
REMARK   12  A    between atoms: C_32  and  C_28 
REMARK   13  A    between atoms: C_28  and  N_38 
REMARK   14  A    between atoms: C_29  and  C_33 
REMARK   15  A    between atoms: C_30  and  C_35 
REMARK   16  A    between atoms: C_31  and  N_40 
REMARK   17  A    between atoms: P_54  and  C_31 
REMARK   18  A    between atoms: C_32  and  O_45 
REMARK   19  A    between atoms: C_33  and  O_46 
REMARK       I    between atoms: N_43  and  C_34 
REMARK   20  A    between atoms: O_52  and  C_35 
REMARK       I    between atoms: N_44  and  C_36 
REMARK   21  A    between atoms: O_53  and  C_36 
REMARK   22  A    between atoms: P_54  and  N_42 
REMARK   23  A    between atoms: P_54  and  O_50 
ROOT
HETATM    1  C   UNK N   1      23.189  16.655   4.758  0.00  0.00     0.135 C 
HETATM    2  N   UNK N   1      22.890  15.577   4.106  0.00  0.00    -0.357 N 
ATOM      3  HN  UNK N   1      22.761  14.758   4.701  1.00  0.00     0.162 HD
ENDROOT
BRANCH   1   4
HETATM    4  C   UNK N   1      23.440  18.055   4.193  0.00  0.00     0.158 C 
BRANCH   4   5
HETATM    5  C   UNK N   1      22.134  18.830   3.945  0.00  0.00     0.033 C 
BRANCH   5   6
HETATM    6  C   UNK N   1      22.276  20.087   3.094  0.00  0.00     0.004 C 
BRANCH   6   7
HETATM    7  C   UNK N   1      20.904  20.570   2.646  0.00  0.00     0.027 C 
BRANCH   7   8
HETATM    8  C   UNK N   1      20.743  20.485   1.138  0.00  0.00     0.229 C 
BRANCH   8   9
HETATM    9  N   UNK N   1      20.409  19.124   0.763  0.00  0.00    -0.079 N 
HETATM   10  H   UNK N   1      19.933  18.501   1.415  0.00  0.00     0.274 HD
HETATM   11  H   UNK N   1      20.654  18.785  -0.168  0.00  0.00     0.274 HD
HETATM   12  H   UNK N   1      20.180  18.169   0.487  0.00  0.00     0.274 HD
ENDBRANCH   8   9
ENDBRANCH   7   8
ENDBRANCH   6   7
ENDBRANCH   5   6
ENDBRANCH   4   5
BRANCH   4  13
HETATM   13  N   UNK N   1      24.577  18.859   4.638  0.00  0.00    -0.361 N 
HETATM   14  C   UNK N   1      25.824  18.697   4.328  0.00  0.00     0.135 C 
ATOM     15  HN  UNK N   1      24.364  19.636   5.263  1.00  0.00     0.162 HD
BRANCH  14  16
HETATM   16  C   UNK N   1      26.912  19.430   5.099  0.00  0.00     0.163 C 
HETATM   17  C   UNK N   1      26.496  20.701   5.815  0.00  0.00     0.035 C 
HETATM   18  C   UNK N   1      27.668  20.961   6.779  0.00  0.00     0.022 C 
HETATM   19  C   UNK N   1      28.336  19.599   6.998  0.00  0.00     0.129 C 
HETATM   20  N   UNK N   1      27.555  18.713   6.182  0.00  0.00    -0.316 N 
HETATM   21  C   UNK N   1      27.339  17.415   6.572  0.00  0.00     0.363 C 
HETATM   22  O   UNK N   1      27.944  16.960   7.532  0.00  0.00    -0.238 OA
BRANCH  21  23
HETATM   23  O   UNK N   1      26.437  16.638   5.927  0.00  0.00    -0.299 OA
BRANCH  23  24
HETATM   24  C   UNK N   1      26.685  15.335   5.546  0.00  0.00     0.219 C 
BRANCH  24  25
HETATM   25  C   UNK N   1      25.881  14.320   6.273  0.00  0.00    -0.034 A 
HETATM   26  C   UNK N   1      25.625  14.473   7.639  0.00  0.00     0.009 A 
HETATM   27  C   UNK N   1      24.964  13.464   8.343  0.00  0.00     0.001 A 
HETATM   28  C   UNK N   1      24.571  12.294   7.685  0.00  0.00     0.000 A 
HETATM   29  C   UNK N   1      24.837  12.135   6.322  0.00  0.00     0.001 A 
HETATM   30  C   UNK N   1      25.500  13.145   5.619  0.00  0.00     0.009 A 
ENDBRANCH  24  25
ENDBRANCH  23  24
ENDBRANCH  21  23
ENDBRANCH  14  16
BRANCH  14  31
HETATM   31  O   UNK N   1      26.192  17.875   3.327  0.00  0.00    -0.348 OA
HETATM   32  H   UNK N   1      26.338  17.920   2.402  0.00  0.00     0.219 HD
ENDBRANCH  14  31
ENDBRANCH   4  13
ENDBRANCH   1   4
BRANCH   1  33
HETATM   33  O   UNK N   1      23.348  16.533   6.090  0.00  0.00    -0.348 OA
HETATM   34  H   UNK N   1      23.256  17.164   6.775  0.00  0.00     0.219 HD
ENDBRANCH   1  33
BRANCH   2  35
HETATM   35  C   UNK N   1      22.702  15.309   2.697  0.00  0.00     0.192 C 
BRANCH  35  36
HETATM   36  C   UNK N   1      22.976  13.807   2.493  0.00  0.00     0.075 C 
BRANCH  36  37
HETATM   37  C   UNK N   1      24.433  13.455   2.289  0.00  0.00    -0.056 A 
HETATM   38  C   UNK N   1      24.810  12.110   2.196  0.00  0.00     0.007 A 
HETATM   39  C   UNK N   1      26.152  11.764   1.999  0.00  0.00     0.001 A 
HETATM   40  C   UNK N   1      27.126  12.763   1.902  0.00  0.00     0.000 A 
HETATM   41  C   UNK N   1      26.756  14.106   2.002  0.00  0.00     0.001 A 
HETATM   42  C   UNK N   1      25.414  14.448   2.193  0.00  0.00     0.007 A 
ENDBRANCH  36  37
ENDBRANCH  35  36
BRANCH  35  43
HETATM   43  P   UNK N   1      20.938  15.656   2.116  0.00  0.00     0.218 P 
HETATM   44  O   UNK N   1      20.636  15.917   0.617  0.00  0.00    -0.657 OA
BRANCH  43  45
HETATM   45  N   UNK N   1      19.434  15.161   2.972  0.00  0.00    -0.341 N 
HETATM   46  H   UNK N   1      18.501  15.428   2.659  0.00  0.00     0.163 HD
BRANCH  45  47
HETATM   47  C   UNK N   1      19.673  14.343   4.150  0.00  0.00     0.173 C 
HETATM   48  C   UNK N   1      18.595  13.271   4.170  0.00  0.00     0.042 C 
BRANCH  47  49
HETATM   49  C   UNK N   1      19.611  15.121   5.466  0.00  0.00     0.243 C 
HETATM   50  N   UNK N   1      20.089  14.648   6.678  0.00  0.00    -0.336 N 
HETATM   51  C   UNK N   1      20.721  13.361   6.821  0.00  0.00     0.127 C 
HETATM   52  C   UNK N   1      20.129  15.393   7.930  0.00  0.00     0.187 C 
HETATM   53  C   UNK N   1      21.420  13.401   8.170  0.00  0.00     0.022 C 
HETATM   54  C   UNK N   1      21.405  14.872   8.564  0.00  0.00     0.037 C 
HETATM   55  O   UNK N   1      19.094  16.224   5.407  0.00  0.00    -0.271 OA
BRANCH  52  56
HETATM   56  C   UNK N   1      20.096  16.907   7.865  0.00  0.00     0.281 C 
HETATM   57  O   UNK N   1      21.030  17.510   7.353  0.00  0.00    -0.263 OA
BRANCH  56  58
HETATM   58  O   UNK N   1      19.005  17.582   8.300  0.00  0.00    -0.325 OA
HETATM   59  C   UNK N   1      18.022  16.982   9.052  0.00  0.00     0.213 C 
ENDBRANCH  56  58
ENDBRANCH  52  56
ENDBRANCH  47  49
ENDBRANCH  45  47
ENDBRANCH  43  45
BRANCH  43  60
HETATM   60  O   UNK N   1      20.936  13.968   1.750  0.00  0.00    -0.333 OA
HETATM   61  H   UNK N   1      20.549  13.490   0.999  0.00  0.00     0.219 HD
ENDBRANCH  43  60
ENDBRANCH  35  43
ENDBRANCH   2  35
TORSDOF 23
ENDMDL
MODEL 4
REMARK VINA RESULT:      -7.0      3.068      5.837
REMARK  23 active torsions:
REMARK  status: ('A' for Active; 'I' for Inactive)
REMARK    1  A    between atoms: C_10  and  C_9 
REMARK    2  A    between atoms: C_17  and  C_9 
REMARK    3  A    between atoms: C_20  and  C_10 
REMARK    4  A    between atoms: C_28  and  C_17 
REMARK    5  A    between atoms: N_37  and  C_20 
REMARK    6  A    between atoms: C_26  and  C_23 
REMARK    7  A    between atoms: C_31  and  C_23 
REMARK    8  A    between atoms: C_27  and  C_24 
REMARK    9  A    between atoms: O_53  and  C_24 
REMARK   10  A    between atoms: C_34  and  C_25 
REMARK   11  A    between atoms: N_42  and  C_25 
REMARK   12  A    between atoms: C_32  and  C_28 
REMARK   13  A    between atoms: C_28  and  N_38 
REMARK   14  A    between atoms: C_29  and  C_33 
REMARK   15  A    between atoms: C_30  and  C_35 
REMARK   16  A    between atoms: C_31  and  N_40 
REMARK   17  A    between atoms: P_54  and  C_31 
REMARK   18  A    between atoms: C_32  and  O_45 
REMARK   19  A    between atoms: C_33  and  O_46 
REMARK       I    between atoms: N_43  and  C_34 
REMARK   20  A    between atoms: O_52  and  C_35 
REMARK       I    between atoms: N_44  and  C_36 
REMARK   21  A    between atoms: O_53  and  C_36 
REMARK   22  A    between atoms: P_54  and  N_42 
REMARK   23  A    between atoms: P_54  and  O_50 
ROOT
HETATM    1  C   UNK N   1      22.657  14.961   4.913  0.00  0.00     0.135 C 
HETATM    2  N   UNK N   1      23.937  15.149   4.856  0.00  0.00    -0.357 N 
ATOM      3  HN  UNK N   1      24.444  14.394   4.395  1.00  0.00     0.162 HD
ENDROOT
BRANCH   1   4
HETATM    4  C   UNK N   1      21.598  15.886   5.518  0.00  0.00     0.158 C 
BRANCH   4   5
HETATM    5  C   UNK N   1      21.658  15.920   7.055  0.00  0.00     0.033 C 
BRANCH   5   6
HETATM    6  C   UNK N   1      20.316  15.769   7.761  0.00  0.00     0.004 C 
BRANCH   6   7
HETATM    7  C   UNK N   1      19.893  17.101   8.365  0.00  0.00     0.027 C 
BRANCH   7   8
HETATM    8  C   UNK N   1      18.474  17.047   8.905  0.00  0.00     0.229 C 
BRANCH   8   9
HETATM    9  N   UNK N   1      18.196  18.258   9.655  0.00  0.00    -0.079 N 
HETATM   10  H   UNK N   1      18.400  18.318  10.652  0.00  0.00     0.274 HD
HETATM   11  H   UNK N   1      17.791  19.063   9.176  0.00  0.00     0.274 HD
HETATM   12  H   UNK N   1      17.995  19.116  10.170  0.00  0.00     0.274 HD
ENDBRANCH   8   9
ENDBRANCH   7   8
ENDBRANCH   6   7
ENDBRANCH   5   6
ENDBRANCH   4   5
BRANCH   4  13
HETATM   13  N   UNK N   1      21.234  17.145   4.871  0.00  0.00    -0.361 N 
HETATM   14  C   UNK N   1      20.132  17.419   4.247  0.00  0.00     0.135 C 
ATOM     15  HN  UNK N   1      21.925  17.894   4.918  1.00  0.00     0.162 HD
BRANCH  14  16
HETATM   16  C   UNK N   1      20.026  18.667   3.383  0.00  0.00     0.163 C 
HETATM   17  C   UNK N   1      21.032  19.769   3.655  0.00  0.00     0.035 C 
HETATM   18  C   UNK N   1      20.917  20.666   2.410  0.00  0.00     0.022 C 
HETATM   19  C   UNK N   1      20.362  19.768   1.300  0.00  0.00     0.129 C 
HETATM   20  N   UNK N   1      20.196  18.500   1.953  0.00  0.00    -0.316 N 
HETATM   21  C   UNK N   1      20.391  17.330   1.263  0.00  0.00     0.363 C 
HETATM   22  O   UNK N   1      20.548  17.357   0.052  0.00  0.00    -0.238 OA
BRANCH  21  23
HETATM   23  O   UNK N   1      20.445  16.143   1.913  0.00  0.00    -0.299 OA
BRANCH  23  24
HETATM   24  C   UNK N   1      20.287  14.922   1.290  0.00  0.00     0.219 C 
BRANCH  24  25
HETATM   25  C   UNK N   1      21.560  14.228   0.969  0.00  0.00    -0.034 A 
HETATM   26  C   UNK N   1      21.546  12.899   0.533  0.00  0.00     0.009 A 
HETATM   27  C   UNK N   1      22.748  12.215   0.338  0.00  0.00     0.001 A 
HETATM   28  C   UNK N   1      23.965  12.854   0.592  0.00  0.00     0.000 A 
HETATM   29  C   UNK N   1      23.981  14.179   1.039  0.00  0.00     0.001 A 
HETATM   30  C   UNK N   1      22.778  14.862   1.236  0.00  0.00     0.009 A 
ENDBRANCH  24  25
ENDBRANCH  23  24
ENDBRANCH  21  23
ENDBRANCH  14  16
BRANCH  14  31
HETATM   31  O   UNK N   1      19.061  16.609   4.337  0.00  0.00    -0.348 OA
HETATM   32  H   UNK N   1      18.864  15.736   4.615  0.00  0.00     0.219 HD
ENDBRANCH  14  31
ENDBRANCH   4  13
ENDBRANCH   1   4
BRANCH   1  33
HETATM   33  O   UNK N   1      22.195  13.793   4.426  0.00  0.00    -0.348 OA
HETATM   34  H   UNK N   1      22.613  13.147   3.893  0.00  0.00     0.219 HD
ENDBRANCH   1  33
BRANCH   2  35
HETATM   35  C   UNK N   1      24.787  16.224   5.319  0.00  0.00     0.192 C 
BRANCH  35  36
HETATM   36  C   UNK N   1      26.211  15.648   5.422  0.00  0.00     0.075 C 
BRANCH  36  37
HETATM   37  C   UNK N   1      26.644  14.820   4.232  0.00  0.00    -0.056 A 
HETATM   38  C   UNK N   1      26.500  13.428   4.272  0.00  0.00     0.007 A 
HETATM   39  C   UNK N   1      26.887  12.647   3.177  0.00  0.00     0.001 A 
HETATM   40  C   UNK N   1      27.428  13.253   2.039  0.00  0.00     0.000 A 
HETATM   41  C   UNK N   1      27.581  14.642   1.997  0.00  0.00     0.001 A 
HETATM   42  C   UNK N   1      27.188  15.420   3.091  0.00  0.00     0.007 A 
ENDBRANCH  36  37
ENDBRANCH  35  36
BRANCH  35  43
HETATM   43  P   UNK N   1      24.841  17.681   4.118  0.00  0.00     0.218 P 
HETATM   44  O   UNK N   1      23.588  18.072   3.291  0.00  0.00    -0.657 OA
BRANCH  43  45
HETATM   45  N   UNK N   1      25.982  19.072   4.203  0.00  0.00    -0.341 N 
HETATM   46  H   UNK N   1      26.213  19.653   3.397  0.00  0.00     0.163 HD
BRANCH  45  47
HETATM   47  C   UNK N   1      26.541  19.289   5.527  0.00  0.00     0.173 C 
HETATM   48  C   UNK N   1      26.664  20.793   5.713  0.00  0.00     0.042 C 
BRANCH  47  49
HETATM   49  C   UNK N   1      27.921  18.660   5.727  0.00  0.00     0.243 C 
HETATM   50  N   UNK N   1      28.529  18.483   6.960  0.00  0.00    -0.336 N 
HETATM   51  C   UNK N   1      27.906  18.864   8.201  0.00  0.00     0.127 C 
HETATM   52  C   UNK N   1      29.799  17.808   7.197  0.00  0.00     0.187 C 
HETATM   53  C   UNK N   1      28.708  18.166   9.288  0.00  0.00     0.022 C 
HETATM   54  C   UNK N   1      29.556  17.146   8.540  0.00  0.00     0.037 C 
HETATM   55  O   UNK N   1      28.497  18.307   4.712  0.00  0.00    -0.271 OA
BRANCH  52  56
HETATM   56  C   UNK N   1      30.295  16.826   6.155  0.00  0.00     0.281 C 
HETATM   57  O   UNK N   1      31.293  17.093   5.499  0.00  0.00    -0.263 OA
BRANCH  56  58
HETATM   58  O   UNK N   1      29.682  15.626   6.005  0.00  0.00    -0.325 OA
HETATM   59  C   UNK N   1      30.240  14.603   5.274  0.00  0.00     0.213 C 
ENDBRANCH  56  58
ENDBRANCH  52  56
ENDBRANCH  47  49
ENDBRANCH  45  47
ENDBRANCH  43  45
BRANCH  43  60
HETATM   60  O   UNK N   1      24.149  18.546   5.443  0.00  0.00    -0.333 OA
HETATM   61  H   UNK N   1      23.451  18.286   6.065  0.00  0.00     0.219 HD
ENDBRANCH  43  60
ENDBRANCH  35  43
ENDBRANCH   2  35
TORSDOF 23
ENDMDL
MODEL 5
REMARK VINA RESULT:      -7.0      3.186      6.160
REMARK  23 active torsions:
REMARK  status: ('A' for Active; 'I' for Inactive)
REMARK    1  A    between atoms: C_10  and  C_9 
REMARK    2  A    between atoms: C_17  and  C_9 
REMARK    3  A    between atoms: C_20  and  C_10 
REMARK    4  A    between atoms: C_28  and  C_17 
REMARK    5  A    between atoms: N_37  and  C_20 
REMARK    6  A    between atoms: C_26  and  C_23 
REMARK    7  A    between atoms: C_31  and  C_23 
REMARK    8  A    between atoms: C_27  and  C_24 
REMARK    9  A    between atoms: O_53  and  C_24 
REMARK   10  A    between atoms: C_34  and  C_25 
REMARK   11  A    between atoms: N_42  and  C_25 
REMARK   12  A    between atoms: C_32  and  C_28 
REMARK   13  A    between atoms: C_28  and  N_38 
REMARK   14  A    between atoms: C_29  and  C_33 
REMARK   15  A    between atoms: C_30  and  C_35 
REMARK   16  A    between atoms: C_31  and  N_40 
REMARK   17  A    between atoms: P_54  and  C_31 
REMARK   18  A    between atoms: C_32  and  O_45 
REMARK   19  A    between atoms: C_33  and  O_46 
REMARK       I    between atoms: N_43  and  C_34 
REMARK   20  A    between atoms: O_52  and  C_35 
REMARK       I    between atoms: N_44  and  C_36 
REMARK   21  A    between atoms: O_53  and  C_36 
REMARK   22  A    between atoms: P_54  and  N_42 
REMARK   23  A    between atoms: P_54  and  O_50 
ROOT
HETATM    1  C   UNK N   1      31.209  14.836   5.667  0.00  0.00     0.135 C 
HETATM    2  N   UNK N   1      30.977  15.591   6.693  0.00  0.00    -0.357 N 
ATOM      3  HN  UNK N   1      31.013  15.097   7.585  1.00  0.00     0.162 HD
ENDROOT
BRANCH   1   4
HETATM    4  C   UNK N   1      31.246  15.240   4.192  0.00  0.00     0.158 C 
BRANCH   4   5
HETATM    5  C   UNK N   1      32.520  16.024   3.830  0.00  0.00     0.033 C 
BRANCH   5   6
HETATM    6  C   UNK N   1      33.469  15.313   2.872  0.00  0.00     0.004 C 
BRANCH   6   7
HETATM    7  C   UNK N   1      34.285  14.272   3.626  0.00  0.00     0.027 C 
BRANCH   7   8
HETATM    8  C   UNK N   1      34.080  12.878   3.056  0.00  0.00     0.229 C 
BRANCH   8   9
HETATM    9  N   UNK N   1      33.248  12.105   3.959  0.00  0.00    -0.079 N 
HETATM   10  H   UNK N   1      33.662  11.538   4.700  0.00  0.00     0.274 HD
HETATM   11  H   UNK N   1      32.234  12.127   3.851  0.00  0.00     0.274 HD
HETATM   12  H   UNK N   1      32.652  11.564   4.587  0.00  0.00     0.274 HD
ENDBRANCH   8   9
ENDBRANCH   7   8
ENDBRANCH   6   7
ENDBRANCH   5   6
ENDBRANCH   4   5
BRANCH   4  13
HETATM   13  N   UNK N   1      30.732  14.352   3.150  0.00  0.00    -0.361 N 
HETATM   14  C   UNK N   1      29.734  14.569   2.354  0.00  0.00     0.135 C 
ATOM     15  HN  UNK N   1      31.215  13.461   3.037  1.00  0.00     0.162 HD
BRANCH  14  16
HETATM   16  C   UNK N   1      29.145  13.434   1.529  0.00  0.00     0.163 C 
HETATM   17  C   UNK N   1      30.099  12.327   1.120  0.00  0.00     0.035 C 
HETATM   18  C   UNK N   1      29.154  11.197   0.672  0.00  0.00     0.022 C 
HETATM   19  C   UNK N   1      27.824  11.460   1.385  0.00  0.00     0.129 C 
HETATM   20  N   UNK N   1      28.081  12.657   2.134  0.00  0.00    -0.316 N 
HETATM   21  C   UNK N   1      27.491  12.855   3.357  0.00  0.00     0.363 C 
HETATM   22  O   UNK N   1      26.619  12.090   3.742  0.00  0.00    -0.238 OA
BRANCH  21  23
HETATM   23  O   UNK N   1      27.886  13.869   4.162  0.00  0.00    -0.299 OA
BRANCH  23  24
HETATM   24  C   UNK N   1      27.118  14.371   5.193  0.00  0.00     0.219 C 
BRANCH  24  25
HETATM   25  C   UNK N   1      26.369  15.607   4.854  0.00  0.00    -0.034 A 
HETATM   26  C   UNK N   1      25.523  16.197   5.798  0.00  0.00     0.009 A 
HETATM   27  C   UNK N   1      24.735  17.294   5.441  0.00  0.00     0.001 A 
HETATM   28  C   UNK N   1      24.783  17.794   4.136  0.00  0.00     0.000 A 
HETATM   29  C   UNK N   1      25.620  17.198   3.189  0.00  0.00     0.001 A 
HETATM   30  C   UNK N   1      26.405  16.099   3.546  0.00  0.00     0.009 A 
ENDBRANCH  24  25
ENDBRANCH  23  24
ENDBRANCH  21  23
ENDBRANCH  14  16
BRANCH  14  31
HETATM   31  O   UNK N   1      29.187  15.794   2.240  0.00  0.00    -0.348 OA
HETATM   32  H   UNK N   1      29.377  16.673   2.504  0.00  0.00     0.219 HD
ENDBRANCH  14  31
ENDBRANCH   4  13
ENDBRANCH   1   4
BRANCH   1  33
HETATM   33  O   UNK N   1      31.397  13.524   5.912  0.00  0.00    -0.348 OA
HETATM   34  H   UNK N   1      32.041  12.929   5.581  0.00  0.00     0.219 HD
ENDBRANCH   1  33
BRANCH   2  35
HETATM   35  C   UNK N   1      30.675  17.000   6.819  0.00  0.00     0.192 C 
BRANCH  35  36
HETATM   36  C   UNK N   1      29.157  17.108   7.051  0.00  0.00     0.075 C 
BRANCH  36  37
HETATM   37  C   UNK N   1      28.510  18.327   6.432  0.00  0.00    -0.056 A 
HETATM   38  C   UNK N   1      28.620  18.541   5.053  0.00  0.00     0.007 A 
HETATM   39  C   UNK N   1      28.021  19.659   4.461  0.00  0.00     0.001 A 
HETATM   40  C   UNK N   1      27.316  20.575   5.248  0.00  0.00     0.000 A 
HETATM   41  C   UNK N   1      27.209  20.371   6.626  0.00  0.00     0.001 A 
HETATM   42  C   UNK N   1      27.804  19.249   7.213  0.00  0.00     0.007 A 
ENDBRANCH  36  37
ENDBRANCH  35  36
BRANCH  35  43
HETATM   43  P   UNK N   1      31.541  17.803   8.294  0.00  0.00     0.218 P 
HETATM   44  O   UNK N   1      30.849  18.936   9.097  0.00  0.00    -0.657 OA
BRANCH  43  45
HETATM   45  N   UNK N   1      32.843  17.051   9.285  0.00  0.00    -0.341 N 
HETATM   46  H   UNK N   1      32.724  16.806  10.268  0.00  0.00     0.163 HD
BRANCH  45  47
HETATM   47  C   UNK N   1      34.079  16.826   8.553  0.00  0.00     0.173 C 
HETATM   48  C   UNK N   1      33.983  17.626   7.265  0.00  0.00     0.042 C 
BRANCH  47  49
HETATM   49  C   UNK N   1      34.330  15.359   8.198  0.00  0.00     0.243 C 
HETATM   50  N   UNK N   1      34.870  14.425   9.067  0.00  0.00    -0.336 N 
HETATM   51  C   UNK N   1      35.239  14.740  10.424  0.00  0.00     0.127 C 
HETATM   52  C   UNK N   1      35.039  13.003   8.796  0.00  0.00     0.187 C 
HETATM   53  C   UNK N   1      35.412  13.399  11.119  0.00  0.00     0.022 C 
HETATM   54  C   UNK N   1      34.790  12.391  10.162  0.00  0.00     0.037 C 
HETATM   55  O   UNK N   1      34.028  15.028   7.064  0.00  0.00    -0.271 OA
BRANCH  52  56
HETATM   56  C   UNK N   1      34.181  12.371   7.719  0.00  0.00     0.281 C 
HETATM   57  O   UNK N   1      32.985  12.204   7.919  0.00  0.00    -0.263 OA
BRANCH  56  58
HETATM   58  O   UNK N   1      34.719  12.066   6.512  0.00  0.00    -0.325 OA
HETATM   59  C   UNK N   1      36.070  12.157   6.268  0.00  0.00     0.213 C 
ENDBRANCH  56  58
ENDBRANCH  52  56
ENDBRANCH  47  49
ENDBRANCH  45  47
ENDBRANCH  43  45
BRANCH  43  60
HETATM   60  O   UNK N   1      30.601  16.678   9.207  0.00  0.00    -0.333 OA
HETATM   61  H   UNK N   1      30.392  16.659  10.154  0.00  0.00     0.219 HD
ENDBRANCH  43  60
ENDBRANCH  35  43
ENDBRANCH   2  35
TORSDOF 23
ENDMDL
MODEL 6
REMARK VINA RESULT:      -7.0      3.190      5.845
REMARK  23 active torsions:
REMARK  status: ('A' for Active; 'I' for Inactive)
REMARK    1  A    between atoms: C_10  and  C_9 
REMARK    2  A    between atoms: C_17  and  C_9 
REMARK    3  A    between atoms: C_20  and  C_10 
REMARK    4  A    between atoms: C_28  and  C_17 
REMARK    5  A    between atoms: N_37  and  C_20 
REMARK    6  A    between atoms: C_26  and  C_23 
REMARK    7  A    between atoms: C_31  and  C_23 
REMARK    8  A    between atoms: C_27  and  C_24 
REMARK    9  A    between atoms: O_53  and  C_24 
REMARK   10  A    between atoms: C_34  and  C_25 
REMARK   11  A    between atoms: N_42  and  C_25 
REMARK   12  A    between atoms: C_32  and  C_28 
REMARK   13  A    between atoms: C_28  and  N_38 
REMARK   14  A    between atoms: C_29  and  C_33 
REMARK   15  A    between atoms: C_30  and  C_35 
REMARK   16  A    between atoms: C_31  and  N_40 
REMARK   17  A    between atoms: P_54  and  C_31 
REMARK   18  A    between atoms: C_32  and  O_45 
REMARK   19  A    between atoms: C_33  and  O_46 
REMARK       I    between atoms: N_43  and  C_34 
REMARK   20  A    between atoms: O_52  and  C_35 
REMARK       I    between atoms: N_44  and  C_36 
REMARK   21  A    between atoms: O_53  and  C_36 
REMARK   22  A    between atoms: P_54  and  N_42 
REMARK   23  A    between atoms: P_54  and  O_50 
ROOT
HETATM    1  C   UNK N   1      22.350  14.088   4.421  0.00  0.00     0.135 C 
HETATM    2  N   UNK N   1      23.597  14.086   4.770  0.00  0.00    -0.357 N 
ATOM      3  HN  UNK N   1      24.161  13.394   4.276  1.00  0.00     0.162 HD
ENDROOT
BRANCH   1   4
HETATM    4  C   UNK N   1      21.230  14.990   4.944  0.00  0.00     0.158 C 
BRANCH   4   5
HETATM    5  C   UNK N   1      20.885  14.704   6.416  0.00  0.00     0.033 C 
BRANCH   5   6
HETATM    6  C   UNK N   1      21.278  15.801   7.400  0.00  0.00     0.004 C 
BRANCH   6   7
HETATM    7  C   UNK N   1      21.135  15.294   8.828  0.00  0.00     0.027 C 
BRANCH   7   8
HETATM    8  C   UNK N   1      20.894  13.794   8.870  0.00  0.00     0.229 C 
BRANCH   8   9
HETATM    9  N   UNK N   1      20.693  13.376  10.245  0.00  0.00    -0.079 N 
HETATM   10  H   UNK N   1      20.080  13.900  10.869  0.00  0.00     0.274 HD
HETATM   11  H   UNK N   1      21.172  12.545  10.592  0.00  0.00     0.274 HD
HETATM   12  H   UNK N   1      20.560  13.072  11.210  0.00  0.00     0.274 HD
ENDBRANCH   8   9
ENDBRANCH   7   8
ENDBRANCH   6   7
ENDBRANCH   5   6
ENDBRANCH   4   5
BRANCH   4  13
HETATM   13  N   UNK N   1      21.129  16.389   4.531  0.00  0.00    -0.361 N 
HETATM   14  C   UNK N   1      20.075  17.009   4.104  0.00  0.00     0.135 C 
ATOM     15  HN  UNK N   1      21.986  16.939   4.586  1.00  0.00     0.162 HD
BRANCH  14  16
HETATM   16  C   UNK N   1      20.198  18.373   3.442  0.00  0.00     0.163 C 
HETATM   17  C   UNK N   1      21.406  19.207   3.826  0.00  0.00     0.035 C 
HETATM   18  C   UNK N   1      21.446  20.292   2.735  0.00  0.00     0.022 C 
HETATM   19  C   UNK N   1      20.704  19.700   1.532  0.00  0.00     0.129 C 
HETATM   20  N   UNK N   1      20.306  18.402   1.997  0.00  0.00    -0.316 N 
HETATM   21  C   UNK N   1      20.255  17.337   1.132  0.00  0.00     0.363 C 
HETATM   22  O   UNK N   1      20.392  17.522  -0.068  0.00  0.00    -0.238 OA
BRANCH  21  23
HETATM   23  O   UNK N   1      20.088  16.075   1.594  0.00  0.00    -0.299 OA
BRANCH  23  24
HETATM   24  C   UNK N   1      20.610  14.959   0.975  0.00  0.00     0.219 C 
BRANCH  24  25
HETATM   25  C   UNK N   1      19.614  13.897   0.682  0.00  0.00    -0.034 A 
HETATM   26  C   UNK N   1      20.006  12.555   0.647  0.00  0.00     0.009 A 
HETATM   27  C   UNK N   1      19.093  11.570   0.264  0.00  0.00     0.001 A 
HETATM   28  C   UNK N   1      17.790  11.928  -0.097  0.00  0.00     0.000 A 
HETATM   29  C   UNK N   1      17.400  13.270  -0.072  0.00  0.00     0.001 A 
HETATM   30  C   UNK N   1      18.315  14.255   0.308  0.00  0.00     0.009 A 
ENDBRANCH  24  25
ENDBRANCH  23  24
ENDBRANCH  21  23
ENDBRANCH  14  16
BRANCH  14  31
HETATM   31  O   UNK N   1      18.849  16.465   4.227  0.00  0.00    -0.348 OA
HETATM   32  H   UNK N   1      18.205  16.060   3.681  0.00  0.00     0.219 HD
ENDBRANCH  14  31
ENDBRANCH   4  13
ENDBRANCH   1   4
BRANCH   1  33
HETATM   33  O   UNK N   1      21.970  13.156   3.524  0.00  0.00    -0.348 OA
HETATM   34  H   UNK N   1      22.455  12.459   3.128  0.00  0.00     0.219 HD
ENDBRANCH   1  33
BRANCH   2  35
HETATM   35  C   UNK N   1      24.344  14.874   5.725  0.00  0.00     0.192 C 
BRANCH  35  36
HETATM   36  C   UNK N   1      25.367  13.925   6.377  0.00  0.00     0.075 C 
BRANCH  36  37
HETATM   37  C   UNK N   1      24.845  13.163   7.575  0.00  0.00    -0.056 A 
HETATM   38  C   UNK N   1      24.121  11.981   7.378  0.00  0.00     0.007 A 
HETATM   39  C   UNK N   1      23.636  11.259   8.475  0.00  0.00     0.001 A 
HETATM   40  C   UNK N   1      23.868  11.719   9.775  0.00  0.00     0.000 A 
HETATM   41  C   UNK N   1      24.584  12.902   9.977  0.00  0.00     0.001 A 
HETATM   42  C   UNK N   1      25.071  13.618   8.879  0.00  0.00     0.007 A 
ENDBRANCH  36  37
ENDBRANCH  35  36
BRANCH  35  43
HETATM   43  P   UNK N   1      25.304  16.285   4.915  0.00  0.00     0.218 P 
HETATM   44  O   UNK N   1      24.789  17.746   5.005  0.00  0.00    -0.657 OA
BRANCH  43  45
HETATM   45  N   UNK N   1      27.062  16.274   4.526  0.00  0.00    -0.341 N 
HETATM   46  H   UNK N   1      27.493  15.581   3.916  0.00  0.00     0.163 HD
BRANCH  45  47
HETATM   47  C   UNK N   1      27.809  17.347   5.164  0.00  0.00     0.173 C 
HETATM   48  C   UNK N   1      27.834  18.510   4.186  0.00  0.00     0.042 C 
BRANCH  47  49
HETATM   49  C   UNK N   1      29.250  16.973   5.514  0.00  0.00     0.243 C 
HETATM   50  N   UNK N   1      29.878  17.308   6.703  0.00  0.00    -0.336 N 
HETATM   51  C   UNK N   1      29.221  18.039   7.757  0.00  0.00     0.127 C 
HETATM   52  C   UNK N   1      31.215  16.895   7.109  0.00  0.00     0.187 C 
HETATM   53  C   UNK N   1      30.099  17.857   8.985  0.00  0.00     0.022 C 
HETATM   54  C   UNK N   1      31.052  16.731   8.608  0.00  0.00     0.037 C 
HETATM   55  O   UNK N   1      29.858  16.344   4.664  0.00  0.00    -0.271 OA
BRANCH  52  56
HETATM   56  C   UNK N   1      31.814  15.664   6.459  0.00  0.00     0.281 C 
HETATM   57  O   UNK N   1      31.394  14.555   6.763  0.00  0.00    -0.263 OA
BRANCH  56  58
HETATM   58  O   UNK N   1      32.752  15.795   5.490  0.00  0.00    -0.325 OA
HETATM   59  C   UNK N   1      33.943  16.450   5.705  0.00  0.00     0.213 C 
ENDBRANCH  56  58
ENDBRANCH  52  56
ENDBRANCH  47  49
ENDBRANCH  45  47
ENDBRANCH  43  45
BRANCH  43  60
HETATM   60  O   UNK N   1      25.955  16.491   6.501  0.00  0.00    -0.333 OA
HETATM   61  H   UNK N   1      26.630  15.978   6.973  0.00  0.00     0.219 HD
ENDBRANCH  43  60
ENDBRANCH  35  43
ENDBRANCH   2  35
TORSDOF 23
ENDMDL
MODEL 7
REMARK VINA RESULT:      -6.9      2.775      5.568
REMARK  23 active torsions:
REMARK  status: ('A' for Active; 'I' for Inactive)
REMARK    1  A    between atoms: C_10  and  C_9 
REMARK    2  A    between atoms: C_17  and  C_9 
REMARK    3  A    between atoms: C_20  and  C_10 
REMARK    4  A    between atoms: C_28  and  C_17 
REMARK    5  A    between atoms: N_37  and  C_20 
REMARK    6  A    between atoms: C_26  and  C_23 
REMARK    7  A    between atoms: C_31  and  C_23 
REMARK    8  A    between atoms: C_27  and  C_24 
REMARK    9  A    between atoms: O_53  and  C_24 
REMARK   10  A    between atoms: C_34  and  C_25 
REMARK   11  A    between atoms: N_42  and  C_25 
REMARK   12  A    between atoms: C_32  and  C_28 
REMARK   13  A    between atoms: C_28  and  N_38 
REMARK   14  A    between atoms: C_29  and  C_33 
REMARK   15  A    between atoms: C_30  and  C_35 
REMARK   16  A    between atoms: C_31  and  N_40 
REMARK   17  A    between atoms: P_54  and  C_31 
REMARK   18  A    between atoms: C_32  and  O_45 
REMARK   19  A    between atoms: C_33  and  O_46 
REMARK       I    between atoms: N_43  and  C_34 
REMARK   20  A    between atoms: O_52  and  C_35 
REMARK       I    between atoms: N_44  and  C_36 
REMARK   21  A    between atoms: O_53  and  C_36 
REMARK   22  A    between atoms: P_54  and  N_42 
REMARK   23  A    between atoms: P_54  and  O_50 
ROOT
HETATM    1  C   UNK N   1      22.550  14.597   4.644  0.00  0.00     0.135 C 
HETATM    2  N   UNK N   1      23.844  14.548   4.599  0.00  0.00    -0.357 N 
ATOM      3  HN  UNK N   1      24.208  13.761   4.062  1.00  0.00     0.162 HD
ENDROOT
BRANCH   1   4
HETATM    4  C   UNK N   1      21.673  15.636   5.344  0.00  0.00     0.158 C 
BRANCH   4   5
HETATM    5  C   UNK N   1      21.850  15.619   6.873  0.00  0.00     0.033 C 
BRANCH   5   6
HETATM    6  C   UNK N   1      20.592  15.287   7.668  0.00  0.00     0.004 C 
BRANCH   6   7
HETATM    7  C   UNK N   1      20.372  16.333   8.752  0.00  0.00     0.027 C 
BRANCH   7   8
HETATM    8  C   UNK N   1      19.021  17.015   8.608  0.00  0.00     0.229 C 
BRANCH   8   9
HETATM    9  N   UNK N   1      19.033  18.269   9.337  0.00  0.00    -0.079 N 
HETATM   10  H   UNK N   1      18.183  18.637   9.765  0.00  0.00     0.274 HD
HETATM   11  H   UNK N   1      19.905  18.791   9.423  0.00  0.00     0.274 HD
HETATM   12  H   UNK N   1      19.055  19.153   9.847  0.00  0.00     0.274 HD
ENDBRANCH   8   9
ENDBRANCH   7   8
ENDBRANCH   6   7
ENDBRANCH   5   6
ENDBRANCH   4   5
BRANCH   4  13
HETATM   13  N   UNK N   1      21.435  16.951   4.751  0.00  0.00    -0.361 N 
HETATM   14  C   UNK N   1      20.354  17.369   4.172  0.00  0.00     0.135 C 
ATOM     15  HN  UNK N   1      22.208  17.615   4.798  1.00  0.00     0.162 HD
BRANCH  14  16
HETATM   16  C   UNK N   1      20.365  18.650   3.353  0.00  0.00     0.163 C 
HETATM   17  C   UNK N   1      21.549  19.577   3.557  0.00  0.00     0.035 C 
HETATM   18  C   UNK N   1      21.463  20.528   2.349  0.00  0.00     0.022 C 
HETATM   19  C   UNK N   1      20.681  19.767   1.274  0.00  0.00     0.129 C 
HETATM   20  N   UNK N   1      20.381  18.515   1.909  0.00  0.00    -0.316 N 
HETATM   21  C   UNK N   1      20.333  17.355   1.176  0.00  0.00     0.363 C 
HETATM   22  O   UNK N   1      20.385  17.405  -0.043  0.00  0.00    -0.238 OA
BRANCH  21  23
HETATM   23  O   UNK N   1      20.261  16.150   1.789  0.00  0.00    -0.299 OA
BRANCH  23  24
HETATM   24  C   UNK N   1      19.958  14.975   1.132  0.00  0.00     0.219 C 
BRANCH  24  25
HETATM   25  C   UNK N   1      21.112  14.058   0.952  0.00  0.00    -0.034 A 
HETATM   26  C   UNK N   1      22.410  14.570   0.862  0.00  0.00     0.009 A 
HETATM   27  C   UNK N   1      23.480  13.717   0.582  0.00  0.00     0.001 A 
HETATM   28  C   UNK N   1      23.251  12.352   0.380  0.00  0.00     0.000 A 
HETATM   29  C   UNK N   1      21.953  11.841   0.459  0.00  0.00     0.001 A 
HETATM   30  C   UNK N   1      20.883  12.696   0.736  0.00  0.00     0.009 A 
ENDBRANCH  24  25
ENDBRANCH  23  24
ENDBRANCH  21  23
ENDBRANCH  14  16
BRANCH  14  31
HETATM   31  O   UNK N   1      19.200  16.682   4.273  0.00  0.00    -0.348 OA
HETATM   32  H   UNK N   1      18.884  15.901   4.681  0.00  0.00     0.219 HD
ENDBRANCH  14  31
ENDBRANCH   4  13
ENDBRANCH   1   4
BRANCH   1  33
HETATM   33  O   UNK N   1      21.886  13.590   4.043  0.00  0.00    -0.348 OA
HETATM   34  H   UNK N   1      21.394  12.882   4.408  0.00  0.00     0.219 HD
ENDBRANCH   1  33
BRANCH   2  35
HETATM   35  C   UNK N   1      24.872  15.394   5.165  0.00  0.00     0.192 C 
BRANCH  35  36
HETATM   36  C   UNK N   1      25.844  14.466   5.915  0.00  0.00     0.075 C 
BRANCH  36  37
HETATM   37  C   UNK N   1      25.192  13.568   6.944  0.00  0.00    -0.056 A 
HETATM   38  C   UNK N   1      25.118  13.988   8.277  0.00  0.00     0.007 A 
HETATM   39  C   UNK N   1      24.512  13.175   9.241  0.00  0.00     0.001 A 
HETATM   40  C   UNK N   1      23.981  11.934   8.878  0.00  0.00     0.000 A 
HETATM   41  C   UNK N   1      24.059  11.506   7.550  0.00  0.00     0.001 A 
HETATM   42  C   UNK N   1      24.661  12.323   6.588  0.00  0.00     0.007 A 
ENDBRANCH  36  37
ENDBRANCH  35  36
BRANCH  35  43
HETATM   43  P   UNK N   1      25.861  16.320   3.848  0.00  0.00     0.218 P 
HETATM   44  O   UNK N   1      25.662  16.004   2.342  0.00  0.00    -0.657 OA
BRANCH  43  45
HETATM   45  N   UNK N   1      26.606  17.947   4.043  0.00  0.00    -0.341 N 
HETATM   46  H   UNK N   1      26.786  18.576   3.261  0.00  0.00     0.163 HD
BRANCH  45  47
HETATM   47  C   UNK N   1      26.926  18.283   5.422  0.00  0.00     0.173 C 
HETATM   48  C   UNK N   1      26.655  19.769   5.590  0.00  0.00     0.042 C 
BRANCH  47  49
HETATM   49  C   UNK N   1      28.381  18.007   5.804  0.00  0.00     0.243 C 
HETATM   50  N   UNK N   1      28.879  18.078   7.095  0.00  0.00    -0.336 N 
HETATM   51  C   UNK N   1      28.057  18.408   8.232  0.00  0.00     0.127 C 
HETATM   52  C   UNK N   1      30.233  17.737   7.510  0.00  0.00     0.187 C 
HETATM   53  C   UNK N   1      28.873  18.006   9.451  0.00  0.00     0.022 C 
HETATM   54  C   UNK N   1      30.001  17.151   8.890  0.00  0.00     0.037 C 
HETATM   55  O   UNK N   1      29.126  17.713   4.884  0.00  0.00    -0.271 OA
BRANCH  52  56
HETATM   56  C   UNK N   1      31.042  16.812   6.623  0.00  0.00     0.281 C 
HETATM   57  O   UNK N   1      31.999  17.255   6.001  0.00  0.00    -0.263 OA
BRANCH  56  58
HETATM   58  O   UNK N   1      30.756  15.488   6.580  0.00  0.00    -0.325 OA
HETATM   59  C   UNK N   1      30.969  14.727   5.454  0.00  0.00     0.213 C 
ENDBRANCH  56  58
ENDBRANCH  52  56
ENDBRANCH  47  49
ENDBRANCH  45  47
ENDBRANCH  43  45
BRANCH  43  60
HETATM   60  O   UNK N   1      24.443  17.304   3.756  0.00  0.00    -0.333 OA
HETATM   61  H   UNK N   1      24.186  17.971   3.101  0.00  0.00     0.219 HD
ENDBRANCH  43  60
ENDBRANCH  35  43
ENDBRANCH   2  35
TORSDOF 23
ENDMDL
MODEL 8
REMARK VINA RESULT:      -6.9      3.925      9.085
REMARK  23 active torsions:
REMARK  status: ('A' for Active; 'I' for Inactive)
REMARK    1  A    between atoms: C_10  and  C_9 
REMARK    2  A    between atoms: C_17  and  C_9 
REMARK    3  A    between atoms: C_20  and  C_10 
REMARK    4  A    between atoms: C_28  and  C_17 
REMARK    5  A    between atoms: N_37  and  C_20 
REMARK    6  A    between atoms: C_26  and  C_23 
REMARK    7  A    between atoms: C_31  and  C_23 
REMARK    8  A    between atoms: C_27  and  C_24 
REMARK    9  A    between atoms: O_53  and  C_24 
REMARK   10  A    between atoms: C_34  and  C_25 
REMARK   11  A    between atoms: N_42  and  C_25 
REMARK   12  A    between atoms: C_32  and  C_28 
REMARK   13  A    between atoms: C_28  and  N_38 
REMARK   14  A    between atoms: C_29  and  C_33 
REMARK   15  A    between atoms: C_30  and  C_35 
REMARK   16  A    between atoms: C_31  and  N_40 
REMARK   17  A    between atoms: P_54  and  C_31 
REMARK   18  A    between atoms: C_32  and  O_45 
REMARK   19  A    between atoms: C_33  and  O_46 
REMARK       I    between atoms: N_43  and  C_34 
REMARK   20  A    between atoms: O_52  and  C_35 
REMARK       I    between atoms: N_44  and  C_36 
REMARK   21  A    between atoms: O_53  and  C_36 
REMARK   22  A    between atoms: P_54  and  N_42 
REMARK   23  A    between atoms: P_54  and  O_50 
ROOT
HETATM    1  C   UNK N   1      23.278  16.338   4.896  0.00  0.00     0.135 C 
HETATM    2  N   UNK N   1      23.045  15.201   4.322  0.00  0.00    -0.357 N 
ATOM      3  HN  UNK N   1      23.031  14.410   4.966  1.00  0.00     0.162 HD
ENDROOT
BRANCH   1   4
HETATM    4  C   UNK N   1      23.358  17.720   4.243  0.00  0.00     0.158 C 
BRANCH   4   5
HETATM    5  C   UNK N   1      21.968  18.319   3.964  0.00  0.00     0.033 C 
BRANCH   5   6
HETATM    6  C   UNK N   1      21.970  19.620   3.170  0.00  0.00     0.004 C 
BRANCH   6   7
HETATM    7  C   UNK N   1      20.833  19.613   2.158  0.00  0.00     0.027 C 
BRANCH   7   8
HETATM    8  C   UNK N   1      19.524  19.168   2.788  0.00  0.00     0.229 C 
BRANCH   8   9
HETATM    9  N   UNK N   1      18.884  18.187   1.931  0.00  0.00    -0.079 N 
HETATM   10  H   UNK N   1      18.987  18.228   0.917  0.00  0.00     0.274 HD
HETATM   11  H   UNK N   1      18.321  17.446   2.349  0.00  0.00     0.274 HD
HETATM   12  H   UNK N   1      18.428  17.492   1.339  0.00  0.00     0.274 HD
ENDBRANCH   8   9
ENDBRANCH   7   8
ENDBRANCH   6   7
ENDBRANCH   5   6
ENDBRANCH   4   5
BRANCH   4  13
HETATM   13  N   UNK N   1      24.395  18.679   4.625  0.00  0.00    -0.361 N 
HETATM   14  C   UNK N   1      25.597  18.768   4.150  0.00  0.00     0.135 C 
ATOM     15  HN  UNK N   1      24.142  19.354   5.346  1.00  0.00     0.162 HD
BRANCH  14  16
HETATM   16  C   UNK N   1      26.641  19.622   4.853  0.00  0.00     0.163 C 
HETATM   17  C   UNK N   1      26.128  20.823   5.626  0.00  0.00     0.035 C 
HETATM   18  C   UNK N   1      27.329  21.216   6.504  0.00  0.00     0.022 C 
HETATM   19  C   UNK N   1      28.176  19.947   6.642  0.00  0.00     0.129 C 
HETATM   20  N   UNK N   1      27.450  18.979   5.869  0.00  0.00    -0.316 N 
HETATM   21  C   UNK N   1      27.428  17.659   6.246  0.00  0.00     0.363 C 
HETATM   22  O   UNK N   1      28.157  17.273   7.147  0.00  0.00    -0.238 OA
BRANCH  21  23
HETATM   23  O   UNK N   1      26.583  16.783   5.654  0.00  0.00    -0.299 OA
BRANCH  23  24
HETATM   24  C   UNK N   1      26.792  15.420   5.626  0.00  0.00     0.219 C 
BRANCH  24  25
HETATM   25  C   UNK N   1      27.761  14.969   4.595  0.00  0.00    -0.034 A 
HETATM   26  C   UNK N   1      28.884  14.222   4.964  0.00  0.00     0.009 A 
HETATM   27  C   UNK N   1      29.850  13.895   4.010  0.00  0.00     0.001 A 
HETATM   28  C   UNK N   1      29.702  14.326   2.688  0.00  0.00     0.000 A 
HETATM   29  C   UNK N   1      28.586  15.083   2.320  0.00  0.00     0.001 A 
HETATM   30  C   UNK N   1      27.621  15.412   3.276  0.00  0.00     0.009 A 
ENDBRANCH  24  25
ENDBRANCH  23  24
ENDBRANCH  21  23
ENDBRANCH  14  16
BRANCH  14  31
HETATM   31  O   UNK N   1      25.955  18.106   3.034  0.00  0.00    -0.348 OA
HETATM   32  H   UNK N   1      26.664  17.570   2.735  0.00  0.00     0.219 HD
ENDBRANCH  14  31
ENDBRANCH   4  13
ENDBRANCH   1   4
BRANCH   1  33
HETATM   33  O   UNK N   1      23.527  16.308   6.219  0.00  0.00    -0.348 OA
HETATM   34  H   UNK N   1      24.323  16.450   6.693  0.00  0.00     0.219 HD
ENDBRANCH   1  33
BRANCH   2  35
HETATM   35  C   UNK N   1      22.800  14.835   2.944  0.00  0.00     0.192 C 
BRANCH  35  36
HETATM   36  C   UNK N   1      22.902  13.300   2.870  0.00  0.00     0.075 C 
BRANCH  36  37
HETATM   37  C   UNK N   1      24.316  12.763   2.861  0.00  0.00    -0.056 A 
HETATM   38  C   UNK N   1      24.869  12.260   4.045  0.00  0.00     0.007 A 
HETATM   39  C   UNK N   1      26.173  11.751   4.055  0.00  0.00     0.001 A 
HETATM   40  C   UNK N   1      26.934  11.750   2.881  0.00  0.00     0.000 A 
HETATM   41  C   UNK N   1      26.390  12.257   1.699  0.00  0.00     0.001 A 
HETATM   42  C   UNK N   1      25.084  12.760   1.691  0.00  0.00     0.007 A 
ENDBRANCH  36  37
ENDBRANCH  35  36
BRANCH  35  43
HETATM   43  P   UNK N   1      21.074  15.326   2.354  0.00  0.00     0.218 P 
HETATM   44  O   UNK N   1      20.851  15.859   0.914  0.00  0.00    -0.657 OA
BRANCH  43  45
HETATM   45  N   UNK N   1      19.520  14.724   3.036  0.00  0.00    -0.341 N 
HETATM   46  H   UNK N   1      18.611  15.102   2.770  0.00  0.00     0.163 HD
BRANCH  45  47
HETATM   47  C   UNK N   1      19.682  13.648   4.000  0.00  0.00     0.173 C 
HETATM   48  C   UNK N   1      18.491  12.719   3.830  0.00  0.00     0.042 C 
BRANCH  47  49
HETATM   49  C   UNK N   1      19.726  14.121   5.454  0.00  0.00     0.243 C 
HETATM   50  N   UNK N   1      20.561  13.591   6.425  0.00  0.00    -0.336 N 
HETATM   51  C   UNK N   1      21.501  12.533   6.154  0.00  0.00     0.127 C 
HETATM   52  C   UNK N   1      20.696  14.074   7.793  0.00  0.00     0.187 C 
HETATM   53  C   UNK N   1      22.452  12.523   7.342  0.00  0.00     0.022 C 
HETATM   54  C   UNK N   1      22.168  13.831   8.068  0.00  0.00     0.037 C 
HETATM   55  O   UNK N   1      18.958  15.023   5.743  0.00  0.00    -0.271 OA
BRANCH  52  56
HETATM   56  C   UNK N   1      20.284  15.501   8.093  0.00  0.00     0.281 C 
HETATM   57  O   UNK N   1      19.244  15.715   8.700  0.00  0.00    -0.263 OA
BRANCH  56  58
HETATM   58  O   UNK N   1      21.103  16.529   7.760  0.00  0.00    -0.325 OA
HETATM   59  C   UNK N   1      20.619  17.748   7.345  0.00  0.00     0.213 C 
ENDBRANCH  56  58
ENDBRANCH  52  56
ENDBRANCH  47  49
ENDBRANCH  45  47
ENDBRANCH  43  45
BRANCH  43  60
HETATM   60  O   UNK N   1      21.061  13.731   1.690  0.00  0.00    -0.333 OA
HETATM   61  H   UNK N   1      21.435  13.396   0.860  0.00  0.00     0.219 HD
ENDBRANCH  43  60
ENDBRANCH  35  43
ENDBRANCH   2  35
TORSDOF 23
ENDMDL
MODEL 9
REMARK VINA RESULT:      -6.9      3.107      8.999
REMARK  23 active torsions:
REMARK  status: ('A' for Active; 'I' for Inactive)
REMARK    1  A    between atoms: C_10  and  C_9 
REMARK    2  A    between atoms: C_17  and  C_9 
REMARK    3  A    between atoms: C_20  and  C_10 
REMARK    4  A    between atoms: C_28  and  C_17 
REMARK    5  A    between atoms: N_37  and  C_20 
REMARK    6  A    between atoms: C_26  and  C_23 
REMARK    7  A    between atoms: C_31  and  C_23 
REMARK    8  A    between atoms: C_27  and  C_24 
REMARK    9  A    between atoms: O_53  and  C_24 
REMARK   10  A    between atoms: C_34  and  C_25 
REMARK   11  A    between atoms: N_42  and  C_25 
REMARK   12  A    between atoms: C_32  and  C_28 
REMARK   13  A    between atoms: C_28  and  N_38 
REMARK   14  A    between atoms: C_29  and  C_33 
REMARK   15  A    between atoms: C_30  and  C_35 
REMARK   16  A    between atoms: C_31  and  N_40 
REMARK   17  A    between atoms: P_54  and  C_31 
REMARK   18  A    between atoms: C_32  and  O_45 
REMARK   19  A    between atoms: C_33  and  O_46 
REMARK       I    between atoms: N_43  and  C_34 
REMARK   20  A    between atoms: O_52  and  C_35 
REMARK       I    between atoms: N_44  and  C_36 
REMARK   21  A    between atoms: O_53  and  C_36 
REMARK   22  A    between atoms: P_54  and  N_42 
REMARK   23  A    between atoms: P_54  and  O_50 
ROOT
HETATM    1  C   UNK N   1      25.957  14.964   4.386  0.00  0.00     0.135 C 
HETATM    2  N   UNK N   1      24.665  14.914   4.310  0.00  0.00    -0.357 N 
ATOM      3  HN  UNK N   1      24.245  14.195   4.900  1.00  0.00     0.162 HD
ENDROOT
BRANCH   1   4
HETATM    4  C   UNK N   1      26.904  15.917   3.654  0.00  0.00     0.158 C 
BRANCH   4   5
HETATM    5  C   UNK N   1      27.117  15.517   2.183  0.00  0.00     0.033 C 
BRANCH   5   6
HETATM    6  C   UNK N   1      27.955  14.262   1.967  0.00  0.00     0.004 C 
BRANCH   6   7
HETATM    7  C   UNK N   1      29.330  14.441   2.594  0.00  0.00     0.027 C 
BRANCH   7   8
HETATM    8  C   UNK N   1      29.653  13.320   3.569  0.00  0.00     0.229 C 
BRANCH   8   9
HETATM    9  N   UNK N   1      29.606  13.832   4.926  0.00  0.00    -0.079 N 
HETATM   10  H   UNK N   1      29.441  13.210   5.717  0.00  0.00     0.274 HD
HETATM   11  H   UNK N   1      29.739  14.830   5.091  0.00  0.00     0.274 HD
HETATM   12  H   UNK N   1      29.574  14.205   5.875  0.00  0.00     0.274 HD
ENDBRANCH   8   9
ENDBRANCH   7   8
ENDBRANCH   6   7
ENDBRANCH   5   6
ENDBRANCH   4   5
BRANCH   4  13
HETATM   13  N   UNK N   1      26.889  17.354   3.922  0.00  0.00    -0.361 N 
HETATM   14  C   UNK N   1      27.911  18.139   4.061  0.00  0.00     0.135 C 
ATOM     15  HN  UNK N   1      25.971  17.789   4.008  1.00  0.00     0.162 HD
BRANCH  14  16
HETATM   16  C   UNK N   1      27.735  19.541   4.623  0.00  0.00     0.163 C 
HETATM   17  C   UNK N   1      26.378  20.189   4.418  0.00  0.00     0.035 C 
HETATM   18  C   UNK N   1      26.400  21.370   5.405  0.00  0.00     0.022 C 
HETATM   19  C   UNK N   1      27.422  20.994   6.482  0.00  0.00     0.129 C 
HETATM   20  N   UNK N   1      27.894  19.707   6.054  0.00  0.00    -0.316 N 
HETATM   21  C   UNK N   1      28.243  18.751   6.975  0.00  0.00     0.363 C 
HETATM   22  O   UNK N   1      28.308  19.043   8.159  0.00  0.00    -0.238 OA
BRANCH  21  23
HETATM   23  O   UNK N   1      28.485  17.475   6.591  0.00  0.00    -0.299 OA
BRANCH  23  24
HETATM   24  C   UNK N   1      29.413  16.656   7.201  0.00  0.00     0.219 C 
BRANCH  24  25
HETATM   25  C   UNK N   1      30.816  17.126   7.083  0.00  0.00    -0.034 A 
HETATM   26  C   UNK N   1      31.501  16.999   5.870  0.00  0.00     0.009 A 
HETATM   27  C   UNK N   1      32.853  17.339   5.791  0.00  0.00     0.001 A 
HETATM   28  C   UNK N   1      33.526  17.795   6.929  0.00  0.00     0.000 A 
HETATM   29  C   UNK N   1      32.846  17.912   8.145  0.00  0.00     0.001 A 
HETATM   30  C   UNK N   1      31.494  17.569   8.223  0.00  0.00     0.009 A 
ENDBRANCH  24  25
ENDBRANCH  23  24
ENDBRANCH  21  23
ENDBRANCH  14  16
BRANCH  14  31
HETATM   31  O   UNK N   1      29.150  17.735   3.722  0.00  0.00    -0.348 OA
HETATM   32  H   UNK N   1      29.985  18.118   3.538  0.00  0.00     0.219 HD
ENDBRANCH  14  31
ENDBRANCH   4  13
ENDBRANCH   1   4
BRANCH   1  33
HETATM   33  O   UNK N   1      26.554  14.042   5.165  0.00  0.00    -0.348 OA
HETATM   34  H   UNK N   1      26.186  13.376   5.713  0.00  0.00     0.219 HD
ENDBRANCH   1  33
BRANCH   2  35
HETATM   35  C   UNK N   1      23.701  15.679   3.549  0.00  0.00     0.192 C 
BRANCH  35  36
HETATM   36  C   UNK N   1      22.523  14.733   3.250  0.00  0.00     0.075 C 
BRANCH  36  37
HETATM   37  C   UNK N   1      22.756  13.782   2.097  0.00  0.00    -0.056 A 
HETATM   38  C   UNK N   1      22.207  12.495   2.144  0.00  0.00     0.007 A 
HETATM   39  C   UNK N   1      22.405  11.604   1.083  0.00  0.00     0.001 A 
HETATM   40  C   UNK N   1      23.160  11.993  -0.027  0.00  0.00     0.000 A 
HETATM   41  C   UNK N   1      23.716  13.274  -0.076  0.00  0.00     0.001 A 
HETATM   42  C   UNK N   1      23.512  14.164   0.983  0.00  0.00     0.007 A 
ENDBRANCH  36  37
ENDBRANCH  35  36
BRANCH  35  43
HETATM   43  P   UNK N   1      23.023  17.158   4.509  0.00  0.00     0.218 P 
HETATM   44  O   UNK N   1      22.372  18.353   3.765  0.00  0.00    -0.657 OA
BRANCH  43  45
HETATM   45  N   UNK N   1      22.491  17.140   6.229  0.00  0.00    -0.341 N 
HETATM   46  H   UNK N   1      22.816  17.816   6.920  0.00  0.00     0.163 HD
BRANCH  45  47
HETATM   47  C   UNK N   1      21.554  16.072   6.541  0.00  0.00     0.173 C 
HETATM   48  C   UNK N   1      20.775  16.512   7.770  0.00  0.00     0.042 C 
BRANCH  47  49
HETATM   49  C   UNK N   1      22.223  14.731   6.843  0.00  0.00     0.243 C 
HETATM   50  N   UNK N   1      21.647  13.495   6.595  0.00  0.00    -0.336 N 
HETATM   51  C   UNK N   1      20.344  13.345   5.998  0.00  0.00     0.127 C 
HETATM   52  C   UNK N   1      22.287  12.200   6.785  0.00  0.00     0.187 C 
HETATM   53  C   UNK N   1      20.265  11.892   5.558  0.00  0.00     0.022 C 
HETATM   54  C   UNK N   1      21.699  11.388   5.646  0.00  0.00     0.037 C 
HETATM   55  O   UNK N   1      23.335  14.791   7.342  0.00  0.00    -0.271 OA
BRANCH  52  56
HETATM   56  C   UNK N   1      23.801  12.144   6.807  0.00  0.00     0.281 C 
HETATM   57  O   UNK N   1      24.425  12.240   5.758  0.00  0.00    -0.263 OA
BRANCH  56  58
HETATM   58  O   UNK N   1      24.462  12.069   7.988  0.00  0.00    -0.325 OA
HETATM   59  C   UNK N   1      23.815  11.817   9.176  0.00  0.00     0.213 C 
ENDBRANCH  56  58
ENDBRANCH  52  56
ENDBRANCH  47  49
ENDBRANCH  45  47
ENDBRANCH  43  45
BRANCH  43  60
HETATM   60  O   UNK N   1      21.518  16.326   4.342  0.00  0.00    -0.333 OA
HETATM   61  H   UNK N   1      20.610  16.669   4.332  0.00  0.00     0.219 HD
ENDBRANCH  43  60
ENDBRANCH  35  43
ENDBRANCH   2  35
TORSDOF 23
ENDMDL
