MODEL 1
REMARK VINA RESULT:      -5.9      0.000      0.000
REMARK  9 active torsions:
REMARK  status: ('A' for Active; 'I' for Inactive)
REMARK    1  A    between atoms: C_2  and  N_1 
REMARK    2  A    between atoms: C_2  and  C_3 
REMARK    3  A    between atoms: C_2  and  C_15 
REMARK    4  A    between atoms: C_3  and  C_4 
REMARK    5  A    between atoms: C_7  and  O_8 
REMARK    6  A    between atoms: O_8  and  P_9 
REMARK    7  A    between atoms: P_9  and  O_10 
REMARK    8  A    between atoms: P_9  and  O_11 
REMARK    9  A    between atoms: C_15  and  O_16 
ROOT
HETATM    1  C   UNK N   1      31.241  17.150   7.834  0.00  0.00    -0.056 A 
HETATM    2  C   UNK N   1      30.571  17.946   8.771  0.00  0.00     0.010 A 
HETATM    3  C   UNK N   1      29.349  18.546   8.440  0.00  0.00     0.038 A 
HETATM    4  C   UNK N   1      28.788  18.352   7.171  0.00  0.00     0.081 A 
HETATM    5  C   UNK N   1      29.444  17.520   6.252  0.00  0.00     0.038 A 
HETATM    6  C   UNK N   1      30.658  16.929   6.578  0.00  0.00     0.010 A 
ENDROOT
BRANCH   1   7
HETATM    7  C   UNK N   1      32.602  16.597   8.165  0.00  0.00     0.074 C 
BRANCH   7   8
HETATM    8  C   UNK N   1      33.510  17.603   8.892  0.00  0.00     0.177 C 
BRANCH   8   9
HETATM    9  N   UNK N   1      34.261  16.926   9.938  0.00  0.00    -0.417 N 
HETATM   10  H   UNK N   1      34.152  16.721  10.931  0.00  0.00     0.150 HD
HETATM   11  H   UNK N   1      35.140  16.554   9.579  0.00  0.00     0.150 HD
ENDBRANCH   8   9
BRANCH   8  12
HETATM   12  C   UNK N   1      34.475  18.301   7.979  0.00  0.00     0.163 C 
HETATM   13  O   UNK N   1      34.515  18.043   6.788  0.00  0.00    -0.648 OA
BRANCH  12  14
HETATM   14  O   UNK N   1      35.317  19.221   8.489  0.00  0.00    -0.775 OA
HETATM   15  H   UNK N   1      34.991  20.013   8.868  0.00  0.00     0.167 HD
ENDBRANCH  12  14
ENDBRANCH   8  12
ENDBRANCH   7   8
ENDBRANCH   1   7
BRANCH   4  16
HETATM   16  O   UNK N   1      27.637  18.994   6.840  0.00  0.00    -0.255 OA
BRANCH  16  17
HETATM   17  P   UNK N   1      27.395  19.882   5.370  0.00  0.00     0.396 P 
HETATM   18  O   UNK N   1      27.468  21.096   6.339  0.00  0.00    -0.631 OA
BRANCH  17  19
HETATM   19  O   UNK N   1      25.933  20.739   4.999  0.00  0.00    -0.307 OA
HETATM   20  H   UNK N   1      25.388  20.701   4.197  0.00  0.00     0.222 HD
ENDBRANCH  17  19
BRANCH  17  21
HETATM   21  O   UNK N   1      25.966  18.988   5.783  0.00  0.00    -0.307 OA
HETATM   22  H   UNK N   1      25.940  18.035   5.962  0.00  0.00     0.222 HD
ENDBRANCH  17  21
ENDBRANCH  16  17
ENDBRANCH   4  16
TORSDOF 9
ENDMDL
MODEL 2
REMARK VINA RESULT:      -5.6      3.939      7.252
REMARK  9 active torsions:
REMARK  status: ('A' for Active; 'I' for Inactive)
REMARK    1  A    between atoms: C_2  and  N_1 
REMARK    2  A    between atoms: C_2  and  C_3 
REMARK    3  A    between atoms: C_2  and  C_15 
REMARK    4  A    between atoms: C_3  and  C_4 
REMARK    5  A    between atoms: C_7  and  O_8 
REMARK    6  A    between atoms: O_8  and  P_9 
REMARK    7  A    between atoms: P_9  and  O_10 
REMARK    8  A    between atoms: P_9  and  O_11 
REMARK    9  A    between atoms: C_15  and  O_16 
ROOT
HETATM    1  C   UNK N   1      30.951  17.107   7.666  0.00  0.00    -0.056 A 
HETATM    2  C   UNK N   1      31.315  15.768   7.859  0.00  0.00     0.010 A 
HETATM    3  C   UNK N   1      32.603  15.445   8.307  0.00  0.00     0.038 A 
HETATM    4  C   UNK N   1      33.534  16.458   8.566  0.00  0.00     0.081 A 
HETATM    5  C   UNK N   1      33.151  17.799   8.411  0.00  0.00     0.038 A 
HETATM    6  C   UNK N   1      31.875  18.119   7.963  0.00  0.00     0.010 A 
ENDROOT
BRANCH   1   7
HETATM    7  C   UNK N   1      29.601  17.435   7.087  0.00  0.00     0.074 C 
BRANCH   7   8
HETATM    8  C   UNK N   1      28.912  18.624   7.778  0.00  0.00     0.177 C 
BRANCH   8   9
HETATM    9  N   UNK N   1      27.694  18.974   7.064  0.00  0.00    -0.417 N 
HETATM   10  H   UNK N   1      27.023  19.743   7.051  0.00  0.00     0.150 HD
HETATM   11  H   UNK N   1      27.440  18.251   6.392  0.00  0.00     0.150 HD
ENDBRANCH   8   9
BRANCH   8  12
HETATM   12  C   UNK N   1      28.570  18.359   9.216  0.00  0.00     0.163 C 
HETATM   13  O   UNK N   1      29.326  18.688  10.114  0.00  0.00    -0.648 OA
BRANCH  12  14
HETATM   14  O   UNK N   1      27.412  17.737   9.513  0.00  0.00    -0.775 OA
HETATM   15  H   UNK N   1      27.360  16.802   9.532  0.00  0.00     0.167 HD
ENDBRANCH  12  14
ENDBRANCH   8  12
ENDBRANCH   7   8
ENDBRANCH   1   7
BRANCH   4  16
HETATM   16  O   UNK N   1      34.800  16.129   8.935  0.00  0.00    -0.255 OA
BRANCH  16  17
HETATM   17  P   UNK N   1      35.355  16.044  10.577  0.00  0.00     0.396 P 
HETATM   18  O   UNK N   1      35.806  17.502  10.277  0.00  0.00    -0.631 OA
BRANCH  17  19
HETATM   19  O   UNK N   1      37.032  16.010  11.019  0.00  0.00    -0.307 OA
HETATM   20  H   UNK N   1      37.646  16.750  11.147  0.00  0.00     0.222 HD
ENDBRANCH  17  19
BRANCH  17  21
HETATM   21  O   UNK N   1      36.299  15.002   9.560  0.00  0.00    -0.307 OA
HETATM   22  H   UNK N   1      36.085  14.780   8.640  0.00  0.00     0.222 HD
ENDBRANCH  17  21
ENDBRANCH  16  17
ENDBRANCH   4  16
TORSDOF 9
ENDMDL
MODEL 3
REMARK VINA RESULT:      -5.4      1.425      1.964
REMARK  9 active torsions:
REMARK  status: ('A' for Active; 'I' for Inactive)
REMARK    1  A    between atoms: C_2  and  N_1 
REMARK    2  A    between atoms: C_2  and  C_3 
REMARK    3  A    between atoms: C_2  and  C_15 
REMARK    4  A    between atoms: C_3  and  C_4 
REMARK    5  A    between atoms: C_7  and  O_8 
REMARK    6  A    between atoms: O_8  and  P_9 
REMARK    7  A    between atoms: P_9  and  O_10 
REMARK    8  A    between atoms: P_9  and  O_11 
REMARK    9  A    between atoms: C_15  and  O_16 
ROOT
HETATM    1  C   UNK N   1      32.009  16.335   7.672  0.00  0.00    -0.056 A 
HETATM    2  C   UNK N   1      31.092  17.279   8.152  0.00  0.00     0.010 A 
HETATM    3  C   UNK N   1      29.925  17.557   7.428  0.00  0.00     0.038 A 
HETATM    4  C   UNK N   1      29.666  16.893   6.223  0.00  0.00     0.081 A 
HETATM    5  C   UNK N   1      30.567  15.918   5.769  0.00  0.00     0.038 A 
HETATM    6  C   UNK N   1      31.727  15.645   6.484  0.00  0.00     0.010 A 
ENDROOT
BRANCH   1   7
HETATM    7  C   UNK N   1      33.307  16.120   8.404  0.00  0.00     0.074 C 
BRANCH   7   8
HETATM    8  C   UNK N   1      33.855  17.397   9.063  0.00  0.00     0.177 C 
BRANCH   8   9
HETATM    9  N   UNK N   1      34.720  17.047  10.179  0.00  0.00    -0.417 N 
HETATM   10  H   UNK N   1      35.231  16.226  10.507  0.00  0.00     0.150 HD
HETATM   11  H   UNK N   1      34.854  17.839  10.805  0.00  0.00     0.150 HD
ENDBRANCH   8   9
BRANCH   8  12
HETATM   12  C   UNK N   1      34.621  18.274   8.114  0.00  0.00     0.163 C 
HETATM   13  O   UNK N   1      35.274  19.220   8.519  0.00  0.00    -0.648 OA
BRANCH  12  14
HETATM   14  O   UNK N   1      34.575  18.012   6.793  0.00  0.00    -0.775 OA
HETATM   15  H   UNK N   1      34.431  18.698   6.173  0.00  0.00     0.167 HD
ENDBRANCH  12  14
ENDBRANCH   8  12
ENDBRANCH   7   8
ENDBRANCH   1   7
BRANCH   4  16
HETATM   16  O   UNK N   1      28.564  17.222   5.498  0.00  0.00    -0.255 OA
BRANCH  16  17
HETATM   17  P   UNK N   1      27.982  18.841   5.274  0.00  0.00     0.396 P 
HETATM   18  O   UNK N   1      26.703  18.091   4.805  0.00  0.00    -0.631 OA
BRANCH  17  19
HETATM   19  O   UNK N   1      27.691  19.546   3.717  0.00  0.00    -0.307 OA
HETATM   20  H   UNK N   1      26.847  19.703   3.264  0.00  0.00     0.222 HD
ENDBRANCH  17  19
BRANCH  17  21
HETATM   21  O   UNK N   1      29.232  18.478   4.126  0.00  0.00    -0.307 OA
HETATM   22  H   UNK N   1      29.191  18.678   3.178  0.00  0.00     0.222 HD
ENDBRANCH  17  21
ENDBRANCH  16  17
ENDBRANCH   4  16
TORSDOF 9
ENDMDL
MODEL 4
REMARK VINA RESULT:      -5.4      5.004      6.844
REMARK  9 active torsions:
REMARK  status: ('A' for Active; 'I' for Inactive)
REMARK    1  A    between atoms: C_2  and  N_1 
REMARK    2  A    between atoms: C_2  and  C_3 
REMARK    3  A    between atoms: C_2  and  C_15 
REMARK    4  A    between atoms: C_3  and  C_4 
REMARK    5  A    between atoms: C_7  and  O_8 
REMARK    6  A    between atoms: O_8  and  P_9 
REMARK    7  A    between atoms: P_9  and  O_10 
REMARK    8  A    between atoms: P_9  and  O_11 
REMARK    9  A    between atoms: C_15  and  O_16 
ROOT
HETATM    1  C   UNK N   1      26.311  19.191   3.976  0.00  0.00    -0.056 A 
HETATM    2  C   UNK N   1      25.080  18.601   4.289  0.00  0.00     0.010 A 
HETATM    3  C   UNK N   1      23.887  19.182   3.840  0.00  0.00     0.038 A 
HETATM    4  C   UNK N   1      23.917  20.355   3.076  0.00  0.00     0.081 A 
HETATM    5  C   UNK N   1      25.154  20.919   2.731  0.00  0.00     0.038 A 
HETATM    6  C   UNK N   1      26.338  20.345   3.180  0.00  0.00     0.010 A 
ENDROOT
BRANCH   1   7
HETATM    7  C   UNK N   1      27.579  18.616   4.550  0.00  0.00     0.074 C 
BRANCH   7   8
HETATM    8  C   UNK N   1      27.456  18.225   6.032  0.00  0.00     0.177 C 
BRANCH   8   9
HETATM    9  N   UNK N   1      28.218  17.012   6.289  0.00  0.00    -0.417 N 
HETATM   10  H   UNK N   1      28.191  16.231   6.945  0.00  0.00     0.150 HD
HETATM   11  H   UNK N   1      28.991  16.916   5.632  0.00  0.00     0.150 HD
ENDBRANCH   8   9
BRANCH   8  12
HETATM   12  C   UNK N   1      27.926  19.298   6.971  0.00  0.00     0.163 C 
HETATM   13  O   UNK N   1      27.626  20.466   6.793  0.00  0.00    -0.648 OA
BRANCH  12  14
HETATM   14  O   UNK N   1      28.700  18.961   8.021  0.00  0.00    -0.775 OA
HETATM   15  H   UNK N   1      28.605  18.129   8.440  0.00  0.00     0.167 HD
ENDBRANCH  12  14
ENDBRANCH   8  12
ENDBRANCH   7   8
ENDBRANCH   1   7
BRANCH   4  16
HETATM   16  O   UNK N   1      22.749  20.946   2.706  0.00  0.00    -0.255 OA
BRANCH  16  17
HETATM   17  P   UNK N   1      21.376  20.095   2.071  0.00  0.00     0.396 P 
HETATM   18  O   UNK N   1      21.908  20.668   0.727  0.00  0.00    -0.631 OA
BRANCH  17  19
HETATM   19  O   UNK N   1      19.974  20.887   1.427  0.00  0.00    -0.307 OA
HETATM   20  H   UNK N   1      19.825  21.236   0.535  0.00  0.00     0.222 HD
ENDBRANCH  17  19
BRANCH  17  21
HETATM   21  O   UNK N   1      20.865  21.447   3.032  0.00  0.00    -0.307 OA
HETATM   22  H   UNK N   1      19.952  21.765   3.102  0.00  0.00     0.222 HD
ENDBRANCH  17  21
ENDBRANCH  16  17
ENDBRANCH   4  16
TORSDOF 9
ENDMDL
MODEL 5
REMARK VINA RESULT:      -5.3      8.933      9.725
REMARK  9 active torsions:
REMARK  status: ('A' for Active; 'I' for Inactive)
REMARK    1  A    between atoms: C_2  and  N_1 
REMARK    2  A    between atoms: C_2  and  C_3 
REMARK    3  A    between atoms: C_2  and  C_15 
REMARK    4  A    between atoms: C_3  and  C_4 
REMARK    5  A    between atoms: C_7  and  O_8 
REMARK    6  A    between atoms: O_8  and  P_9 
REMARK    7  A    between atoms: P_9  and  O_10 
REMARK    8  A    between atoms: P_9  and  O_11 
REMARK    9  A    between atoms: C_15  and  O_16 
ROOT
HETATM    1  C   UNK N   1      21.576  13.560   9.093  0.00  0.00    -0.056 A 
HETATM    2  C   UNK N   1      22.002  13.562   7.758  0.00  0.00     0.010 A 
HETATM    3  C   UNK N   1      21.691  14.643   6.923  0.00  0.00     0.038 A 
HETATM    4  C   UNK N   1      20.955  15.728   7.416  0.00  0.00     0.081 A 
HETATM    5  C   UNK N   1      20.568  15.739   8.764  0.00  0.00     0.038 A 
HETATM    6  C   UNK N   1      20.872  14.665   9.592  0.00  0.00     0.010 A 
ENDROOT
BRANCH   1   7
HETATM    7  C   UNK N   1      21.826  12.348   9.951  0.00  0.00     0.074 C 
BRANCH   7   8
HETATM    8  C   UNK N   1      23.010  12.519  10.919  0.00  0.00     0.177 C 
BRANCH   8   9
HETATM    9  N   UNK N   1      22.968  11.483  11.940  0.00  0.00    -0.417 N 
HETATM   10  H   UNK N   1      22.822  11.425  12.948  0.00  0.00     0.150 HD
HETATM   11  H   UNK N   1      23.127  10.561  11.537  0.00  0.00     0.150 HD
ENDBRANCH   8   9
BRANCH   8  12
HETATM   12  C   UNK N   1      24.347  12.471  10.237  0.00  0.00     0.163 C 
HETATM   13  O   UNK N   1      24.543  11.733   9.287  0.00  0.00    -0.648 OA
BRANCH  12  14
HETATM   14  O   UNK N   1      25.347  13.250  10.694  0.00  0.00    -0.775 OA
HETATM   15  H   UNK N   1      26.224  12.925  10.744  0.00  0.00     0.167 HD
ENDBRANCH  12  14
ENDBRANCH   8  12
ENDBRANCH   7   8
ENDBRANCH   1   7
BRANCH   4  16
HETATM   16  O   UNK N   1      20.603  16.738   6.576  0.00  0.00    -0.255 OA
BRANCH  16  17
HETATM   17  P   UNK N   1      21.672  18.002   6.057  0.00  0.00     0.396 P 
HETATM   18  O   UNK N   1      20.883  18.818   7.119  0.00  0.00    -0.631 OA
BRANCH  17  19
HETATM   19  O   UNK N   1      21.150  19.383   5.148  0.00  0.00    -0.307 OA
HETATM   20  H   UNK N   1      21.653  20.170   4.887  0.00  0.00     0.222 HD
ENDBRANCH  17  19
BRANCH  17  21
HETATM   21  O   UNK N   1      20.552  17.594   4.795  0.00  0.00    -0.307 OA
HETATM   22  H   UNK N   1      20.485  16.724   4.372  0.00  0.00     0.222 HD
ENDBRANCH  17  21
ENDBRANCH  16  17
ENDBRANCH   4  16
TORSDOF 9
ENDMDL
MODEL 6
REMARK VINA RESULT:      -5.2     11.804     13.762
REMARK  9 active torsions:
REMARK  status: ('A' for Active; 'I' for Inactive)
REMARK    1  A    between atoms: C_2  and  N_1 
REMARK    2  A    between atoms: C_2  and  C_3 
REMARK    3  A    between atoms: C_2  and  C_15 
REMARK    4  A    between atoms: C_3  and  C_4 
REMARK    5  A    between atoms: C_7  and  O_8 
REMARK    6  A    between atoms: O_8  and  P_9 
REMARK    7  A    between atoms: P_9  and  O_10 
REMARK    8  A    between atoms: P_9  and  O_11 
REMARK    9  A    between atoms: C_15  and  O_16 
ROOT
HETATM    1  C   UNK N   1      35.266  11.733  18.879  0.00  0.00    -0.056 A 
HETATM    2  C   UNK N   1      35.258  10.862  17.782  0.00  0.00     0.010 A 
HETATM    3  C   UNK N   1      35.147  11.370  16.481  0.00  0.00     0.038 A 
HETATM    4  C   UNK N   1      35.045  12.750  16.268  0.00  0.00     0.081 A 
HETATM    5  C   UNK N   1      35.095  13.620  17.367  0.00  0.00     0.038 A 
HETATM    6  C   UNK N   1      35.200  13.116  18.658  0.00  0.00     0.010 A 
ENDROOT
BRANCH   1   7
HETATM    7  C   UNK N   1      35.281  11.171  20.275  0.00  0.00     0.074 C 
BRANCH   7   8
HETATM    8  C   UNK N   1      34.292  10.009  20.476  0.00  0.00     0.177 C 
BRANCH   8   9
HETATM    9  N   UNK N   1      35.001   8.833  20.957  0.00  0.00    -0.417 N 
HETATM   10  H   UNK N   1      35.867   8.337  20.744  0.00  0.00     0.150 HD
HETATM   11  H   UNK N   1      34.493   8.380  21.716  0.00  0.00     0.150 HD
ENDBRANCH   8   9
BRANCH   8  12
HETATM   12  C   UNK N   1      33.184  10.332  21.437  0.00  0.00     0.163 C 
HETATM   13  O   UNK N   1      32.196   9.623  21.520  0.00  0.00    -0.648 OA
BRANCH  12  14
HETATM   14  O   UNK N   1      33.284  11.429  22.213  0.00  0.00    -0.775 OA
HETATM   15  H   UNK N   1      33.641  12.225  21.874  0.00  0.00     0.167 HD
ENDBRANCH  12  14
ENDBRANCH   8  12
ENDBRANCH   7   8
ENDBRANCH   1   7
BRANCH   4  16
HETATM   16  O   UNK N   1      34.870  13.224  15.006  0.00  0.00    -0.255 OA
BRANCH  16  17
HETATM   17  P   UNK N   1      36.014  13.031  13.716  0.00  0.00     0.396 P 
HETATM   18  O   UNK N   1      36.486  14.428  14.208  0.00  0.00    -0.631 OA
BRANCH  17  19
HETATM   19  O   UNK N   1      35.979  13.968  12.257  0.00  0.00    -0.307 OA
HETATM   20  H   UNK N   1      35.771  13.685  11.353  0.00  0.00     0.222 HD
ENDBRANCH  17  19
BRANCH  17  21
HETATM   21  O   UNK N   1      34.411  13.231  13.083  0.00  0.00    -0.307 OA
HETATM   22  H   UNK N   1      33.901  12.540  12.632  0.00  0.00     0.222 HD
ENDBRANCH  17  21
ENDBRANCH  16  17
ENDBRANCH   4  16
TORSDOF 9
ENDMDL
MODEL 7
REMARK VINA RESULT:      -5.2     11.826     14.115
REMARK  9 active torsions:
REMARK  status: ('A' for Active; 'I' for Inactive)
REMARK    1  A    between atoms: C_2  and  N_1 
REMARK    2  A    between atoms: C_2  and  C_3 
REMARK    3  A    between atoms: C_2  and  C_15 
REMARK    4  A    between atoms: C_3  and  C_4 
REMARK    5  A    between atoms: C_7  and  O_8 
REMARK    6  A    between atoms: O_8  and  P_9 
REMARK    7  A    between atoms: P_9  and  O_10 
REMARK    8  A    between atoms: P_9  and  O_11 
REMARK    9  A    between atoms: C_15  and  O_16 
ROOT
HETATM    1  C   UNK N   1      35.007  12.421  16.422  0.00  0.00    -0.056 A 
HETATM    2  C   UNK N   1      35.240  11.074  16.726  0.00  0.00     0.010 A 
HETATM    3  C   UNK N   1      35.489  10.684  18.048  0.00  0.00     0.038 A 
HETATM    4  C   UNK N   1      35.505  11.637  19.074  0.00  0.00     0.081 A 
HETATM    5  C   UNK N   1      35.229  12.978  18.769  0.00  0.00     0.038 A 
HETATM    6  C   UNK N   1      34.987  13.366  17.457  0.00  0.00     0.010 A 
ENDROOT
BRANCH   1   7
HETATM    7  C   UNK N   1      34.844  12.842  14.985  0.00  0.00     0.074 C 
BRANCH   7   8
HETATM    8  C   UNK N   1      36.016  13.689  14.460  0.00  0.00     0.177 C 
BRANCH   8   9
HETATM    9  N   UNK N   1      37.271  12.986  14.678  0.00  0.00    -0.417 N 
HETATM   10  H   UNK N   1      38.080  12.700  14.125  0.00  0.00     0.150 HD
HETATM   11  H   UNK N   1      37.370  12.700  15.652  0.00  0.00     0.150 HD
ENDBRANCH   8   9
BRANCH   8  12
HETATM   12  C   UNK N   1      35.899  14.027  13.002  0.00  0.00     0.163 C 
HETATM   13  O   UNK N   1      34.809  14.123  12.463  0.00  0.00    -0.648 OA
BRANCH  12  14
HETATM   14  O   UNK N   1      37.019  14.216  12.277  0.00  0.00    -0.775 OA
HETATM   15  H   UNK N   1      37.349  15.078  12.119  0.00  0.00     0.167 HD
ENDBRANCH  12  14
ENDBRANCH   8  12
ENDBRANCH   7   8
ENDBRANCH   1   7
BRANCH   4  16
HETATM   16  O   UNK N   1      35.814  11.255  20.342  0.00  0.00    -0.255 OA
BRANCH  16  17
HETATM   17  P   UNK N   1      35.203   9.826  21.114  0.00  0.00     0.396 P 
HETATM   18  O   UNK N   1      33.945  10.721  21.302  0.00  0.00    -0.631 OA
BRANCH  17  19
HETATM   19  O   UNK N   1      34.918   9.709  22.821  0.00  0.00    -0.307 OA
HETATM   20  H   UNK N   1      35.241  10.280  23.536  0.00  0.00     0.222 HD
ENDBRANCH  17  19
BRANCH  17  21
HETATM   21  O   UNK N   1      36.475  10.534  22.060  0.00  0.00    -0.307 OA
HETATM   22  H   UNK N   1      36.463  10.628  23.025  0.00  0.00     0.222 HD
ENDBRANCH  17  21
ENDBRANCH  16  17
ENDBRANCH   4  16
TORSDOF 9
ENDMDL
MODEL 8
REMARK VINA RESULT:      -5.1      3.209      4.138
REMARK  9 active torsions:
REMARK  status: ('A' for Active; 'I' for Inactive)
REMARK    1  A    between atoms: C_2  and  N_1 
REMARK    2  A    between atoms: C_2  and  C_3 
REMARK    3  A    between atoms: C_2  and  C_15 
REMARK    4  A    between atoms: C_3  and  C_4 
REMARK    5  A    between atoms: C_7  and  O_8 
REMARK    6  A    between atoms: O_8  and  P_9 
REMARK    7  A    between atoms: P_9  and  O_10 
REMARK    8  A    between atoms: P_9  and  O_11 
REMARK    9  A    between atoms: C_15  and  O_16 
ROOT
HETATM    1  C   UNK N   1      33.934  16.221   8.728  0.00  0.00    -0.056 A 
HETATM    2  C   UNK N   1      32.724  15.538   8.903  0.00  0.00     0.010 A 
HETATM    3  C   UNK N   1      31.506  16.214   8.749  0.00  0.00     0.038 A 
HETATM    4  C   UNK N   1      31.491  17.575   8.418  0.00  0.00     0.081 A 
HETATM    5  C   UNK N   1      32.705  18.242   8.203  0.00  0.00     0.038 A 
HETATM    6  C   UNK N   1      33.914  17.574   8.360  0.00  0.00     0.010 A 
ENDROOT
BRANCH   1   7
HETATM    7  C   UNK N   1      35.234  15.511   8.997  0.00  0.00     0.074 C 
BRANCH   7   8
HETATM    8  C   UNK N   1      35.704  15.630  10.457  0.00  0.00     0.177 C 
BRANCH   8   9
HETATM    9  N   UNK N   1      35.108  16.805  11.075  0.00  0.00    -0.417 N 
HETATM   10  H   UNK N   1      34.172  17.160  11.271  0.00  0.00     0.150 HD
HETATM   11  H   UNK N   1      35.824  17.453  11.403  0.00  0.00     0.150 HD
ENDBRANCH   8   9
BRANCH   8  12
HETATM   12  C   UNK N   1      35.370  14.426  11.289  0.00  0.00     0.163 C 
HETATM   13  O   UNK N   1      36.194  13.549  11.487  0.00  0.00    -0.648 OA
BRANCH  12  14
HETATM   14  O   UNK N   1      34.134  14.310  11.814  0.00  0.00    -0.775 OA
HETATM   15  H   UNK N   1      33.870  13.526  12.252  0.00  0.00     0.167 HD
ENDBRANCH  12  14
ENDBRANCH   8  12
ENDBRANCH   7   8
ENDBRANCH   1   7
BRANCH   4  16
HETATM   16  O   UNK N   1      30.304  18.233   8.338  0.00  0.00    -0.255 OA
BRANCH  16  17
HETATM   17  P   UNK N   1      28.763  17.531   8.717  0.00  0.00     0.396 P 
HETATM   18  O   UNK N   1      28.319  18.354   7.475  0.00  0.00    -0.631 OA
BRANCH  17  19
HETATM   19  O   UNK N   1      27.423  18.441   9.337  0.00  0.00    -0.307 OA
HETATM   20  H   UNK N   1      27.319  19.402   9.410  0.00  0.00     0.222 HD
ENDBRANCH  17  19
BRANCH  17  21
HETATM   21  O   UNK N   1      29.231  18.669   9.940  0.00  0.00    -0.307 OA
HETATM   22  H   UNK N   1      28.787  18.780  10.795  0.00  0.00     0.222 HD
ENDBRANCH  17  21
ENDBRANCH  16  17
ENDBRANCH   4  16
TORSDOF 9
ENDMDL
MODEL 9
REMARK VINA RESULT:      -5.0     10.175     10.712
REMARK  9 active torsions:
REMARK  status: ('A' for Active; 'I' for Inactive)
REMARK    1  A    between atoms: C_2  and  N_1 
REMARK    2  A    between atoms: C_2  and  C_3 
REMARK    3  A    between atoms: C_2  and  C_15 
REMARK    4  A    between atoms: C_3  and  C_4 
REMARK    5  A    between atoms: C_7  and  O_8 
REMARK    6  A    between atoms: O_8  and  P_9 
REMARK    7  A    between atoms: P_9  and  O_10 
REMARK    8  A    between atoms: P_9  and  O_11 
REMARK    9  A    between atoms: C_15  and  O_16 
ROOT
HETATM    1  C   UNK N   1      21.372  13.452   9.103  0.00  0.00    -0.056 A 
HETATM    2  C   UNK N   1      21.337  12.564   8.021  0.00  0.00     0.010 A 
HETATM    3  C   UNK N   1      20.937  13.012   6.755  0.00  0.00     0.038 A 
HETATM    4  C   UNK N   1      20.573  14.351   6.563  0.00  0.00     0.081 A 
HETATM    5  C   UNK N   1      20.650  15.244   7.641  0.00  0.00     0.038 A 
HETATM    6  C   UNK N   1      21.041  14.799   8.898  0.00  0.00     0.010 A 
ENDROOT
BRANCH   1   7
HETATM    7  C   UNK N   1      21.702  12.936  10.479  0.00  0.00     0.074 C 
BRANCH   7   8
HETATM    8  C   UNK N   1      23.101  12.303  10.574  0.00  0.00     0.177 C 
BRANCH   8   9
HETATM    9  N   UNK N   1      24.104  13.245  10.099  0.00  0.00    -0.417 N 
HETATM   10  H   UNK N   1      24.838  13.270   9.391  0.00  0.00     0.150 HD
HETATM   11  H   UNK N   1      24.061  14.122  10.617  0.00  0.00     0.150 HD
ENDBRANCH   8   9
BRANCH   8  12
HETATM   12  C   UNK N   1      23.464  11.871  11.965  0.00  0.00     0.163 C 
HETATM   13  O   UNK N   1      24.616  11.925  12.360  0.00  0.00    -0.648 OA
BRANCH  12  14
HETATM   14  O   UNK N   1      22.500  11.407  12.784  0.00  0.00    -0.775 OA
HETATM   15  H   UNK N   1      22.169  11.934  13.483  0.00  0.00     0.167 HD
ENDBRANCH  12  14
ENDBRANCH   8  12
ENDBRANCH   7   8
ENDBRANCH   1   7
BRANCH   4  16
HETATM   16  O   UNK N   1      20.123  14.756   5.346  0.00  0.00    -0.255 OA
BRANCH  16  17
HETATM   17  P   UNK N   1      19.894  16.413   4.885  0.00  0.00     0.396 P 
HETATM   18  O   UNK N   1      18.403  16.061   5.150  0.00  0.00    -0.631 OA
BRANCH  17  19
HETATM   19  O   UNK N   1      19.131  16.898   3.405  0.00  0.00    -0.307 OA
HETATM   20  H   UNK N   1      19.500  16.929   2.508  0.00  0.00     0.222 HD
ENDBRANCH  17  19
BRANCH  17  21
HETATM   21  O   UNK N   1      20.404  15.467   3.523  0.00  0.00    -0.307 OA
HETATM   22  H   UNK N   1      19.942  15.425   2.671  0.00  0.00     0.222 HD
ENDBRANCH  17  21
ENDBRANCH  16  17
ENDBRANCH   4  16
TORSDOF 9
ENDMDL
