MODEL 1
REMARK VINA RESULT:      -5.2      0.000      0.000
REMARK  5 active torsions:
REMARK  status: ('A' for Active; 'I' for Inactive)
REMARK    1  A    between atoms: O_1  and  C_2 
REMARK    2  A    between atoms: C_3  and  C_2 
REMARK    3  A    between atoms: C_5  and  O_6 
REMARK    4  A    between atoms: C_7  and  O_8 
REMARK    5  A    between atoms: C_9  and  O_10 
ROOT
HETATM    1  C   UNK N   1      20.630  18.735   3.146  0.00  0.00     0.179 A 
HETATM    2  O   UNK N   1      21.266  19.884   3.691  0.00  0.00    -0.349 OA
HETATM    3  C   UNK N   1      21.409  20.744   2.576  0.00  0.00     0.288 A 
HETATM    4  C   UNK N   1      20.876  20.188   1.294  0.00  0.00     0.204 A 
HETATM    5  C   UNK N   1      20.364  18.863   1.663  0.00  0.00     0.182 A 
ENDROOT
BRANCH   1   6
HETATM    6  C   UNK N   1      20.301  17.561   4.052  0.00  0.00     0.198 C 
BRANCH   6   7
HETATM    7  O   UNK N   1      19.043  17.046   3.743  0.00  0.00    -0.398 OA
HETATM    8  H   UNK N   1      18.431  16.802   4.455  0.00  0.00     0.209 HD
ENDBRANCH   6   7
ENDBRANCH   1   6
BRANCH   5   9
HETATM    9  O   UNK N   1      19.758  17.930   0.820  0.00  0.00    -0.390 OA
HETATM   10  H   UNK N   1      20.283  17.481   0.138  0.00  0.00     0.210 HD
ENDBRANCH   5   9
BRANCH   3  11
HETATM   11  O   UNK N   1      22.004  21.995   2.732  0.00  0.00    -0.369 OA
HETATM   12  H   UNK N   1      22.967  22.064   2.833  0.00  0.00     0.212 HD
ENDBRANCH   3  11
BRANCH   4  13
HETATM   13  O   UNK N   1      20.873  20.792   0.039  0.00  0.00    -0.388 OA
HETATM   14  H   UNK N   1      21.571  21.422  -0.198  0.00  0.00     0.210 HD
ENDBRANCH   4  13
TORSDOF 5
ENDMDL
MODEL 2
REMARK VINA RESULT:      -5.1      1.169      2.593
REMARK  5 active torsions:
REMARK  status: ('A' for Active; 'I' for Inactive)
REMARK    1  A    between atoms: O_1  and  C_2 
REMARK    2  A    between atoms: C_3  and  C_2 
REMARK    3  A    between atoms: C_5  and  O_6 
REMARK    4  A    between atoms: C_7  and  O_8 
REMARK    5  A    between atoms: C_9  and  O_10 
ROOT
HETATM    1  C   UNK N   1      20.344  18.287   1.855  0.00  0.00     0.179 A 
HETATM    2  O   UNK N   1      20.428  18.128   3.264  0.00  0.00    -0.349 OA
HETATM    3  C   UNK N   1      20.866  19.396   3.716  0.00  0.00     0.288 A 
HETATM    4  C   UNK N   1      21.073  20.401   2.628  0.00  0.00     0.204 A 
HETATM    5  C   UNK N   1      20.734  19.676   1.400  0.00  0.00     0.182 A 
ENDROOT
BRANCH   1   6
HETATM    6  C   UNK N   1      19.899  17.117   0.994  0.00  0.00     0.198 C 
BRANCH   6   7
HETATM    7  O   UNK N   1      20.351  17.276  -0.315  0.00  0.00    -0.398 OA
HETATM    8  H   UNK N   1      20.392  18.161  -0.709  0.00  0.00     0.209 HD
ENDBRANCH   6   7
ENDBRANCH   1   6
BRANCH   5   9
HETATM    9  O   UNK N   1      20.763  20.171   0.094  0.00  0.00    -0.390 OA
HETATM   10  H   UNK N   1      20.328  21.012  -0.114  0.00  0.00     0.210 HD
ENDBRANCH   5   9
BRANCH   3  11
HETATM   11  O   UNK N   1      21.064  19.622   5.078  0.00  0.00    -0.369 OA
HETATM   12  H   UNK N   1      21.326  20.502   5.389  0.00  0.00     0.212 HD
ENDBRANCH   3  11
BRANCH   4  13
HETATM   13  O   UNK N   1      21.497  21.722   2.759  0.00  0.00    -0.388 OA
HETATM   14  H   UNK N   1      21.045  22.427   2.271  0.00  0.00     0.210 HD
ENDBRANCH   4  13
TORSDOF 5
ENDMDL
MODEL 3
REMARK VINA RESULT:      -5.0     14.509     15.365
REMARK  5 active torsions:
REMARK  status: ('A' for Active; 'I' for Inactive)
REMARK    1  A    between atoms: O_1  and  C_2 
REMARK    2  A    between atoms: C_3  and  C_2 
REMARK    3  A    between atoms: C_5  and  O_6 
REMARK    4  A    between atoms: C_7  and  O_8 
REMARK    5  A    between atoms: C_9  and  O_10 
ROOT
HETATM    1  C   UNK N   1      33.812  15.920   8.914  0.00  0.00     0.179 A 
HETATM    2  O   UNK N   1      33.536  16.120   7.534  0.00  0.00    -0.349 OA
HETATM    3  C   UNK N   1      34.106  17.386   7.262  0.00  0.00     0.288 A 
HETATM    4  C   UNK N   1      34.762  18.035   8.439  0.00  0.00     0.204 A 
HETATM    5  C   UNK N   1      34.569  17.075   9.531  0.00  0.00     0.182 A 
ENDROOT
BRANCH   1   6
HETATM    6  C   UNK N   1      33.347  14.643   9.593  0.00  0.00     0.198 C 
BRANCH   6   7
HETATM    7  O   UNK N   1      33.186  14.852  10.962  0.00  0.00    -0.398 OA
HETATM    8  H   UNK N   1      32.506  15.465  11.282  0.00  0.00     0.209 HD
ENDBRANCH   6   7
ENDBRANCH   1   6
BRANCH   5   9
HETATM    9  O   UNK N   1      35.000  17.205  10.853  0.00  0.00    -0.390 OA
HETATM   10  H   UNK N   1      34.818  18.023  11.342  0.00  0.00     0.210 HD
ENDBRANCH   5   9
BRANCH   3  11
HETATM   11  O   UNK N   1      34.030  17.924   5.977  0.00  0.00    -0.369 OA
HETATM   12  H   UNK N   1      34.725  18.522   5.661  0.00  0.00     0.212 HD
ENDBRANCH   3  11
BRANCH   4  13
HETATM   13  O   UNK N   1      35.404  19.271   8.483  0.00  0.00    -0.388 OA
HETATM   14  H   UNK N   1      35.276  19.909   7.765  0.00  0.00     0.210 HD
ENDBRANCH   4  13
TORSDOF 5
ENDMDL
MODEL 4
REMARK VINA RESULT:      -4.8      0.801      2.471
REMARK  5 active torsions:
REMARK  status: ('A' for Active; 'I' for Inactive)
REMARK    1  A    between atoms: O_1  and  C_2 
REMARK    2  A    between atoms: C_3  and  C_2 
REMARK    3  A    between atoms: C_5  and  O_6 
REMARK    4  A    between atoms: C_7  and  O_8 
REMARK    5  A    between atoms: C_9  and  O_10 
ROOT
HETATM    1  C   UNK N   1      20.455  18.173   2.885  0.00  0.00     0.179 A 
HETATM    2  O   UNK N   1      20.363  18.388   1.483  0.00  0.00    -0.349 OA
HETATM    3  C   UNK N   1      20.757  19.738   1.327  0.00  0.00     0.288 A 
HETATM    4  C   UNK N   1      21.115  20.429   2.605  0.00  0.00     0.204 A 
HETATM    5  C   UNK N   1      20.915  19.404   3.635  0.00  0.00     0.182 A 
ENDROOT
BRANCH   1   6
HETATM    6  C   UNK N   1      20.102  16.811   3.459  0.00  0.00     0.198 C 
BRANCH   6   7
HETATM    7  O   UNK N   1      18.861  16.857   4.092  0.00  0.00    -0.398 OA
HETATM    8  H   UNK N   1      18.094  16.423   3.686  0.00  0.00     0.209 HD
ENDBRANCH   6   7
ENDBRANCH   1   6
BRANCH   5   9
HETATM    9  O   UNK N   1      21.112  19.541   5.010  0.00  0.00    -0.390 OA
HETATM   10  H   UNK N   1      21.982  19.805   5.350  0.00  0.00     0.210 HD
ENDBRANCH   5   9
BRANCH   3  11
HETATM   11  O   UNK N   1      20.792  20.313   0.057  0.00  0.00    -0.369 OA
HETATM   12  H   UNK N   1      20.594  21.257  -0.052  0.00  0.00     0.212 HD
ENDBRANCH   3  11
BRANCH   4  13
HETATM   13  O   UNK N   1      21.536  21.746   2.773  0.00  0.00    -0.388 OA
HETATM   14  H   UNK N   1      22.010  22.199   2.058  0.00  0.00     0.210 HD
ENDBRANCH   4  13
TORSDOF 5
ENDMDL
MODEL 5
REMARK VINA RESULT:      -4.5     14.529     15.179
REMARK  5 active torsions:
REMARK  status: ('A' for Active; 'I' for Inactive)
REMARK    1  A    between atoms: O_1  and  C_2 
REMARK    2  A    between atoms: C_3  and  C_2 
REMARK    3  A    between atoms: C_5  and  O_6 
REMARK    4  A    between atoms: C_7  and  O_8 
REMARK    5  A    between atoms: C_9  and  O_10 
ROOT
HETATM    1  C   UNK N   1      34.289  16.100   9.412  0.00  0.00     0.179 A 
HETATM    2  O   UNK N   1      34.844  17.353   9.788  0.00  0.00    -0.349 OA
HETATM    3  C   UNK N   1      34.852  18.089   8.579  0.00  0.00     0.288 A 
HETATM    4  C   UNK N   1      34.308  17.346   7.400  0.00  0.00     0.204 A 
HETATM    5  C   UNK N   1      33.938  16.034   7.942  0.00  0.00     0.182 A 
ENDROOT
BRANCH   1   6
HETATM    6  C   UNK N   1      34.114  15.014  10.460  0.00  0.00     0.198 C 
BRANCH   6   7
HETATM    7  O   UNK N   1      32.831  15.063  11.001  0.00  0.00    -0.398 OA
HETATM    8  H   UNK N   1      32.265  14.275  10.980  0.00  0.00     0.209 HD
ENDBRANCH   6   7
ENDBRANCH   1   6
BRANCH   5   9
HETATM    9  O   UNK N   1      33.378  14.962   7.245  0.00  0.00    -0.390 OA
HETATM   10  H   UNK N   1      33.859  14.564   6.503  0.00  0.00     0.210 HD
ENDBRANCH   5   9
BRANCH   3  11
HETATM   11  O   UNK N   1      35.338  19.396   8.560  0.00  0.00    -0.369 OA
HETATM   12  H   UNK N   1      35.263  19.929   7.753  0.00  0.00     0.212 HD
ENDBRANCH   3  11
BRANCH   4  13
HETATM   13  O   UNK N   1      34.188  17.800   6.088  0.00  0.00    -0.388 OA
HETATM   14  H   UNK N   1      34.397  18.722   5.873  0.00  0.00     0.210 HD
ENDBRANCH   4  13
TORSDOF 5
ENDMDL
MODEL 6
REMARK VINA RESULT:      -4.5      1.031      3.418
REMARK  5 active torsions:
REMARK  status: ('A' for Active; 'I' for Inactive)
REMARK    1  A    between atoms: O_1  and  C_2 
REMARK    2  A    between atoms: C_3  and  C_2 
REMARK    3  A    between atoms: C_5  and  O_6 
REMARK    4  A    between atoms: C_7  and  O_8 
REMARK    5  A    between atoms: C_9  and  O_10 
ROOT
HETATM    1  C   UNK N   1      20.672  20.123   2.173  0.00  0.00     0.179 A 
HETATM    2  O   UNK N   1      21.005  20.493   3.504  0.00  0.00    -0.349 OA
HETATM    3  C   UNK N   1      20.918  19.274   4.219  0.00  0.00     0.288 A 
HETATM    4  C   UNK N   1      20.535  18.094   3.384  0.00  0.00     0.204 A 
HETATM    5  C   UNK N   1      20.369  18.647   2.036  0.00  0.00     0.182 A 
ENDROOT
BRANCH   1   6
HETATM    6  C   UNK N   1      20.654  21.181   1.084  0.00  0.00     0.198 C 
BRANCH   6   7
HETATM    7  O   UNK N   1      20.604  20.583  -0.175  0.00  0.00    -0.398 OA
HETATM    8  H   UNK N   1      21.273  20.802  -0.842  0.00  0.00     0.209 HD
ENDBRANCH   6   7
ENDBRANCH   1   6
BRANCH   5   9
HETATM    9  O   UNK N   1      20.012  17.953   0.879  0.00  0.00    -0.390 OA
HETATM   10  H   UNK N   1      20.246  18.309   0.008  0.00  0.00     0.210 HD
ENDBRANCH   5   9
BRANCH   3  11
HETATM   11  O   UNK N   1      21.185  19.247   5.587  0.00  0.00    -0.369 OA
HETATM   12  H   UNK N   1      20.453  19.270   6.224  0.00  0.00     0.212 HD
ENDBRANCH   3  11
BRANCH   4  13
HETATM   13  O   UNK N   1      20.370  16.774   3.799  0.00  0.00    -0.388 OA
HETATM   14  H   UNK N   1      21.146  16.217   3.962  0.00  0.00     0.210 HD
ENDBRANCH   4  13
TORSDOF 5
ENDMDL
MODEL 7
REMARK VINA RESULT:      -4.4     19.618     20.858
REMARK  5 active torsions:
REMARK  status: ('A' for Active; 'I' for Inactive)
REMARK    1  A    between atoms: O_1  and  C_2 
REMARK    2  A    between atoms: C_3  and  C_2 
REMARK    3  A    between atoms: C_5  and  O_6 
REMARK    4  A    between atoms: C_7  and  O_8 
REMARK    5  A    between atoms: C_9  and  O_10 
ROOT
HETATM    1  C   UNK N   1      35.461  13.511  16.114  0.00  0.00     0.179 A 
HETATM    2  O   UNK N   1      34.489  12.862  15.306  0.00  0.00    -0.349 OA
HETATM    3  C   UNK N   1      35.003  12.997  13.995  0.00  0.00     0.288 A 
HETATM    4  C   UNK N   1      36.307  13.724  13.914  0.00  0.00     0.204 A 
HETATM    5  C   UNK N   1      36.613  14.068  15.307  0.00  0.00     0.182 A 
ENDROOT
BRANCH   1   6
HETATM    6  C   UNK N   1      35.261  13.579  17.618  0.00  0.00     0.198 C 
BRANCH   6   7
HETATM    7  O   UNK N   1      35.787  14.766  18.126  0.00  0.00    -0.398 OA
HETATM    8  H   UNK N   1      36.587  14.746  18.673  0.00  0.00     0.209 HD
ENDBRANCH   6   7
ENDBRANCH   1   6
BRANCH   5   9
HETATM    9  O   UNK N   1      37.731  14.758  15.778  0.00  0.00    -0.390 OA
HETATM   10  H   UNK N   1      38.508  14.266  16.089  0.00  0.00     0.210 HD
ENDBRANCH   5   9
BRANCH   3  11
HETATM   11  O   UNK N   1      34.302  12.467  12.912  0.00  0.00    -0.369 OA
HETATM   12  H   UNK N   1      34.785  12.125  12.143  0.00  0.00     0.212 HD
ENDBRANCH   3  11
BRANCH   4  13
HETATM   13  O   UNK N   1      37.054  14.011  12.773  0.00  0.00    -0.388 OA
HETATM   14  H   UNK N   1      37.247  13.311  12.132  0.00  0.00     0.210 HD
ENDBRANCH   4  13
TORSDOF 5
ENDMDL
MODEL 8
REMARK VINA RESULT:      -4.4      8.918     11.329
REMARK  5 active torsions:
REMARK  status: ('A' for Active; 'I' for Inactive)
REMARK    1  A    between atoms: O_1  and  C_2 
REMARK    2  A    between atoms: C_3  and  C_2 
REMARK    3  A    between atoms: C_5  and  O_6 
REMARK    4  A    between atoms: C_7  and  O_8 
REMARK    5  A    between atoms: C_9  and  O_10 
ROOT
HETATM    1  C   UNK N   1      22.109  13.157   9.831  0.00  0.00     0.179 A 
HETATM    2  O   UNK N   1      23.527  13.155   9.914  0.00  0.00    -0.349 OA
HETATM    3  C   UNK N   1      23.789  12.444  11.109  0.00  0.00     0.288 A 
HETATM    4  C   UNK N   1      22.565  11.968  11.825  0.00  0.00     0.204 A 
HETATM    5  C   UNK N   1      21.455  12.437  10.989  0.00  0.00     0.182 A 
ENDROOT
BRANCH   1   6
HETATM    6  C   UNK N   1      21.428  13.842   8.658  0.00  0.00     0.198 C 
BRANCH   6   7
HETATM    7  O   UNK N   1      20.062  13.977   8.900  0.00  0.00    -0.398 OA
HETATM    8  H   UNK N   1      19.753  14.339   9.746  0.00  0.00     0.209 HD
ENDBRANCH   6   7
ENDBRANCH   1   6
BRANCH   5   9
HETATM    9  O   UNK N   1      20.091  12.251  11.219  0.00  0.00    -0.390 OA
HETATM   10  H   UNK N   1      19.746  11.361  11.390  0.00  0.00     0.210 HD
ENDBRANCH   5   9
BRANCH   3  11
HETATM   11  O   UNK N   1      25.104  12.237  11.525  0.00  0.00    -0.369 OA
HETATM   12  H   UNK N   1      25.679  11.634  11.028  0.00  0.00     0.212 HD
ENDBRANCH   3  11
BRANCH   4  13
HETATM   13  O   UNK N   1      22.501  11.248  13.017  0.00  0.00    -0.388 OA
HETATM   14  H   UNK N   1      23.156  10.559  13.202  0.00  0.00     0.210 HD
ENDBRANCH   4  13
TORSDOF 5
ENDMDL
MODEL 9
REMARK VINA RESULT:      -4.4     14.740     16.001
REMARK  5 active torsions:
REMARK  status: ('A' for Active; 'I' for Inactive)
REMARK    1  A    between atoms: O_1  and  C_2 
REMARK    2  A    between atoms: C_3  and  C_2 
REMARK    3  A    between atoms: C_5  and  O_6 
REMARK    4  A    between atoms: C_7  and  O_8 
REMARK    5  A    between atoms: C_9  and  O_10 
ROOT
HETATM    1  C   UNK N   1      34.025  16.893   8.636  0.00  0.00     0.179 A 
HETATM    2  O   UNK N   1      33.037  15.964   8.210  0.00  0.00    -0.349 OA
HETATM    3  C   UNK N   1      33.016  15.003   9.248  0.00  0.00     0.288 A 
HETATM    4  C   UNK N   1      33.975  15.276  10.363  0.00  0.00     0.204 A 
HETATM    5  C   UNK N   1      34.644  16.519   9.964  0.00  0.00     0.182 A 
ENDROOT
BRANCH   1   6
HETATM    6  C   UNK N   1      34.345  18.097   7.767  0.00  0.00     0.198 C 
BRANCH   6   7
HETATM    7  O   UNK N   1      35.158  18.994   8.459  0.00  0.00    -0.398 OA
HETATM    8  H   UNK N   1      36.122  18.901   8.424  0.00  0.00     0.209 HD
ENDBRANCH   6   7
ENDBRANCH   1   6
BRANCH   5   9
HETATM    9  O   UNK N   1      35.636  17.204  10.668  0.00  0.00    -0.390 OA
HETATM   10  H   UNK N   1      35.527  17.374  11.617  0.00  0.00     0.210 HD
ENDBRANCH   5   9
BRANCH   3  11
HETATM   11  O   UNK N   1      32.146  13.916   9.175  0.00  0.00    -0.369 OA
HETATM   12  H   UNK N   1      31.466  13.885   8.483  0.00  0.00     0.212 HD
ENDBRANCH   3  11
BRANCH   4  13
HETATM   13  O   UNK N   1      34.183  14.518  11.514  0.00  0.00    -0.388 OA
HETATM   14  H   UNK N   1      34.621  14.913  12.282  0.00  0.00     0.210 HD
ENDBRANCH   4  13
TORSDOF 5
ENDMDL
