MODEL 1
REMARK VINA RESULT:      -5.4      0.000      0.000
REMARK  2 active torsions:
REMARK  status: ('A' for Active; 'I' for Inactive)
REMARK    1  A    between atoms: O_1  and  N_2 
REMARK       I    between atoms: N_2  and  C_3 
REMARK    2  A    between atoms: C_3  and  C_5 
ROOT
HETATM    1  C   UNK N   1      33.448  17.740   7.503  0.00  0.00     0.034 A 
HETATM    2  C   UNK N   1      33.740  17.598   6.138  0.00  0.00     0.017 A 
HETATM    3  C   UNK N   1      32.721  17.282   5.232  0.00  0.00     0.001 A 
HETATM    4  C   UNK N   1      31.410  17.106   5.685  0.00  0.00     0.000 A 
HETATM    5  C   UNK N   1      31.115  17.246   7.043  0.00  0.00     0.001 A 
HETATM    6  C   UNK N   1      32.129  17.562   7.947  0.00  0.00     0.017 A 
ENDROOT
BRANCH   1   7
HETATM    7  C   UNK N   1      34.504  18.073   8.477  0.00  0.00     0.275 C 
HETATM    8  N   UNK N   1      34.733  17.248   9.525  0.00  0.00    -0.233 N 
HETATM    9  H   UNK N   1      34.189  16.432   9.625  0.00  0.00     0.197 HD
HETATM   10  O   UNK N   1      35.173  19.090   8.342  0.00  0.00    -0.265 OA
BRANCH   8  11
HETATM   11  O   UNK N   1      35.683  17.517  10.429  0.00  0.00    -0.287 OA
HETATM   12  H   UNK N   1      35.896  16.867  11.116  0.00  0.00     0.244 HD
ENDBRANCH   8  11
ENDBRANCH   1   7
TORSDOF 2
ENDMDL
MODEL 2
REMARK VINA RESULT:      -5.4      0.027      1.532
REMARK  2 active torsions:
REMARK  status: ('A' for Active; 'I' for Inactive)
REMARK    1  A    between atoms: O_1  and  N_2 
REMARK       I    between atoms: N_2  and  C_3 
REMARK    2  A    between atoms: C_3  and  C_5 
ROOT
HETATM    1  C   UNK N   1      33.434  17.738   7.517  0.00  0.00     0.034 A 
HETATM    2  C   UNK N   1      32.107  17.555   7.936  0.00  0.00     0.017 A 
HETATM    3  C   UNK N   1      31.114  17.241   7.002  0.00  0.00     0.001 A 
HETATM    4  C   UNK N   1      31.441  17.109   5.649  0.00  0.00     0.000 A 
HETATM    5  C   UNK N   1      32.760  17.290   5.228  0.00  0.00     0.001 A 
HETATM    6  C   UNK N   1      33.751  17.604   6.158  0.00  0.00     0.017 A 
ENDROOT
BRANCH   1   7
HETATM    7  C   UNK N   1      34.499  18.070   8.483  0.00  0.00     0.275 C 
HETATM    8  N   UNK N   1      34.732  17.246   9.531  0.00  0.00    -0.233 N 
HETATM    9  H   UNK N   1      34.186  16.433   9.637  0.00  0.00     0.197 HD
HETATM   10  O   UNK N   1      35.170  19.085   8.341  0.00  0.00    -0.265 OA
BRANCH   8  11
HETATM   11  O   UNK N   1      35.689  17.515  10.428  0.00  0.00    -0.287 OA
HETATM   12  H   UNK N   1      35.464  17.964  11.257  0.00  0.00     0.244 HD
ENDBRANCH   8  11
ENDBRANCH   1   7
TORSDOF 2
ENDMDL
MODEL 3
REMARK VINA RESULT:      -5.1      9.480     10.933
REMARK  2 active torsions:
REMARK  status: ('A' for Active; 'I' for Inactive)
REMARK    1  A    between atoms: O_1  and  N_2 
REMARK       I    between atoms: N_2  and  C_3 
REMARK    2  A    between atoms: C_3  and  C_5 
ROOT
HETATM    1  C   UNK N   1      35.549  12.828  16.473  0.00  0.00     0.034 A 
HETATM    2  C   UNK N   1      35.252  13.665  17.560  0.00  0.00     0.017 A 
HETATM    3  C   UNK N   1      35.166  13.133  18.851  0.00  0.00     0.001 A 
HETATM    4  C   UNK N   1      35.375  11.766  19.062  0.00  0.00     0.000 A 
HETATM    5  C   UNK N   1      35.671  10.930  17.984  0.00  0.00     0.001 A 
HETATM    6  C   UNK N   1      35.758  11.459  16.696  0.00  0.00     0.017 A 
ENDROOT
BRANCH   1   7
HETATM    7  C   UNK N   1      35.646  13.364  15.102  0.00  0.00     0.275 C 
HETATM    8  N   UNK N   1      36.761  14.031  14.722  0.00  0.00    -0.233 N 
HETATM    9  H   UNK N   1      37.496  14.150  15.367  0.00  0.00     0.197 HD
HETATM   10  O   UNK N   1      34.725  13.210  14.311  0.00  0.00    -0.265 OA
BRANCH   8  11
HETATM   11  O   UNK N   1      36.884  14.532  13.487  0.00  0.00    -0.287 OA
HETATM   12  H   UNK N   1      36.239  15.178  13.160  0.00  0.00     0.244 HD
ENDBRANCH   8  11
ENDBRANCH   1   7
TORSDOF 2
ENDMDL
MODEL 4
REMARK VINA RESULT:      -5.1      9.521     10.927
REMARK  2 active torsions:
REMARK  status: ('A' for Active; 'I' for Inactive)
REMARK    1  A    between atoms: O_1  and  N_2 
REMARK       I    between atoms: N_2  and  C_3 
REMARK    2  A    between atoms: C_3  and  C_5 
ROOT
HETATM    1  C   UNK N   1      35.544  12.775  16.497  0.00  0.00     0.034 A 
HETATM    2  C   UNK N   1      35.743  11.403  16.715  0.00  0.00     0.017 A 
HETATM    3  C   UNK N   1      35.654  10.880  18.010  0.00  0.00     0.001 A 
HETATM    4  C   UNK N   1      35.368  11.722  19.089  0.00  0.00     0.000 A 
HETATM    5  C   UNK N   1      35.169  13.088  18.876  0.00  0.00     0.001 A 
HETATM    6  C   UNK N   1      35.257  13.611  17.586  0.00  0.00     0.017 A 
ENDROOT
BRANCH   1   7
HETATM    7  C   UNK N   1      35.632  13.351  15.141  0.00  0.00     0.275 C 
HETATM    8  N   UNK N   1      36.756  14.002  14.762  0.00  0.00    -0.233 N 
HETATM    9  H   UNK N   1      37.505  14.083  15.398  0.00  0.00     0.197 HD
HETATM   10  O   UNK N   1      34.694  13.243  14.360  0.00  0.00    -0.265 OA
BRANCH   8  11
HETATM   11  O   UNK N   1      36.873  14.537  13.541  0.00  0.00    -0.287 OA
HETATM   12  H   UNK N   1      36.191  15.142  13.210  0.00  0.00     0.244 HD
ENDBRANCH   8  11
ENDBRANCH   1   7
TORSDOF 2
ENDMDL
MODEL 5
REMARK VINA RESULT:      -5.1     11.816     12.333
REMARK  2 active torsions:
REMARK  status: ('A' for Active; 'I' for Inactive)
REMARK    1  A    between atoms: O_1  and  N_2 
REMARK       I    between atoms: N_2  and  C_3 
REMARK    2  A    between atoms: C_3  and  C_5 
ROOT
HETATM    1  C   UNK N   1      23.006  12.244  10.487  0.00  0.00     0.034 A 
HETATM    2  C   UNK N   1      21.862  13.054  10.423  0.00  0.00     0.017 A 
HETATM    3  C   UNK N   1      21.166  13.190   9.217  0.00  0.00     0.001 A 
HETATM    4  C   UNK N   1      21.609  12.519   8.072  0.00  0.00     0.000 A 
HETATM    5  C   UNK N   1      22.748  11.713   8.132  0.00  0.00     0.001 A 
HETATM    6  C   UNK N   1      23.442  11.577   9.333  0.00  0.00     0.017 A 
ENDROOT
BRANCH   1   7
HETATM    7  C   UNK N   1      23.757  12.085  11.747  0.00  0.00     0.275 C 
HETATM    8  N   UNK N   1      23.097  12.120  12.928  0.00  0.00    -0.233 N 
HETATM    9  H   UNK N   1      22.120  12.252  12.932  0.00  0.00     0.197 HD
HETATM   10  O   UNK N   1      24.970  11.922  11.729  0.00  0.00    -0.265 OA
BRANCH   8  11
HETATM   11  O   UNK N   1      23.744  11.979  14.092  0.00  0.00    -0.287 OA
HETATM   12  H   UNK N   1      24.549  12.491  14.263  0.00  0.00     0.244 HD
ENDBRANCH   8  11
ENDBRANCH   1   7
TORSDOF 2
ENDMDL
MODEL 6
REMARK VINA RESULT:      -4.9     11.983     13.102
REMARK  2 active torsions:
REMARK  status: ('A' for Active; 'I' for Inactive)
REMARK    1  A    between atoms: O_1  and  N_2 
REMARK       I    between atoms: N_2  and  C_3 
REMARK    2  A    between atoms: C_3  and  C_5 
ROOT
HETATM    1  C   UNK N   1      29.425  23.094  -3.431  0.00  0.00     0.034 A 
HETATM    2  C   UNK N   1      28.290  23.784  -2.978  0.00  0.00     0.017 A 
HETATM    3  C   UNK N   1      27.313  24.200  -3.889  0.00  0.00     0.001 A 
HETATM    4  C   UNK N   1      27.465  23.928  -5.253  0.00  0.00     0.000 A 
HETATM    5  C   UNK N   1      28.592  23.241  -5.707  0.00  0.00     0.001 A 
HETATM    6  C   UNK N   1      29.567  22.827  -4.800  0.00  0.00     0.017 A 
ENDROOT
BRANCH   1   7
HETATM    7  C   UNK N   1      30.470  22.646  -2.490  0.00  0.00     0.275 C 
HETATM    8  N   UNK N   1      31.433  21.796  -2.915  0.00  0.00    -0.233 N 
HETATM    9  H   UNK N   1      31.426  21.486  -3.850  0.00  0.00     0.197 HD
HETATM   10  O   UNK N   1      30.467  23.038  -1.330  0.00  0.00    -0.265 OA
BRANCH   8  11
HETATM   11  O   UNK N   1      32.397  21.368  -2.090  0.00  0.00    -0.287 OA
HETATM   12  H   UNK N   1      32.900  22.006  -1.561  0.00  0.00     0.244 HD
ENDBRANCH   8  11
ENDBRANCH   1   7
TORSDOF 2
ENDMDL
MODEL 7
REMARK VINA RESULT:      -4.7     12.188     13.244
REMARK  2 active torsions:
REMARK  status: ('A' for Active; 'I' for Inactive)
REMARK    1  A    between atoms: O_1  and  N_2 
REMARK       I    between atoms: N_2  and  C_3 
REMARK    2  A    between atoms: C_3  and  C_5 
ROOT
HETATM    1  C   UNK N   1      21.850  13.188  10.001  0.00  0.00     0.034 A 
HETATM    2  C   UNK N   1      23.132  13.322   9.447  0.00  0.00     0.017 A 
HETATM    3  C   UNK N   1      24.231  12.720  10.070  0.00  0.00     0.001 A 
HETATM    4  C   UNK N   1      24.054  11.983  11.246  0.00  0.00     0.000 A 
HETATM    5  C   UNK N   1      22.780  11.847  11.800  0.00  0.00     0.001 A 
HETATM    6  C   UNK N   1      21.684  12.447  11.180  0.00  0.00     0.017 A 
ENDROOT
BRANCH   1   7
HETATM    7  C   UNK N   1      20.676  13.814   9.363  0.00  0.00     0.275 C 
HETATM    8  N   UNK N   1      20.798  14.367   8.135  0.00  0.00    -0.233 N 
HETATM    9  H   UNK N   1      21.671  14.346   7.680  0.00  0.00     0.197 HD
HETATM   10  O   UNK N   1      19.595  13.833   9.940  0.00  0.00    -0.265 OA
BRANCH   8  11
HETATM   11  O   UNK N   1      19.754  14.944   7.525  0.00  0.00    -0.287 OA
HETATM   12  H   UNK N   1      19.015  14.400   7.212  0.00  0.00     0.244 HD
ENDBRANCH   8  11
ENDBRANCH   1   7
TORSDOF 2
ENDMDL
MODEL 8
REMARK VINA RESULT:      -4.5      3.801      4.395
REMARK  2 active torsions:
REMARK  status: ('A' for Active; 'I' for Inactive)
REMARK    1  A    between atoms: O_1  and  N_2 
REMARK       I    between atoms: N_2  and  C_3 
REMARK    2  A    between atoms: C_3  and  C_5 
ROOT
HETATM    1  C   UNK N   1      30.825  17.817   8.088  0.00  0.00     0.034 A 
HETATM    2  C   UNK N   1      30.622  17.187   6.851  0.00  0.00     0.017 A 
HETATM    3  C   UNK N   1      31.715  16.886   6.030  0.00  0.00     0.001 A 
HETATM    4  C   UNK N   1      33.012  17.212   6.442  0.00  0.00     0.000 A 
HETATM    5  C   UNK N   1      33.218  17.839   7.672  0.00  0.00     0.001 A 
HETATM    6  C   UNK N   1      32.129  18.139   8.491  0.00  0.00     0.017 A 
ENDROOT
BRANCH   1   7
HETATM    7  C   UNK N   1      29.689  18.145   8.971  0.00  0.00     0.275 C 
HETATM    8  N   UNK N   1      28.448  17.708   8.654  0.00  0.00    -0.233 N 
HETATM    9  H   UNK N   1      28.318  17.175   7.836  0.00  0.00     0.197 HD
HETATM   10  O   UNK N   1      29.865  18.808   9.985  0.00  0.00    -0.265 OA
BRANCH   8  11
HETATM   11  O   UNK N   1      27.393  17.985   9.430  0.00  0.00    -0.287 OA
HETATM   12  H   UNK N   1      26.592  18.367   9.040  0.00  0.00     0.244 HD
ENDBRANCH   8  11
ENDBRANCH   1   7
TORSDOF 2
ENDMDL
MODEL 9
REMARK VINA RESULT:      -4.5     11.691     12.815
REMARK  2 active torsions:
REMARK  status: ('A' for Active; 'I' for Inactive)
REMARK    1  A    between atoms: O_1  and  N_2 
REMARK       I    between atoms: N_2  and  C_3 
REMARK    2  A    between atoms: C_3  and  C_5 
ROOT
HETATM    1  C   UNK N   1      22.307  19.600   3.370  0.00  0.00     0.034 A 
HETATM    2  C   UNK N   1      23.131  20.578   2.792  0.00  0.00     0.017 A 
HETATM    3  C   UNK N   1      24.523  20.471   2.890  0.00  0.00     0.001 A 
HETATM    4  C   UNK N   1      25.096  19.387   3.564  0.00  0.00     0.000 A 
HETATM    5  C   UNK N   1      24.280  18.412   4.140  0.00  0.00     0.001 A 
HETATM    6  C   UNK N   1      22.893  18.518   4.043  0.00  0.00     0.017 A 
ENDROOT
BRANCH   1   7
HETATM    7  C   UNK N   1      20.837  19.692   3.279  0.00  0.00     0.275 C 
HETATM    8  N   UNK N   1      20.150  18.757   2.582  0.00  0.00    -0.233 N 
HETATM    9  H   UNK N   1      20.641  18.025   2.143  0.00  0.00     0.197 HD
HETATM   10  O   UNK N   1      20.239  20.607   3.831  0.00  0.00    -0.265 OA
BRANCH   8  11
HETATM   11  O   UNK N   1      18.817  18.808   2.479  0.00  0.00    -0.287 OA
HETATM   12  H   UNK N   1      18.402  18.901   1.607  0.00  0.00     0.244 HD
ENDBRANCH   8  11
ENDBRANCH   1   7
TORSDOF 2
ENDMDL
