REMARK  1 active torsions:
REMARK  status: ('A' for Active; 'I' for Inactive)
REMARK    1  A    between atoms: C_3  and  N_4 
ROOT
HETATM    1  C   UNK N   1       2.909   1.893  -0.000  0.00  0.00     0.054 C 
HETATM    2  C   UNK N   1       1.649   1.089  -0.000  0.00  0.00     0.003 A 
HETATM    3  C   UNK N   1       1.695  -0.316  -0.000  0.00  0.00     0.034 A 
HETATM    4  C   UNK N   1       0.506  -1.052  -0.000  0.00  0.00     0.029 A 
HETATM    5  C   UNK N   1      -0.728  -0.397  -0.000  0.00  0.00     0.005 A 
HETATM    6  C   UNK N   1      -0.777   0.997  -0.000  0.00  0.00     0.043 A 
HETATM    7  C   UNK N   1       0.406   1.741   0.000  0.00  0.00     0.124 A 
HETATM    8  F   UNK N   1       0.340   3.094   0.000  0.00  0.00    -0.205 F 
ENDROOT
BRANCH   3   9
HETATM    9  N   UNK N   1       2.931  -0.995   0.000  0.00  0.00    -0.399 N 
HETATM   10  H   UNK N   1       2.952  -1.980   0.000  0.00  0.00     0.156 HD
HETATM   11  H   UNK N   1       3.773  -0.485   0.000  0.00  0.00     0.156 HD
ENDBRANCH   3   9
TORSDOF 1
