MODEL 1
REMARK VINA RESULT:      -8.4      0.000      0.000
REMARK  26 active torsions:
REMARK  status: ('A' for Active; 'I' for Inactive)
REMARK    1  A    between atoms: C_8  and  C_7 
REMARK    2  A    between atoms: C_9  and  C_7 
REMARK    3  A    between atoms: C_10  and  C_8 
REMARK    4  A    between atoms: C_11  and  C_9 
REMARK    5  A    between atoms: C_12  and  C_10 
REMARK    6  A    between atoms: C_13  and  C_11 
REMARK    7  A    between atoms: C_14  and  C_12 
REMARK    8  A    between atoms: C_24  and  C_13 
REMARK    9  A    between atoms: C_35  and  C_14 
REMARK   10  A    between atoms: C_36  and  C_22 
REMARK   11  A    between atoms: N_43  and  C_22 
REMARK   12  A    between atoms: C_32  and  C_23 
REMARK   13  A    between atoms: O_53  and  C_23 
REMARK   14  A    between atoms: C_38  and  C_25 
REMARK   15  A    between atoms: N_45  and  C_25 
REMARK   16  A    between atoms: C_31  and  C_42 
REMARK   17  A    between atoms: C_40  and  C_32 
REMARK   18  A    between atoms: C_32  and  N_51 
REMARK   19  A    between atoms: O_54  and  C_33 
REMARK   20  A    between atoms: O_55  and  C_34 
REMARK       I    between atoms: N_51  and  C_35 
REMARK       I    between atoms: N_52  and  C_36 
REMARK   21  A    between atoms: C_37  and  N_52 
REMARK   22  A    between atoms: O_58  and  C_38 
REMARK   23  A    between atoms: C_39  and  O_59 
REMARK   24  A    between atoms: C_40  and  O_60 
REMARK   25  A    between atoms: C_41  and  O_61 
REMARK   26  A    between atoms: O_63  and  C_42 
ROOT
HETATM    1  C   UNK N   1      34.461  18.682   8.314  0.00  0.00     0.154 C 
HETATM    2  C   UNK N   1      34.700  16.652   9.617  0.00  0.00     0.238 C 
HETATM    3  N   UNK N   1      34.093  17.307   8.566  0.00  0.00    -0.339 N 
HETATM    4  O   UNK N   1      35.578  17.220  10.256  0.00  0.00    -0.272 OA
ENDROOT
BRANCH   3   5
HETATM    5  C   UNK N   1      33.035  16.736   7.710  0.00  0.00     0.194 C 
HETATM    6  C   UNK N   1      31.654  17.376   7.761  0.00  0.00    -0.026 A 
HETATM    7  C   UNK N   1      31.170  18.052   8.885  0.00  0.00     0.012 A 
HETATM    8  C   UNK N   1      30.767  17.110   6.726  0.00  0.00     0.025 A 
HETATM    9  C   UNK N   1      29.877  18.575   8.885  0.00  0.00     0.038 A 
HETATM   10  C   UNK N   1      29.007  18.350   7.812  0.00  0.00     0.076 A 
HETATM   11  C   UNK N   1      29.435  17.558   6.708  0.00  0.00     0.011 A 
HETATM   12  C   UNK N   1      28.613  17.079   5.527  0.00  0.00     0.011 A 
HETATM   13  C   UNK N   1      29.326  16.350   4.559  0.00  0.00     0.022 A 
HETATM   14  C   UNK N   1      27.204  17.203   5.338  0.00  0.00     0.076 A 
HETATM   15  C   UNK N   1      28.720  15.753   3.468  0.00  0.00    -0.055 A 
HETATM   16  C   UNK N   1      27.345  15.882   3.294  0.00  0.00     0.010 A 
HETATM   17  C   UNK N   1      29.548  14.947   2.512  0.00  0.00     0.074 C 
HETATM   18  C   UNK N   1      26.595  16.610   4.221  0.00  0.00     0.038 A 
HETATM   19  C   UNK N   1      30.316  13.801   3.209  0.00  0.00     0.185 C 
HETATM   20  N   UNK N   1      31.471  14.306   3.968  0.00  0.00    -0.358 N 
HETATM   21  C   UNK N   1      32.684  14.442   3.520  0.00  0.00     0.135 C 
ATOM     22  HN  UNK N   1      31.303  14.576   4.937  1.00  0.00     0.162 HD
HETATM   23  C   UNK N   1      33.809  14.942   4.413  0.00  0.00     0.153 C 
HETATM   24  C   UNK N   1      34.848  13.843   4.537  0.00  0.00     0.041 C 
HETATM   25  N   UNK N   1      33.369  15.303   5.756  0.00  0.00    -0.361 N 
HETATM   26  C   UNK N   1      33.531  16.477   6.292  0.00  0.00     0.140 C 
ATOM     27  HN  UNK N   1      32.905  14.587   6.313  1.00  0.00     0.162 HD
BRANCH  10  28
HETATM   28  O   UNK N   1      27.787  18.893   7.881  0.00  0.00    -0.360 OA
HETATM   29  H   UNK N   1      27.417  19.123   8.710  0.00  0.00     0.217 HD
ENDBRANCH  10  28
BRANCH  19  30
HETATM   30  C   UNK N   1      30.678  12.699   2.232  0.00  0.00     0.163 C 
HETATM   31  O   UNK N   1      30.432  12.813   1.041  0.00  0.00    -0.648 OA
BRANCH  30  32
HETATM   32  O   UNK N   1      31.269  11.577   2.683  0.00  0.00    -0.775 OA
HETATM   33  H   UNK N   1      31.574  11.193   3.482  0.00  0.00     0.167 HD
ENDBRANCH  30  32
ENDBRANCH  19  30
BRANCH  21  34
HETATM   34  O   UNK N   1      32.987  14.115   2.245  0.00  0.00    -0.348 OA
HETATM   35  H   UNK N   1      32.544  14.330   1.449  0.00  0.00     0.219 HD
ENDBRANCH  21  34
BRANCH  26  36
HETATM   36  O   UNK N   1      34.115  17.480   5.602  0.00  0.00    -0.348 OA
HETATM   37  H   UNK N   1      34.500  17.955   4.893  0.00  0.00     0.219 HD
ENDBRANCH  26  36
BRANCH  14  38
HETATM   38  O   UNK N   1      26.411  17.839   6.207  0.00  0.00    -0.360 OA
HETATM   39  H   UNK N   1      25.528  18.064   5.990  0.00  0.00     0.217 HD
ENDBRANCH  14  38
ENDBRANCH   3   5
BRANCH   2  40
HETATM   40  C   UNK N   1      34.340  15.244  10.005  0.00  0.00     0.224 C 
BRANCH  40  41
HETATM   41  N   UNK N   1      34.697  14.268   9.008  0.00  0.00    -0.364 N 
HETATM   42  C   UNK N   1      35.777  13.563   9.060  0.00  0.00     0.134 C 
ATOM     43  HN  UNK N   1      34.064  14.127   8.220  1.00  0.00     0.161 HD
BRANCH  42  44
HETATM   44  C   UNK N   1      36.752  13.639  10.237  0.00  0.00     0.153 C 
HETATM   45  C   UNK N   1      37.994  14.463   9.905  0.00  0.00     0.041 C 
BRANCH  44  46
HETATM   46  N   UNK N   1      37.149  12.325  10.741  0.00  0.00    -0.361 N 
HETATM   47  C   UNK N   1      36.396  11.412  11.281  0.00  0.00     0.137 C 
ATOM     48  HN  UNK N   1      38.139  12.096  10.658  1.00  0.00     0.162 HD
BRANCH  47  49
HETATM   49  C   UNK N   1      34.905  11.604  11.532  0.00  0.00     0.184 C 
BRANCH  49  50
HETATM   50  C   UNK N   1      34.014  10.803  10.569  0.00  0.00     0.198 C 
BRANCH  50  51
HETATM   51  O   UNK N   1      33.129  11.601   9.844  0.00  0.00    -0.398 OA
HETATM   52  H   UNK N   1      32.403  11.879   9.265  0.00  0.00     0.209 HD
ENDBRANCH  50  51
ENDBRANCH  49  50
BRANCH  49  53
HETATM   53  N   UNK N   1      34.550  11.419  12.941  0.00  0.00    -0.342 N 
HETATM   54  C   UNK N   1      34.139  10.091  13.360  0.00  0.00     0.153 C 
HETATM   55  C   UNK N   1      34.639  12.403  13.891  0.00  0.00     0.220 C 
HETATM   56  O   UNK N   1      34.987  13.538  13.592  0.00  0.00    -0.273 OA
BRANCH  55  57
HETATM   57  C   UNK N   1      34.404  12.081  15.336  0.00  0.00     0.103 C 
BRANCH  57  58
HETATM   58  C   UNK N   1      35.060  13.124  16.239  0.00  0.00     0.009 C 
BRANCH  58  59
HETATM   59  C   UNK N   1      35.224  12.638  17.684  0.00  0.00     0.000 C 
BRANCH  59  60
HETATM   60  C   UNK N   1      35.669  11.174  17.754  0.00  0.00     0.000 C 
BRANCH  60  61
HETATM   61  C   UNK N   1      34.892  10.380  18.807  0.00  0.00     0.000 C 
BRANCH  61  62
HETATM   62  C   UNK N   1      34.418   9.024  18.297  0.00  0.00     0.000 C 
BRANCH  62  63
HETATM   63  C   UNK N   1      33.499   8.346  19.298  0.00  0.00     0.000 C 
BRANCH  63  64
HETATM   64  C   UNK N   1      33.244   9.225  20.504  0.00  0.00     0.004 C 
BRANCH  64  65
HETATM   65  C   UNK N   1      31.847   8.954  21.036  0.00  0.00    -0.023 C 
HETATM   66  C   UNK N   1      31.047   8.190  20.003  0.00  0.00     0.009 C 
HETATM   67  C   UNK N   1      31.917   8.139  22.315  0.00  0.00     0.009 C 
ENDBRANCH  64  65
ENDBRANCH  63  64
ENDBRANCH  62  63
ENDBRANCH  61  62
ENDBRANCH  60  61
ENDBRANCH  59  60
ENDBRANCH  58  59
ENDBRANCH  57  58
ENDBRANCH  55  57
ENDBRANCH  49  53
ENDBRANCH  47  49
BRANCH  47  68
HETATM   68  O   UNK N   1      36.964  10.243  11.634  0.00  0.00    -0.348 OA
HETATM   69  H   UNK N   1      37.207   9.344  11.743  0.00  0.00     0.219 HD
ENDBRANCH  47  68
ENDBRANCH  44  46
ENDBRANCH  42  44
BRANCH  42  70
HETATM   70  O   UNK N   1      36.055  12.741   8.027  0.00  0.00    -0.348 OA
HETATM   71  H   UNK N   1      36.439  11.931   7.753  0.00  0.00     0.219 HD
ENDBRANCH  42  70
ENDBRANCH  40  41
ENDBRANCH   2  40
TORSDOF 26
ENDMDL
MODEL 2
REMARK VINA RESULT:      -8.1      2.019      3.779
REMARK  26 active torsions:
REMARK  status: ('A' for Active; 'I' for Inactive)
REMARK    1  A    between atoms: C_8  and  C_7 
REMARK    2  A    between atoms: C_9  and  C_7 
REMARK    3  A    between atoms: C_10  and  C_8 
REMARK    4  A    between atoms: C_11  and  C_9 
REMARK    5  A    between atoms: C_12  and  C_10 
REMARK    6  A    between atoms: C_13  and  C_11 
REMARK    7  A    between atoms: C_14  and  C_12 
REMARK    8  A    between atoms: C_24  and  C_13 
REMARK    9  A    between atoms: C_35  and  C_14 
REMARK   10  A    between atoms: C_36  and  C_22 
REMARK   11  A    between atoms: N_43  and  C_22 
REMARK   12  A    between atoms: C_32  and  C_23 
REMARK   13  A    between atoms: O_53  and  C_23 
REMARK   14  A    between atoms: C_38  and  C_25 
REMARK   15  A    between atoms: N_45  and  C_25 
REMARK   16  A    between atoms: C_31  and  C_42 
REMARK   17  A    between atoms: C_40  and  C_32 
REMARK   18  A    between atoms: C_32  and  N_51 
REMARK   19  A    between atoms: O_54  and  C_33 
REMARK   20  A    between atoms: O_55  and  C_34 
REMARK       I    between atoms: N_51  and  C_35 
REMARK       I    between atoms: N_52  and  C_36 
REMARK   21  A    between atoms: C_37  and  N_52 
REMARK   22  A    between atoms: O_58  and  C_38 
REMARK   23  A    between atoms: C_39  and  O_59 
REMARK   24  A    between atoms: C_40  and  O_60 
REMARK   25  A    between atoms: C_41  and  O_61 
REMARK   26  A    between atoms: O_63  and  C_42 
ROOT
HETATM    1  C   UNK N   1      34.480  18.670   8.279  0.00  0.00     0.154 C 
HETATM    2  C   UNK N   1      34.730  16.661   9.613  0.00  0.00     0.238 C 
HETATM    3  N   UNK N   1      34.118  17.297   8.553  0.00  0.00    -0.339 N 
HETATM    4  O   UNK N   1      35.606  17.244  10.242  0.00  0.00    -0.272 OA
ENDROOT
BRANCH   3   5
HETATM    5  C   UNK N   1      33.062  16.707   7.707  0.00  0.00     0.194 C 
HETATM    6  C   UNK N   1      31.673  17.330   7.764  0.00  0.00    -0.026 A 
HETATM    7  C   UNK N   1      31.188  18.007   8.887  0.00  0.00     0.012 A 
HETATM    8  C   UNK N   1      30.783  17.048   6.737  0.00  0.00     0.025 A 
HETATM    9  C   UNK N   1      29.889  18.514   8.894  0.00  0.00     0.038 A 
HETATM   10  C   UNK N   1      29.014  18.271   7.828  0.00  0.00     0.076 A 
HETATM   11  C   UNK N   1      29.445  17.479   6.725  0.00  0.00     0.011 A 
HETATM   12  C   UNK N   1      28.621  16.982   5.553  0.00  0.00     0.011 A 
HETATM   13  C   UNK N   1      29.337  16.256   4.584  0.00  0.00     0.022 A 
HETATM   14  C   UNK N   1      27.210  17.087   5.372  0.00  0.00     0.076 A 
HETATM   15  C   UNK N   1      28.731  15.645   3.500  0.00  0.00    -0.055 A 
HETATM   16  C   UNK N   1      27.353  15.756   3.335  0.00  0.00     0.010 A 
HETATM   17  C   UNK N   1      29.563  14.845   2.544  0.00  0.00     0.074 C 
HETATM   18  C   UNK N   1      26.600  16.480   4.263  0.00  0.00     0.038 A 
HETATM   19  C   UNK N   1      30.350  13.712   3.241  0.00  0.00     0.185 C 
HETATM   20  N   UNK N   1      31.503  14.237   3.990  0.00  0.00    -0.358 N 
HETATM   21  C   UNK N   1      32.712  14.385   3.533  0.00  0.00     0.135 C 
ATOM     22  HN  UNK N   1      31.339  14.510   4.959  1.00  0.00     0.162 HD
HETATM   23  C   UNK N   1      33.836  14.905   4.416  0.00  0.00     0.153 C 
HETATM   24  C   UNK N   1      34.890  13.819   4.539  0.00  0.00     0.041 C 
HETATM   25  N   UNK N   1      33.401  15.268   5.760  0.00  0.00    -0.361 N 
HETATM   26  C   UNK N   1      33.552  16.447   6.288  0.00  0.00     0.140 C 
ATOM     27  HN  UNK N   1      32.950  14.549   6.323  1.00  0.00     0.162 HD
BRANCH  10  28
HETATM   28  O   UNK N   1      27.788  18.799   7.902  0.00  0.00    -0.360 OA
HETATM   29  H   UNK N   1      27.647  19.609   8.349  0.00  0.00     0.217 HD
ENDBRANCH  10  28
BRANCH  19  30
HETATM   30  C   UNK N   1      30.719  12.610   2.269  0.00  0.00     0.163 C 
HETATM   31  O   UNK N   1      31.242  11.577   2.662  0.00  0.00    -0.648 OA
BRANCH  30  32
HETATM   32  O   UNK N   1      30.477  12.772   0.955  0.00  0.00    -0.775 OA
HETATM   33  H   UNK N   1      30.252  13.443   0.340  0.00  0.00     0.167 HD
ENDBRANCH  30  32
ENDBRANCH  19  30
BRANCH  21  34
HETATM   34  O   UNK N   1      33.010  14.055   2.258  0.00  0.00    -0.348 OA
HETATM   35  H   UNK N   1      33.834  13.830   1.873  0.00  0.00     0.219 HD
ENDBRANCH  21  34
BRANCH  26  36
HETATM   36  O   UNK N   1      34.118  17.453   5.588  0.00  0.00    -0.348 OA
HETATM   37  H   UNK N   1      34.217  18.157   4.977  0.00  0.00     0.219 HD
ENDBRANCH  26  36
BRANCH  14  38
HETATM   38  O   UNK N   1      26.415  17.718   6.244  0.00  0.00    -0.360 OA
HETATM   39  H   UNK N   1      26.750  18.363   6.835  0.00  0.00     0.217 HD
ENDBRANCH  14  38
ENDBRANCH   3   5
BRANCH   2  40
HETATM   40  C   UNK N   1      34.377  15.258  10.023  0.00  0.00     0.224 C 
BRANCH  40  41
HETATM   41  N   UNK N   1      34.389  15.059  11.449  0.00  0.00    -0.364 N 
HETATM   42  C   UNK N   1      35.153  14.203  12.041  0.00  0.00     0.134 C 
ATOM     43  HN  UNK N   1      33.761  15.624  12.021  1.00  0.00     0.161 HD
BRANCH  42  44
HETATM   44  C   UNK N   1      36.187  13.365  11.284  0.00  0.00     0.153 C 
HETATM   45  C   UNK N   1      36.615  12.129  12.072  0.00  0.00     0.041 C 
BRANCH  44  46
HETATM   46  N   UNK N   1      37.366  14.131  10.883  0.00  0.00    -0.361 N 
HETATM   47  C   UNK N   1      37.971  14.129   9.732  0.00  0.00     0.137 C 
ATOM     48  HN  UNK N   1      37.763  14.743  11.596  1.00  0.00     0.162 HD
BRANCH  47  49
HETATM   49  C   UNK N   1      37.547  13.236   8.570  0.00  0.00     0.184 C 
BRANCH  49  50
HETATM   50  C   UNK N   1      38.006  13.759   7.199  0.00  0.00     0.198 C 
BRANCH  50  51
HETATM   51  O   UNK N   1      37.880  12.816   6.180  0.00  0.00    -0.398 OA
HETATM   52  H   UNK N   1      37.537  12.322   5.419  0.00  0.00     0.209 HD
ENDBRANCH  50  51
ENDBRANCH  49  50
BRANCH  49  53
HETATM   53  N   UNK N   1      37.884  11.830   8.799  0.00  0.00    -0.342 N 
HETATM   54  C   UNK N   1      39.250  11.521   9.183  0.00  0.00     0.153 C 
HETATM   55  C   UNK N   1      36.980  10.803   8.729  0.00  0.00     0.220 C 
HETATM   56  O   UNK N   1      35.815  11.009   8.416  0.00  0.00    -0.273 OA
BRANCH  55  57
HETATM   57  C   UNK N   1      37.381   9.414   9.130  0.00  0.00     0.103 C 
BRANCH  57  58
HETATM   58  C   UNK N   1      36.198   8.661   9.737  0.00  0.00     0.009 C 
BRANCH  58  59
HETATM   59  C   UNK N   1      36.292   8.541  11.263  0.00  0.00     0.000 C 
BRANCH  59  60
HETATM   60  C   UNK N   1      34.911   8.474  11.923  0.00  0.00     0.000 C 
BRANCH  60  61
HETATM   61  C   UNK N   1      34.866   9.225  13.256  0.00  0.00     0.000 C 
BRANCH  61  62
HETATM   62  C   UNK N   1      33.867  10.376  13.255  0.00  0.00     0.000 C 
BRANCH  62  63
HETATM   63  C   UNK N   1      33.493  10.787  14.668  0.00  0.00     0.000 C 
BRANCH  63  64
HETATM   64  C   UNK N   1      34.530  10.331  15.673  0.00  0.00     0.004 C 
BRANCH  64  65
HETATM   65  C   UNK N   1      35.382  11.518  16.088  0.00  0.00    -0.023 C 
HETATM   66  C   UNK N   1      35.302  11.705  17.587  0.00  0.00     0.009 C 
HETATM   67  C   UNK N   1      36.830  11.296  15.688  0.00  0.00     0.009 C 
ENDBRANCH  64  65
ENDBRANCH  63  64
ENDBRANCH  62  63
ENDBRANCH  61  62
ENDBRANCH  60  61
ENDBRANCH  59  60
ENDBRANCH  58  59
ENDBRANCH  57  58
ENDBRANCH  55  57
ENDBRANCH  49  53
ENDBRANCH  47  49
BRANCH  47  68
HETATM   68  O   UNK N   1      39.020  14.955   9.561  0.00  0.00    -0.348 OA
HETATM   69  H   UNK N   1      39.863  15.340   9.420  0.00  0.00     0.219 HD
ENDBRANCH  47  68
ENDBRANCH  44  46
ENDBRANCH  42  44
BRANCH  42  70
HETATM   70  O   UNK N   1      35.018  14.039  13.372  0.00  0.00    -0.348 OA
HETATM   71  H   UNK N   1      34.709  13.488  14.065  0.00  0.00     0.219 HD
ENDBRANCH  42  70
ENDBRANCH  40  41
ENDBRANCH   2  40
TORSDOF 26
ENDMDL
MODEL 3
REMARK VINA RESULT:      -8.1      9.239     13.767
REMARK  26 active torsions:
REMARK  status: ('A' for Active; 'I' for Inactive)
REMARK    1  A    between atoms: C_8  and  C_7 
REMARK    2  A    between atoms: C_9  and  C_7 
REMARK    3  A    between atoms: C_10  and  C_8 
REMARK    4  A    between atoms: C_11  and  C_9 
REMARK    5  A    between atoms: C_12  and  C_10 
REMARK    6  A    between atoms: C_13  and  C_11 
REMARK    7  A    between atoms: C_14  and  C_12 
REMARK    8  A    between atoms: C_24  and  C_13 
REMARK    9  A    between atoms: C_35  and  C_14 
REMARK   10  A    between atoms: C_36  and  C_22 
REMARK   11  A    between atoms: N_43  and  C_22 
REMARK   12  A    between atoms: C_32  and  C_23 
REMARK   13  A    between atoms: O_53  and  C_23 
REMARK   14  A    between atoms: C_38  and  C_25 
REMARK   15  A    between atoms: N_45  and  C_25 
REMARK   16  A    between atoms: C_31  and  C_42 
REMARK   17  A    between atoms: C_40  and  C_32 
REMARK   18  A    between atoms: C_32  and  N_51 
REMARK   19  A    between atoms: O_54  and  C_33 
REMARK   20  A    between atoms: O_55  and  C_34 
REMARK       I    between atoms: N_51  and  C_35 
REMARK       I    between atoms: N_52  and  C_36 
REMARK   21  A    between atoms: C_37  and  N_52 
REMARK   22  A    between atoms: O_58  and  C_38 
REMARK   23  A    between atoms: C_39  and  O_59 
REMARK   24  A    between atoms: C_40  and  O_60 
REMARK   25  A    between atoms: C_41  and  O_61 
REMARK   26  A    between atoms: O_63  and  C_42 
ROOT
HETATM    1  C   UNK N   1      23.575  12.965   9.424  0.00  0.00     0.154 C 
HETATM    2  C   UNK N   1      21.783  14.367   8.589  0.00  0.00     0.238 C 
HETATM    3  N   UNK N   1      22.867  13.561   8.313  0.00  0.00    -0.339 N 
HETATM    4  O   UNK N   1      21.407  14.496   9.749  0.00  0.00    -0.272 OA
ENDROOT
BRANCH   3   5
HETATM    5  C   UNK N   1      23.415  13.311   6.965  0.00  0.00     0.194 C 
HETATM    6  C   UNK N   1      24.791  13.875   6.639  0.00  0.00    -0.026 A 
HETATM    7  C   UNK N   1      25.313  15.013   7.259  0.00  0.00     0.012 A 
HETATM    8  C   UNK N   1      25.472  13.356   5.546  0.00  0.00     0.025 A 
HETATM    9  C   UNK N   1      26.561  15.508   6.881  0.00  0.00     0.038 A 
HETATM   10  C   UNK N   1      27.268  14.943   5.813  0.00  0.00     0.076 A 
HETATM   11  C   UNK N   1      26.701  13.859   5.083  0.00  0.00     0.011 A 
HETATM   12  C   UNK N   1      27.227  13.206   3.819  0.00  0.00     0.011 A 
HETATM   13  C   UNK N   1      26.472  12.115   3.352  0.00  0.00     0.022 A 
HETATM   14  C   UNK N   1      28.328  13.625   3.016  0.00  0.00     0.076 A 
HETATM   15  C   UNK N   1      26.748  11.463   2.163  0.00  0.00    -0.055 A 
HETATM   16  C   UNK N   1      27.826  11.881   1.388  0.00  0.00     0.010 A 
HETATM   17  C   UNK N   1      25.859  10.343   1.712  0.00  0.00     0.074 C 
HETATM   18  C   UNK N   1      28.615  12.951   1.818  0.00  0.00     0.038 A 
HETATM   19  C   UNK N   1      24.378  10.768   1.592  0.00  0.00     0.185 C 
HETATM   20  N   UNK N   1      23.743  10.898   2.913  0.00  0.00    -0.358 N 
HETATM   21  C   UNK N   1      23.108   9.962   3.554  0.00  0.00     0.135 C 
ATOM     22  HN  UNK N   1      23.807  11.809   3.368  1.00  0.00     0.162 HD
HETATM   23  C   UNK N   1      22.458  10.226   4.904  0.00  0.00     0.153 C 
HETATM   24  C   UNK N   1      20.961  10.016   4.764  0.00  0.00     0.041 C 
HETATM   25  N   UNK N   1      22.681  11.577   5.404  0.00  0.00    -0.361 N 
HETATM   26  C   UNK N   1      23.240  11.856   6.545  0.00  0.00     0.140 C 
ATOM     27  HN  UNK N   1      22.376  12.356   4.821  1.00  0.00     0.162 HD
BRANCH  10  28
HETATM   28  O   UNK N   1      28.463  15.465   5.516  0.00  0.00    -0.360 OA
HETATM   29  H   UNK N   1      28.964  15.127   4.801  0.00  0.00     0.217 HD
ENDBRANCH  10  28
BRANCH  19  30
HETATM   30  C   UNK N   1      23.614   9.862   0.647  0.00  0.00     0.163 C 
HETATM   31  O   UNK N   1      24.107   8.820   0.243  0.00  0.00    -0.648 OA
BRANCH  30  32
HETATM   32  O   UNK N   1      22.379  10.213   0.240  0.00  0.00    -0.775 OA
HETATM   33  H   UNK N   1      21.532   9.837   0.098  0.00  0.00     0.167 HD
ENDBRANCH  30  32
ENDBRANCH  19  30
BRANCH  21  34
HETATM   34  O   UNK N   1      22.986   8.726   3.025  0.00  0.00    -0.348 OA
HETATM   35  H   UNK N   1      22.740   7.919   3.433  0.00  0.00     0.219 HD
ENDBRANCH  21  34
BRANCH  26  36
HETATM   36  O   UNK N   1      23.690  10.874   7.355  0.00  0.00    -0.348 OA
HETATM   37  H   UNK N   1      23.812  10.349   8.121  0.00  0.00     0.219 HD
ENDBRANCH  26  36
BRANCH  14  38
HETATM   38  O   UNK N   1      29.098  14.672   3.332  0.00  0.00    -0.360 OA
HETATM   39  H   UNK N   1      28.844  15.284   3.994  0.00  0.00     0.217 HD
ENDBRANCH  14  38
ENDBRANCH   3   5
BRANCH   2  40
HETATM   40  C   UNK N   1      21.020  15.089   7.512  0.00  0.00     0.224 C 
BRANCH  40  41
HETATM   41  N   UNK N   1      20.727  16.460   7.840  0.00  0.00    -0.364 N 
HETATM   42  C   UNK N   1      20.966  17.447   7.043  0.00  0.00     0.134 C 
ATOM     43  HN  UNK N   1      20.310  16.661   8.749  1.00  0.00     0.161 HD
BRANCH  42  44
HETATM   44  C   UNK N   1      21.514  17.246   5.628  0.00  0.00     0.153 C 
HETATM   45  C   UNK N   1      22.816  18.010   5.401  0.00  0.00     0.041 C 
BRANCH  44  46
HETATM   46  N   UNK N   1      20.550  17.588   4.584  0.00  0.00    -0.361 N 
HETATM   47  C   UNK N   1      20.041  16.809   3.675  0.00  0.00     0.137 C 
ATOM     48  HN  UNK N   1      20.236  18.559   4.567  1.00  0.00     0.162 HD
BRANCH  47  49
HETATM   49  C   UNK N   1      20.435  15.344   3.519  0.00  0.00     0.184 C 
BRANCH  49  50
HETATM   50  C   UNK N   1      19.236  14.383   3.549  0.00  0.00     0.198 C 
BRANCH  50  51
HETATM   51  O   UNK N   1      19.598  13.045   3.385  0.00  0.00    -0.398 OA
HETATM   52  H   UNK N   1      19.853  12.130   3.579  0.00  0.00     0.209 HD
ENDBRANCH  50  51
ENDBRANCH  49  50
BRANCH  49  53
HETATM   53  N   UNK N   1      21.326  15.127   2.377  0.00  0.00    -0.342 N 
HETATM   54  C   UNK N   1      21.034  15.849   1.152  0.00  0.00     0.153 C 
HETATM   55  C   UNK N   1      22.444  14.335   2.415  0.00  0.00     0.220 C 
HETATM   56  O   UNK N   1      22.739  13.710   3.425  0.00  0.00    -0.273 OA
BRANCH  55  57
HETATM   57  C   UNK N   1      23.381  14.295   1.246  0.00  0.00     0.103 C 
BRANCH  57  58
HETATM   58  C   UNK N   1      24.784  14.739   1.658  0.00  0.00     0.009 C 
BRANCH  58  59
HETATM   59  C   UNK N   1      24.767  15.850   2.715  0.00  0.00     0.000 C 
BRANCH  59  60
HETATM   60  C   UNK N   1      26.092  16.617   2.768  0.00  0.00     0.000 C 
BRANCH  60  61
HETATM   61  C   UNK N   1      26.066  17.752   3.795  0.00  0.00     0.000 C 
BRANCH  61  62
HETATM   62  C   UNK N   1      25.551  19.064   3.216  0.00  0.00     0.000 C 
BRANCH  62  63
HETATM   63  C   UNK N   1      26.173  20.261   3.914  0.00  0.00     0.000 C 
BRANCH  63  64
HETATM   64  C   UNK N   1      27.588  19.967   4.366  0.00  0.00     0.004 C 
BRANCH  64  65
HETATM   65  C   UNK N   1      27.761  20.430   5.802  0.00  0.00    -0.023 C 
HETATM   66  C   UNK N   1      26.608  21.328   6.192  0.00  0.00     0.009 C 
HETATM   67  C   UNK N   1      27.804  19.236   6.741  0.00  0.00     0.009 C 
ENDBRANCH  64  65
ENDBRANCH  63  64
ENDBRANCH  62  63
ENDBRANCH  61  62
ENDBRANCH  60  61
ENDBRANCH  59  60
ENDBRANCH  58  59
ENDBRANCH  57  58
ENDBRANCH  55  57
ENDBRANCH  49  53
ENDBRANCH  47  49
BRANCH  47  68
HETATM   68  O   UNK N   1      19.124  17.323   2.834  0.00  0.00    -0.348 OA
HETATM   69  H   UNK N   1      18.408  17.473   2.248  0.00  0.00     0.219 HD
ENDBRANCH  47  68
ENDBRANCH  44  46
ENDBRANCH  42  44
BRANCH  42  70
HETATM   70  O   UNK N   1      20.733  18.699   7.488  0.00  0.00    -0.348 OA
HETATM   71  H   UNK N   1      21.096  19.543   7.673  0.00  0.00     0.219 HD
ENDBRANCH  42  70
ENDBRANCH  40  41
ENDBRANCH   2  40
TORSDOF 26
ENDMDL
MODEL 4
REMARK VINA RESULT:      -8.1      8.036     12.195
REMARK  26 active torsions:
REMARK  status: ('A' for Active; 'I' for Inactive)
REMARK    1  A    between atoms: C_8  and  C_7 
REMARK    2  A    between atoms: C_9  and  C_7 
REMARK    3  A    between atoms: C_10  and  C_8 
REMARK    4  A    between atoms: C_11  and  C_9 
REMARK    5  A    between atoms: C_12  and  C_10 
REMARK    6  A    between atoms: C_13  and  C_11 
REMARK    7  A    between atoms: C_14  and  C_12 
REMARK    8  A    between atoms: C_24  and  C_13 
REMARK    9  A    between atoms: C_35  and  C_14 
REMARK   10  A    between atoms: C_36  and  C_22 
REMARK   11  A    between atoms: N_43  and  C_22 
REMARK   12  A    between atoms: C_32  and  C_23 
REMARK   13  A    between atoms: O_53  and  C_23 
REMARK   14  A    between atoms: C_38  and  C_25 
REMARK   15  A    between atoms: N_45  and  C_25 
REMARK   16  A    between atoms: C_31  and  C_42 
REMARK   17  A    between atoms: C_40  and  C_32 
REMARK   18  A    between atoms: C_32  and  N_51 
REMARK   19  A    between atoms: O_54  and  C_33 
REMARK   20  A    between atoms: O_55  and  C_34 
REMARK       I    between atoms: N_51  and  C_35 
REMARK       I    between atoms: N_52  and  C_36 
REMARK   21  A    between atoms: C_37  and  N_52 
REMARK   22  A    between atoms: O_58  and  C_38 
REMARK   23  A    between atoms: C_39  and  O_59 
REMARK   24  A    between atoms: C_40  and  O_60 
REMARK   25  A    between atoms: C_41  and  O_61 
REMARK   26  A    between atoms: O_63  and  C_42 
ROOT
HETATM    1  C   UNK N   1      24.333  11.385   0.063  0.00  0.00     0.154 C 
HETATM    2  C   UNK N   1      22.922  10.445   1.796  0.00  0.00     0.238 C 
HETATM    3  N   UNK N   1      23.656  11.518   1.333  0.00  0.00    -0.339 N 
HETATM    4  O   UNK N   1      22.804   9.448   1.093  0.00  0.00    -0.272 OA
ENDROOT
BRANCH   3   5
HETATM    5  C   UNK N   1      23.867  12.779   2.070  0.00  0.00     0.194 C 
HETATM    6  C   UNK N   1      25.271  13.369   2.085  0.00  0.00    -0.026 A 
HETATM    7  C   UNK N   1      26.425  12.592   1.950  0.00  0.00     0.012 A 
HETATM    8  C   UNK N   1      25.420  14.704   2.439  0.00  0.00     0.025 A 
HETATM    9  C   UNK N   1      27.684  13.188   2.020  0.00  0.00     0.038 A 
HETATM   10  C   UNK N   1      27.823  14.547   2.323  0.00  0.00     0.076 A 
HETATM   11  C   UNK N   1      26.667  15.336   2.587  0.00  0.00     0.011 A 
HETATM   12  C   UNK N   1      26.605  16.772   3.070  0.00  0.00     0.011 A 
HETATM   13  C   UNK N   1      25.310  17.306   3.193  0.00  0.00     0.022 A 
HETATM   14  C   UNK N   1      27.689  17.597   3.494  0.00  0.00     0.076 A 
HETATM   15  C   UNK N   1      25.060  18.564   3.712  0.00  0.00    -0.055 A 
HETATM   16  C   UNK N   1      26.126  19.359   4.121  0.00  0.00     0.010 A 
HETATM   17  C   UNK N   1      23.644  19.035   3.858  0.00  0.00     0.074 C 
HETATM   18  C   UNK N   1      27.433  18.879   4.004  0.00  0.00     0.038 A 
HETATM   19  C   UNK N   1      22.783  18.079   4.716  0.00  0.00     0.185 C 
HETATM   20  N   UNK N   1      22.427  16.859   3.975  0.00  0.00    -0.358 N 
HETATM   21  C   UNK N   1      21.359  16.684   3.253  0.00  0.00     0.135 C 
ATOM     22  HN  UNK N   1      23.078  16.077   4.034  1.00  0.00     0.162 HD
HETATM   23  C   UNK N   1      21.078  15.360   2.560  0.00  0.00     0.153 C 
HETATM   24  C   UNK N   1      19.795  14.783   3.132  0.00  0.00     0.041 C 
HETATM   25  N   UNK N   1      22.137  14.373   2.737  0.00  0.00    -0.361 N 
HETATM   26  C   UNK N   1      22.782  13.804   1.762  0.00  0.00     0.140 C 
ATOM     27  HN  UNK N   1      22.387  14.111   3.690  1.00  0.00     0.162 HD
BRANCH  10  28
HETATM   28  O   UNK N   1      29.063  15.048   2.362  0.00  0.00    -0.360 OA
HETATM   29  H   UNK N   1      29.793  14.528   2.092  0.00  0.00     0.217 HD
ENDBRANCH  10  28
BRANCH  19  30
HETATM   30  C   UNK N   1      21.584  18.791   5.310  0.00  0.00     0.163 C 
HETATM   31  O   UNK N   1      21.130  18.456   6.394  0.00  0.00    -0.648 OA
BRANCH  30  32
HETATM   32  O   UNK N   1      21.006  19.800   4.632  0.00  0.00    -0.775 OA
HETATM   33  H   UNK N   1      20.798  20.054   3.754  0.00  0.00     0.167 HD
ENDBRANCH  30  32
ENDBRANCH  19  30
BRANCH  21  34
HETATM   34  O   UNK N   1      20.451  17.674   3.118  0.00  0.00    -0.348 OA
HETATM   35  H   UNK N   1      19.540  17.629   2.903  0.00  0.00     0.219 HD
ENDBRANCH  21  34
BRANCH  26  36
HETATM   36  O   UNK N   1      22.519  14.123   0.476  0.00  0.00    -0.348 OA
HETATM   37  H   UNK N   1      22.373  14.637  -0.292  0.00  0.00     0.219 HD
ENDBRANCH  26  36
BRANCH  14  38
HETATM   38  O   UNK N   1      28.963  17.189   3.462  0.00  0.00    -0.360 OA
HETATM   39  H   UNK N   1      29.638  17.655   3.915  0.00  0.00     0.217 HD
ENDBRANCH  14  38
ENDBRANCH   3   5
BRANCH   2  40
HETATM   40  C   UNK N   1      22.236  10.455   3.134  0.00  0.00     0.224 C 
BRANCH  40  41
HETATM   41  N   UNK N   1      22.432   9.242   3.885  0.00  0.00    -0.364 N 
HETATM   42  C   UNK N   1      23.359   9.100   4.773  0.00  0.00     0.134 C 
ATOM     43  HN  UNK N   1      21.807   8.456   3.707  1.00  0.00     0.161 HD
BRANCH  42  44
HETATM   44  C   UNK N   1      24.297  10.242   5.172  0.00  0.00     0.153 C 
HETATM   45  C   UNK N   1      25.758   9.921   4.869  0.00  0.00     0.041 C 
BRANCH  44  46
HETATM   46  N   UNK N   1      24.156  10.638   6.573  0.00  0.00    -0.361 N 
HETATM   47  C   UNK N   1      23.550  11.683   7.054  0.00  0.00     0.137 C 
ATOM     48  HN  UNK N   1      24.585  10.016   7.258  1.00  0.00     0.162 HD
BRANCH  47  49
HETATM   49  C   UNK N   1      22.899  12.747   6.176  0.00  0.00     0.184 C 
BRANCH  49  50
HETATM   50  C   UNK N   1      21.364  12.753   6.261  0.00  0.00     0.198 C 
BRANCH  50  51
HETATM   51  O   UNK N   1      20.875  12.200   7.444  0.00  0.00    -0.398 OA
HETATM   52  H   UNK N   1      20.282  11.792   8.094  0.00  0.00     0.209 HD
ENDBRANCH  50  51
ENDBRANCH  49  50
BRANCH  49  53
HETATM   53  N   UNK N   1      23.497  14.069   6.369  0.00  0.00    -0.342 N 
HETATM   54  C   UNK N   1      22.666  15.101   6.961  0.00  0.00     0.153 C 
HETATM   55  C   UNK N   1      24.803  14.370   6.079  0.00  0.00     0.220 C 
HETATM   56  O   UNK N   1      25.548  13.535   5.585  0.00  0.00    -0.273 OA
BRANCH  55  57
HETATM   57  C   UNK N   1      25.370  15.707   6.454  0.00  0.00     0.103 C 
BRANCH  57  58
HETATM   58  C   UNK N   1      26.892  15.639   6.566  0.00  0.00     0.009 C 
BRANCH  58  59
HETATM   59  C   UNK N   1      27.513  16.969   7.010  0.00  0.00     0.000 C 
BRANCH  59  60
HETATM   60  C   UNK N   1      27.867  16.972   8.501  0.00  0.00     0.000 C 
BRANCH  60  61
HETATM   61  C   UNK N   1      28.241  18.367   9.007  0.00  0.00     0.000 C 
BRANCH  61  62
HETATM   62  C   UNK N   1      29.602  18.404   9.692  0.00  0.00     0.000 C 
BRANCH  62  63
HETATM   63  C   UNK N   1      30.732  18.410   8.678  0.00  0.00     0.000 C 
BRANCH  63  64
HETATM   64  C   UNK N   1      31.527  17.121   8.723  0.00  0.00     0.004 C 
BRANCH  64  65
HETATM   65  C   UNK N   1      32.104  16.840   7.347  0.00  0.00    -0.023 C 
HETATM   66  C   UNK N   1      31.085  17.190   6.284  0.00  0.00     0.009 C 
HETATM   67  C   UNK N   1      33.362  17.661   7.123  0.00  0.00     0.009 C 
ENDBRANCH  64  65
ENDBRANCH  63  64
ENDBRANCH  62  63
ENDBRANCH  61  62
ENDBRANCH  60  61
ENDBRANCH  59  60
ENDBRANCH  58  59
ENDBRANCH  57  58
ENDBRANCH  55  57
ENDBRANCH  49  53
ENDBRANCH  47  49
BRANCH  47  68
HETATM   68  O   UNK N   1      23.497  11.831   8.392  0.00  0.00    -0.348 OA
HETATM   69  H   UNK N   1      23.259  11.846   9.298  0.00  0.00     0.219 HD
ENDBRANCH  47  68
ENDBRANCH  44  46
ENDBRANCH  42  44
BRANCH  42  70
HETATM   70  O   UNK N   1      23.508   7.891   5.353  0.00  0.00    -0.348 OA
HETATM   71  H   UNK N   1      23.080   7.139   5.715  0.00  0.00     0.219 HD
ENDBRANCH  42  70
ENDBRANCH  40  41
ENDBRANCH   2  40
TORSDOF 26
ENDMDL
MODEL 5
REMARK VINA RESULT:      -8.1      1.603      2.637
REMARK  26 active torsions:
REMARK  status: ('A' for Active; 'I' for Inactive)
REMARK    1  A    between atoms: C_8  and  C_7 
REMARK    2  A    between atoms: C_9  and  C_7 
REMARK    3  A    between atoms: C_10  and  C_8 
REMARK    4  A    between atoms: C_11  and  C_9 
REMARK    5  A    between atoms: C_12  and  C_10 
REMARK    6  A    between atoms: C_13  and  C_11 
REMARK    7  A    between atoms: C_14  and  C_12 
REMARK    8  A    between atoms: C_24  and  C_13 
REMARK    9  A    between atoms: C_35  and  C_14 
REMARK   10  A    between atoms: C_36  and  C_22 
REMARK   11  A    between atoms: N_43  and  C_22 
REMARK   12  A    between atoms: C_32  and  C_23 
REMARK   13  A    between atoms: O_53  and  C_23 
REMARK   14  A    between atoms: C_38  and  C_25 
REMARK   15  A    between atoms: N_45  and  C_25 
REMARK   16  A    between atoms: C_31  and  C_42 
REMARK   17  A    between atoms: C_40  and  C_32 
REMARK   18  A    between atoms: C_32  and  N_51 
REMARK   19  A    between atoms: O_54  and  C_33 
REMARK   20  A    between atoms: O_55  and  C_34 
REMARK       I    between atoms: N_51  and  C_35 
REMARK       I    between atoms: N_52  and  C_36 
REMARK   21  A    between atoms: C_37  and  N_52 
REMARK   22  A    between atoms: O_58  and  C_38 
REMARK   23  A    between atoms: C_39  and  O_59 
REMARK   24  A    between atoms: C_40  and  O_60 
REMARK   25  A    between atoms: C_41  and  O_61 
REMARK   26  A    between atoms: O_63  and  C_42 
ROOT
HETATM    1  C   UNK N   1      34.316  18.539   8.335  0.00  0.00     0.154 C 
HETATM    2  C   UNK N   1      34.801  16.381   9.329  0.00  0.00     0.238 C 
HETATM    3  N   UNK N   1      34.071  17.116   8.418  0.00  0.00    -0.339 N 
HETATM    4  O   UNK N   1      35.678  16.932   9.984  0.00  0.00    -0.272 OA
ENDROOT
BRANCH   3   5
HETATM    5  C   UNK N   1      32.998  16.576   7.560  0.00  0.00     0.194 C 
HETATM    6  C   UNK N   1      31.630  17.242   7.626  0.00  0.00    -0.026 A 
HETATM    7  C   UNK N   1      31.164  17.914   8.760  0.00  0.00     0.012 A 
HETATM    8  C   UNK N   1      30.734  17.007   6.591  0.00  0.00     0.025 A 
HETATM    9  C   UNK N   1      29.882  18.462   8.773  0.00  0.00     0.038 A 
HETATM   10  C   UNK N   1      29.003  18.267   7.701  0.00  0.00     0.076 A 
HETATM   11  C   UNK N   1      29.411  17.481   6.585  0.00  0.00     0.011 A 
HETATM   12  C   UNK N   1      28.574  17.032   5.403  0.00  0.00     0.011 A 
HETATM   13  C   UNK N   1      29.269  16.301   4.422  0.00  0.00     0.022 A 
HETATM   14  C   UNK N   1      27.167  17.186   5.221  0.00  0.00     0.076 A 
HETATM   15  C   UNK N   1      28.646  15.729   3.327  0.00  0.00    -0.055 A 
HETATM   16  C   UNK N   1      27.273  15.887   3.161  0.00  0.00     0.010 A 
HETATM   17  C   UNK N   1      29.454  14.919   2.357  0.00  0.00     0.074 C 
HETATM   18  C   UNK N   1      26.542  16.618   4.100  0.00  0.00     0.038 A 
HETATM   19  C   UNK N   1      30.203  13.750   3.036  0.00  0.00     0.185 C 
HETATM   20  N   UNK N   1      31.370  14.223   3.796  0.00  0.00    -0.358 N 
HETATM   21  C   UNK N   1      32.584  14.340   3.345  0.00  0.00     0.135 C 
ATOM     22  HN  UNK N   1      31.212  14.485   4.770  1.00  0.00     0.162 HD
HETATM   23  C   UNK N   1      33.722  14.808   4.239  0.00  0.00     0.153 C 
HETATM   24  C   UNK N   1      34.740  13.687   4.344  0.00  0.00     0.041 C 
HETATM   25  N   UNK N   1      33.296  15.162   5.588  0.00  0.00    -0.361 N 
HETATM   26  C   UNK N   1      33.483  16.325   6.138  0.00  0.00     0.140 C 
ATOM     27  HN  UNK N   1      32.820  14.447   6.138  1.00  0.00     0.162 HD
BRANCH  10  28
HETATM   28  O   UNK N   1      27.794  18.833   7.782  0.00  0.00    -0.360 OA
HETATM   29  H   UNK N   1      27.218  18.829   7.043  0.00  0.00     0.217 HD
ENDBRANCH  10  28
BRANCH  19  30
HETATM   30  C   UNK N   1      30.539  12.654   2.045  0.00  0.00     0.163 C 
HETATM   31  O   UNK N   1      30.259  12.772   0.862  0.00  0.00    -0.648 OA
BRANCH  30  32
HETATM   32  O   UNK N   1      31.145  11.530   2.474  0.00  0.00    -0.775 OA
HETATM   33  H   UNK N   1      31.253  10.631   2.231  0.00  0.00     0.167 HD
ENDBRANCH  30  32
ENDBRANCH  19  30
BRANCH  21  34
HETATM   34  O   UNK N   1      32.875  14.024   2.065  0.00  0.00    -0.348 OA
HETATM   35  H   UNK N   1      32.383  13.528   1.442  0.00  0.00     0.219 HD
ENDBRANCH  21  34
BRANCH  26  36
HETATM   36  O   UNK N   1      34.083  17.325   5.457  0.00  0.00    -0.348 OA
HETATM   37  H   UNK N   1      34.757  17.855   5.080  0.00  0.00     0.219 HD
ENDBRANCH  26  36
BRANCH  14  38
HETATM   38  O   UNK N   1      26.391  17.826   6.102  0.00  0.00    -0.360 OA
HETATM   39  H   UNK N   1      25.543  17.501   6.336  0.00  0.00     0.217 HD
ENDBRANCH  14  38
ENDBRANCH   3   5
BRANCH   2  40
HETATM   40  C   UNK N   1      34.576  14.910   9.542  0.00  0.00     0.224 C 
BRANCH  40  41
HETATM   41  N   UNK N   1      34.237  14.574  10.901  0.00  0.00    -0.364 N 
HETATM   42  C   UNK N   1      34.765  13.585  11.541  0.00  0.00     0.134 C 
ATOM     43  HN  UNK N   1      33.543  15.147  11.381  1.00  0.00     0.161 HD
BRANCH  42  44
HETATM   44  C   UNK N   1      35.871  12.715  10.940  0.00  0.00     0.153 C 
HETATM   45  C   UNK N   1      37.190  13.471  10.802  0.00  0.00     0.041 C 
BRANCH  44  46
HETATM   46  N   UNK N   1      35.502  12.123   9.654  0.00  0.00    -0.361 N 
HETATM   47  C   UNK N   1      34.658  11.160   9.427  0.00  0.00     0.137 C 
ATOM     48  HN  UNK N   1      35.964  12.515   8.834  1.00  0.00     0.162 HD
BRANCH  47  49
HETATM   49  C   UNK N   1      33.919  10.421  10.537  0.00  0.00     0.184 C 
BRANCH  49  50
HETATM   50  C   UNK N   1      32.685   9.650  10.042  0.00  0.00     0.198 C 
BRANCH  50  51
HETATM   51  O   UNK N   1      31.809  10.435   9.291  0.00  0.00    -0.398 OA
HETATM   52  H   UNK N   1      31.035  10.956   9.028  0.00  0.00     0.209 HD
ENDBRANCH  50  51
ENDBRANCH  49  50
BRANCH  49  53
HETATM   53  N   UNK N   1      34.818   9.611  11.361  0.00  0.00    -0.342 N 
HETATM   54  C   UNK N   1      35.788   8.778  10.675  0.00  0.00     0.153 C 
HETATM   55  C   UNK N   1      34.837   9.639  12.731  0.00  0.00     0.220 C 
HETATM   56  O   UNK N   1      34.045  10.330  13.359  0.00  0.00    -0.273 OA
BRANCH  55  57
HETATM   57  C   UNK N   1      35.896   8.893  13.487  0.00  0.00     0.103 C 
BRANCH  57  58
HETATM   58  C   UNK N   1      35.983   9.386  14.931  0.00  0.00     0.009 C 
BRANCH  58  59
HETATM   59  C   UNK N   1      37.367   9.941  15.286  0.00  0.00     0.000 C 
BRANCH  59  60
HETATM   60  C   UNK N   1      37.694  11.219  14.507  0.00  0.00     0.000 C 
BRANCH  60  61
HETATM   61  C   UNK N   1      36.577  12.261  14.603  0.00  0.00     0.000 C 
BRANCH  61  62
HETATM   62  C   UNK N   1      36.919  13.412  15.542  0.00  0.00     0.000 C 
BRANCH  62  63
HETATM   63  C   UNK N   1      35.782  13.696  16.508  0.00  0.00     0.000 C 
BRANCH  63  64
HETATM   64  C   UNK N   1      34.998  12.440  16.829  0.00  0.00     0.004 C 
BRANCH  64  65
HETATM   65  C   UNK N   1      35.551  11.815  18.098  0.00  0.00    -0.023 C 
HETATM   66  C   UNK N   1      35.219  12.691  19.287  0.00  0.00     0.009 C 
HETATM   67  C   UNK N   1      34.954  10.435  18.312  0.00  0.00     0.009 C 
ENDBRANCH  64  65
ENDBRANCH  63  64
ENDBRANCH  62  63
ENDBRANCH  61  62
ENDBRANCH  60  61
ENDBRANCH  59  60
ENDBRANCH  58  59
ENDBRANCH  57  58
ENDBRANCH  55  57
ENDBRANCH  49  53
ENDBRANCH  47  49
BRANCH  47  68
HETATM   68  O   UNK N   1      34.430  10.799   8.150  0.00  0.00    -0.348 OA
HETATM   69  H   UNK N   1      34.456  10.665   7.222  0.00  0.00     0.219 HD
ENDBRANCH  47  68
ENDBRANCH  44  46
ENDBRANCH  42  44
BRANCH  42  70
HETATM   70  O   UNK N   1      34.308  13.308  12.779  0.00  0.00    -0.348 OA
HETATM   71  H   UNK N   1      33.981  12.652  13.364  0.00  0.00     0.219 HD
ENDBRANCH  42  70
ENDBRANCH  40  41
ENDBRANCH   2  40
TORSDOF 26
ENDMDL
MODEL 6
REMARK VINA RESULT:      -8.0      4.300      8.053
REMARK  26 active torsions:
REMARK  status: ('A' for Active; 'I' for Inactive)
REMARK    1  A    between atoms: C_8  and  C_7 
REMARK    2  A    between atoms: C_9  and  C_7 
REMARK    3  A    between atoms: C_10  and  C_8 
REMARK    4  A    between atoms: C_11  and  C_9 
REMARK    5  A    between atoms: C_12  and  C_10 
REMARK    6  A    between atoms: C_13  and  C_11 
REMARK    7  A    between atoms: C_14  and  C_12 
REMARK    8  A    between atoms: C_24  and  C_13 
REMARK    9  A    between atoms: C_35  and  C_14 
REMARK   10  A    between atoms: C_36  and  C_22 
REMARK   11  A    between atoms: N_43  and  C_22 
REMARK   12  A    between atoms: C_32  and  C_23 
REMARK   13  A    between atoms: O_53  and  C_23 
REMARK   14  A    between atoms: C_38  and  C_25 
REMARK   15  A    between atoms: N_45  and  C_25 
REMARK   16  A    between atoms: C_31  and  C_42 
REMARK   17  A    between atoms: C_40  and  C_32 
REMARK   18  A    between atoms: C_32  and  N_51 
REMARK   19  A    between atoms: O_54  and  C_33 
REMARK   20  A    between atoms: O_55  and  C_34 
REMARK       I    between atoms: N_51  and  C_35 
REMARK       I    between atoms: N_52  and  C_36 
REMARK   21  A    between atoms: C_37  and  N_52 
REMARK   22  A    between atoms: O_58  and  C_38 
REMARK   23  A    between atoms: C_39  and  O_59 
REMARK   24  A    between atoms: C_40  and  O_60 
REMARK   25  A    between atoms: C_41  and  O_61 
REMARK   26  A    between atoms: O_63  and  C_42 
ROOT
HETATM    1  C   UNK N   1      28.425  16.431   3.305  0.00  0.00     0.154 C 
HETATM    2  C   UNK N   1      28.611  16.167   5.707  0.00  0.00     0.238 C 
HETATM    3  N   UNK N   1      27.806  16.398   4.611  0.00  0.00    -0.339 N 
HETATM    4  O   UNK N   1      29.801  15.925   5.542  0.00  0.00    -0.272 OA
ENDROOT
BRANCH   3   5
HETATM    5  C   UNK N   1      26.360  16.687   4.668  0.00  0.00     0.194 C 
HETATM    6  C   UNK N   1      25.870  17.994   4.058  0.00  0.00    -0.026 A 
HETATM    7  C   UNK N   1      26.673  19.134   3.956  0.00  0.00     0.012 A 
HETATM    8  C   UNK N   1      24.518  18.119   3.770  0.00  0.00     0.025 A 
HETATM    9  C   UNK N   1      26.150  20.315   3.430  0.00  0.00     0.038 A 
HETATM   10  C   UNK N   1      24.795  20.416   3.090  0.00  0.00     0.076 A 
HETATM   11  C   UNK N   1      23.928  19.306   3.300  0.00  0.00     0.011 A 
HETATM   12  C   UNK N   1      22.421  19.253   3.138  0.00  0.00     0.011 A 
HETATM   13  C   UNK N   1      21.839  17.994   3.370  0.00  0.00     0.022 A 
HETATM   14  C   UNK N   1      21.535  20.338   2.871  0.00  0.00     0.076 A 
HETATM   15  C   UNK N   1      20.471  17.784   3.362  0.00  0.00    -0.055 A 
HETATM   16  C   UNK N   1      19.617  18.851   3.101  0.00  0.00     0.010 A 
HETATM   17  C   UNK N   1      19.932  16.419   3.674  0.00  0.00     0.074 C 
HETATM   18  C   UNK N   1      20.149  20.118   2.849  0.00  0.00     0.038 A 
HETATM   19  C   UNK N   1      20.403  15.891   5.048  0.00  0.00     0.185 C 
HETATM   20  N   UNK N   1      21.808  15.457   5.009  0.00  0.00    -0.358 N 
HETATM   21  C   UNK N   1      22.233  14.257   4.741  0.00  0.00     0.135 C 
ATOM     22  HN  UNK N   1      22.515  16.164   5.211  1.00  0.00     0.162 HD
HETATM   23  C   UNK N   1      23.715  13.917   4.767  0.00  0.00     0.153 C 
HETATM   24  C   UNK N   1      23.949  12.877   5.848  0.00  0.00     0.041 C 
HETATM   25  N   UNK N   1      24.572  15.063   5.048  0.00  0.00    -0.361 N 
HETATM   26  C   UNK N   1      25.524  15.479   4.265  0.00  0.00     0.140 C 
ATOM     27  HN  UNK N   1      24.415  15.571   5.917  1.00  0.00     0.162 HD
BRANCH  10  28
HETATM   28  O   UNK N   1      24.370  21.578   2.582  0.00  0.00    -0.360 OA
HETATM   29  H   UNK N   1      24.937  22.323   2.565  0.00  0.00     0.217 HD
ENDBRANCH  10  28
BRANCH  19  30
HETATM   30  C   UNK N   1      19.464  14.832   5.588  0.00  0.00     0.163 C 
HETATM   31  O   UNK N   1      19.606  14.385   6.717  0.00  0.00    -0.648 OA
BRANCH  30  32
HETATM   32  O   UNK N   1      18.465  14.368   4.814  0.00  0.00    -0.775 OA
HETATM   33  H   UNK N   1      17.581  14.573   4.578  0.00  0.00     0.167 HD
ENDBRANCH  30  32
ENDBRANCH  19  30
BRANCH  21  34
HETATM   34  O   UNK N   1      21.362  13.267   4.454  0.00  0.00    -0.348 OA
HETATM   35  H   UNK N   1      20.666  12.911   4.970  0.00  0.00     0.219 HD
ENDBRANCH  21  34
BRANCH  26  36
HETATM   36  O   UNK N   1      25.770  14.868   3.086  0.00  0.00    -0.348 OA
HETATM   37  H   UNK N   1      26.132  14.274   2.459  0.00  0.00     0.219 HD
ENDBRANCH  26  36
BRANCH  14  38
HETATM   38  O   UNK N   1      21.963  21.589   2.672  0.00  0.00    -0.360 OA
HETATM   39  H   UNK N   1      22.478  21.818   1.923  0.00  0.00     0.217 HD
ENDBRANCH  14  38
ENDBRANCH   3   5
BRANCH   2  40
HETATM   40  C   UNK N   1      28.079  16.179   7.114  0.00  0.00     0.224 C 
BRANCH  40  41
HETATM   41  N   UNK N   1      27.946  17.504   7.663  0.00  0.00    -0.364 N 
HETATM   42  C   UNK N   1      28.759  17.995   8.537  0.00  0.00     0.134 C 
ATOM     43  HN  UNK N   1      27.169  18.083   7.345  1.00  0.00     0.161 HD
BRANCH  42  44
HETATM   44  C   UNK N   1      30.000  17.240   9.020  0.00  0.00     0.153 C 
HETATM   45  C   UNK N   1      29.795  16.614  10.396  0.00  0.00     0.041 C 
BRANCH  44  46
HETATM   46  N   UNK N   1      31.208  18.064   9.025  0.00  0.00    -0.361 N 
HETATM   47  C   UNK N   1      32.362  17.800   8.485  0.00  0.00     0.137 C 
ATOM     48  HN  UNK N   1      31.137  18.957   9.512  1.00  0.00     0.162 HD
BRANCH  47  49
HETATM   49  C   UNK N   1      32.664  16.491   7.764  0.00  0.00     0.184 C 
BRANCH  49  50
HETATM   50  C   UNK N   1      33.567  16.665   6.533  0.00  0.00     0.198 C 
BRANCH  50  51
HETATM   51  O   UNK N   1      34.584  17.601   6.723  0.00  0.00    -0.398 OA
HETATM   52  H   UNK N   1      35.067  18.441   6.761  0.00  0.00     0.209 HD
ENDBRANCH  50  51
ENDBRANCH  49  50
BRANCH  49  53
HETATM   53  N   UNK N   1      33.127  15.446   8.681  0.00  0.00    -0.342 N 
HETATM   54  C   UNK N   1      32.374  14.206   8.718  0.00  0.00     0.153 C 
HETATM   55  C   UNK N   1      34.253  15.548   9.455  0.00  0.00     0.220 C 
HETATM   56  O   UNK N   1      34.927  16.570   9.456  0.00  0.00    -0.273 OA
BRANCH  55  57
HETATM   57  C   UNK N   1      34.734  14.369  10.246  0.00  0.00     0.103 C 
BRANCH  57  58
HETATM   58  C   UNK N   1      34.910  14.737  11.718  0.00  0.00     0.009 C 
BRANCH  58  59
HETATM   59  C   UNK N   1      36.044  13.957  12.393  0.00  0.00     0.000 C 
BRANCH  59  60
HETATM   60  C   UNK N   1      36.424  14.550  13.754  0.00  0.00     0.000 C 
BRANCH  60  61
HETATM   61  C   UNK N   1      36.590  13.476  14.831  0.00  0.00     0.000 C 
BRANCH  61  62
HETATM   62  C   UNK N   1      35.425  13.438  15.814  0.00  0.00     0.000 C 
BRANCH  62  63
HETATM   63  C   UNK N   1      34.499  12.268  15.531  0.00  0.00     0.000 C 
BRANCH  63  64
HETATM   64  C   UNK N   1      35.262  10.963  15.436  0.00  0.00     0.004 C 
BRANCH  64  65
HETATM   65  C   UNK N   1      34.563  10.045  14.448  0.00  0.00    -0.023 C 
HETATM   66  C   UNK N   1      34.132  10.836  13.232  0.00  0.00     0.009 C 
HETATM   67  C   UNK N   1      35.495   8.928  14.013  0.00  0.00     0.009 C 
ENDBRANCH  64  65
ENDBRANCH  63  64
ENDBRANCH  62  63
ENDBRANCH  61  62
ENDBRANCH  60  61
ENDBRANCH  59  60
ENDBRANCH  58  59
ENDBRANCH  57  58
ENDBRANCH  55  57
ENDBRANCH  49  53
ENDBRANCH  47  49
BRANCH  47  68
HETATM   68  O   UNK N   1      33.333  18.729   8.568  0.00  0.00    -0.348 OA
HETATM   69  H   UNK N   1      33.841  19.517   8.594  0.00  0.00     0.219 HD
ENDBRANCH  47  68
ENDBRANCH  44  46
ENDBRANCH  42  44
BRANCH  42  70
HETATM   70  O   UNK N   1      28.489  19.213   9.048  0.00  0.00    -0.348 OA
HETATM   71  H   UNK N   1      28.773  20.102   9.145  0.00  0.00     0.219 HD
ENDBRANCH  42  70
ENDBRANCH  40  41
ENDBRANCH   2  40
TORSDOF 26
ENDMDL
MODEL 7
REMARK VINA RESULT:      -7.8      1.786      2.720
REMARK  26 active torsions:
REMARK  status: ('A' for Active; 'I' for Inactive)
REMARK    1  A    between atoms: C_8  and  C_7 
REMARK    2  A    between atoms: C_9  and  C_7 
REMARK    3  A    between atoms: C_10  and  C_8 
REMARK    4  A    between atoms: C_11  and  C_9 
REMARK    5  A    between atoms: C_12  and  C_10 
REMARK    6  A    between atoms: C_13  and  C_11 
REMARK    7  A    between atoms: C_14  and  C_12 
REMARK    8  A    between atoms: C_24  and  C_13 
REMARK    9  A    between atoms: C_35  and  C_14 
REMARK   10  A    between atoms: C_36  and  C_22 
REMARK   11  A    between atoms: N_43  and  C_22 
REMARK   12  A    between atoms: C_32  and  C_23 
REMARK   13  A    between atoms: O_53  and  C_23 
REMARK   14  A    between atoms: C_38  and  C_25 
REMARK   15  A    between atoms: N_45  and  C_25 
REMARK   16  A    between atoms: C_31  and  C_42 
REMARK   17  A    between atoms: C_40  and  C_32 
REMARK   18  A    between atoms: C_32  and  N_51 
REMARK   19  A    between atoms: O_54  and  C_33 
REMARK   20  A    between atoms: O_55  and  C_34 
REMARK       I    between atoms: N_51  and  C_35 
REMARK       I    between atoms: N_52  and  C_36 
REMARK   21  A    between atoms: C_37  and  N_52 
REMARK   22  A    between atoms: O_58  and  C_38 
REMARK   23  A    between atoms: C_39  and  O_59 
REMARK   24  A    between atoms: C_40  and  O_60 
REMARK   25  A    between atoms: C_41  and  O_61 
REMARK   26  A    between atoms: O_63  and  C_42 
ROOT
HETATM    1  C   UNK N   1      34.453  18.541   8.237  0.00  0.00     0.154 C 
HETATM    2  C   UNK N   1      34.347  16.652   9.753  0.00  0.00     0.238 C 
HETATM    3  N   UNK N   1      33.906  17.250   8.592  0.00  0.00    -0.339 N 
HETATM    4  O   UNK N   1      35.234  17.188  10.408  0.00  0.00    -0.272 OA
ENDROOT
BRANCH   3   5
HETATM    5  C   UNK N   1      32.856  16.708   7.706  0.00  0.00     0.194 C 
HETATM    6  C   UNK N   1      31.492  17.384   7.722  0.00  0.00    -0.026 A 
HETATM    7  C   UNK N   1      30.995  18.071   8.834  0.00  0.00     0.012 A 
HETATM    8  C   UNK N   1      30.627  17.144   6.662  0.00  0.00     0.025 A 
HETATM    9  C   UNK N   1      29.717  18.628   8.800  0.00  0.00     0.038 A 
HETATM   10  C   UNK N   1      28.870  18.427   7.703  0.00  0.00     0.076 A 
HETATM   11  C   UNK N   1      29.307  17.627   6.609  0.00  0.00     0.011 A 
HETATM   12  C   UNK N   1      28.505  17.170   5.406  0.00  0.00     0.011 A 
HETATM   13  C   UNK N   1      29.225  16.425   4.456  0.00  0.00     0.022 A 
HETATM   14  C   UNK N   1      27.106  17.332   5.179  0.00  0.00     0.076 A 
HETATM   15  C   UNK N   1      28.633  15.846   3.347  0.00  0.00    -0.055 A 
HETATM   16  C   UNK N   1      27.267  16.011   3.136  0.00  0.00     0.010 A 
HETATM   17  C   UNK N   1      29.466  15.020   2.412  0.00  0.00     0.074 C 
HETATM   18  C   UNK N   1      26.512  16.757   4.045  0.00  0.00     0.038 A 
HETATM   19  C   UNK N   1      30.185  13.853   3.126  0.00  0.00     0.185 C 
HETATM   20  N   UNK N   1      31.331  14.327   3.917  0.00  0.00    -0.358 N 
HETATM   21  C   UNK N   1      32.559  14.432   3.503  0.00  0.00     0.135 C 
ATOM     22  HN  UNK N   1      31.144  14.600   4.883  1.00  0.00     0.162 HD
HETATM   23  C   UNK N   1      33.672  14.901   4.427  0.00  0.00     0.153 C 
HETATM   24  C   UNK N   1      34.679  13.775   4.576  0.00  0.00     0.041 C 
HETATM   25  N   UNK N   1      33.206  15.271   5.759  0.00  0.00    -0.361 N 
HETATM   26  C   UNK N   1      33.384  16.440   6.302  0.00  0.00     0.140 C 
ATOM     27  HN  UNK N   1      32.709  14.566   6.301  1.00  0.00     0.162 HD
BRANCH  10  28
HETATM   28  O   UNK N   1      27.663  19.001   7.741  0.00  0.00    -0.360 OA
HETATM   29  H   UNK N   1      27.047  18.853   7.052  0.00  0.00     0.217 HD
ENDBRANCH  10  28
BRANCH  19  30
HETATM   30  C   UNK N   1      30.544  12.745   2.157  0.00  0.00     0.163 C 
HETATM   31  O   UNK N   1      30.329  12.864   0.960  0.00  0.00    -0.648 OA
BRANCH  30  32
HETATM   32  O   UNK N   1      31.099  11.609   2.620  0.00  0.00    -0.775 OA
HETATM   33  H   UNK N   1      31.516  10.830   2.307  0.00  0.00     0.167 HD
ENDBRANCH  30  32
ENDBRANCH  19  30
BRANCH  21  34
HETATM   34  O   UNK N   1      32.888  14.100   2.236  0.00  0.00    -0.348 OA
HETATM   35  H   UNK N   1      32.568  13.406   1.694  0.00  0.00     0.219 HD
ENDBRANCH  21  34
BRANCH  26  36
HETATM   36  O   UNK N   1      34.012  17.428   5.630  0.00  0.00    -0.348 OA
HETATM   37  H   UNK N   1      34.647  18.081   5.412  0.00  0.00     0.219 HD
ENDBRANCH  26  36
BRANCH  14  38
HETATM   38  O   UNK N   1      26.307  17.987   6.028  0.00  0.00    -0.360 OA
HETATM   39  H   UNK N   1      26.544  18.114   6.926  0.00  0.00     0.217 HD
ENDBRANCH  14  38
ENDBRANCH   3   5
BRANCH   2  40
HETATM   40  C   UNK N   1      33.793  15.344  10.247  0.00  0.00     0.224 C 
BRANCH  40  41
HETATM   41  N   UNK N   1      33.357  14.472   9.187  0.00  0.00    -0.364 N 
HETATM   42  C   UNK N   1      33.856  13.299   8.982  0.00  0.00     0.134 C 
ATOM     43  HN  UNK N   1      32.616  14.799   8.566  1.00  0.00     0.161 HD
BRANCH  42  44
HETATM   44  C   UNK N   1      34.913  12.684   9.902  0.00  0.00     0.153 C 
HETATM   45  C   UNK N   1      35.696  11.569   9.215  0.00  0.00     0.041 C 
BRANCH  44  46
HETATM   46  N   UNK N   1      34.362  12.197  11.166  0.00  0.00    -0.361 N 
HETATM   47  C   UNK N   1      34.842  12.356  12.365  0.00  0.00     0.137 C 
ATOM     48  HN  UNK N   1      33.493  11.668  11.099  1.00  0.00     0.162 HD
BRANCH  47  49
HETATM   49  C   UNK N   1      36.157  13.073  12.647  0.00  0.00     0.184 C 
BRANCH  49  50
HETATM   50  C   UNK N   1      35.991  14.581  12.893  0.00  0.00     0.198 C 
BRANCH  50  51
HETATM   51  O   UNK N   1      36.710  15.369  11.994  0.00  0.00    -0.398 OA
HETATM   52  H   UNK N   1      37.440  15.743  11.477  0.00  0.00     0.209 HD
ENDBRANCH  50  51
ENDBRANCH  49  50
BRANCH  49  53
HETATM   53  N   UNK N   1      36.947  12.399  13.680  0.00  0.00    -0.342 N 
HETATM   54  C   UNK N   1      36.986  13.008  14.997  0.00  0.00     0.153 C 
HETATM   55  C   UNK N   1      37.598  11.208  13.493  0.00  0.00     0.220 C 
HETATM   56  O   UNK N   1      37.591  10.650  12.404  0.00  0.00    -0.273 OA
BRANCH  55  57
HETATM   57  C   UNK N   1      38.252  10.515  14.651  0.00  0.00     0.103 C 
BRANCH  57  58
HETATM   58  C   UNK N   1      38.897   9.204  14.206  0.00  0.00     0.009 C 
BRANCH  58  59
HETATM   59  C   UNK N   1      38.518   8.022  15.105  0.00  0.00     0.000 C 
BRANCH  59  60
HETATM   60  C   UNK N   1      37.005   7.927  15.327  0.00  0.00     0.000 C 
BRANCH  60  61
HETATM   61  C   UNK N   1      36.643   7.756  16.805  0.00  0.00     0.000 C 
BRANCH  61  62
HETATM   62  C   UNK N   1      35.294   8.370  17.159  0.00  0.00     0.000 C 
BRANCH  62  63
HETATM   63  C   UNK N   1      35.253   9.851  16.825  0.00  0.00     0.000 C 
BRANCH  63  64
HETATM   64  C   UNK N   1      36.103  10.661  17.781  0.00  0.00     0.004 C 
BRANCH  64  65
HETATM   65  C   UNK N   1      35.202  11.547  18.624  0.00  0.00    -0.023 C 
HETATM   66  C   UNK N   1      35.753  11.646  20.030  0.00  0.00     0.009 C 
HETATM   67  C   UNK N   1      35.116  12.939  18.023  0.00  0.00     0.009 C 
ENDBRANCH  64  65
ENDBRANCH  63  64
ENDBRANCH  62  63
ENDBRANCH  61  62
ENDBRANCH  60  61
ENDBRANCH  59  60
ENDBRANCH  58  59
ENDBRANCH  57  58
ENDBRANCH  55  57
ENDBRANCH  49  53
ENDBRANCH  47  49
BRANCH  47  68
HETATM   68  O   UNK N   1      34.141  11.862  13.403  0.00  0.00    -0.348 OA
HETATM   69  H   UNK N   1      33.677  11.327  14.017  0.00  0.00     0.219 HD
ENDBRANCH  47  68
ENDBRANCH  44  46
ENDBRANCH  42  44
BRANCH  42  70
HETATM   70  O   UNK N   1      33.433  12.604   7.906  0.00  0.00    -0.348 OA
HETATM   71  H   UNK N   1      33.423  11.777   7.464  0.00  0.00     0.219 HD
ENDBRANCH  42  70
ENDBRANCH  40  41
ENDBRANCH   2  40
TORSDOF 26
ENDMDL
MODEL 8
REMARK VINA RESULT:      -7.6      2.276      3.761
REMARK  26 active torsions:
REMARK  status: ('A' for Active; 'I' for Inactive)
REMARK    1  A    between atoms: C_8  and  C_7 
REMARK    2  A    between atoms: C_9  and  C_7 
REMARK    3  A    between atoms: C_10  and  C_8 
REMARK    4  A    between atoms: C_11  and  C_9 
REMARK    5  A    between atoms: C_12  and  C_10 
REMARK    6  A    between atoms: C_13  and  C_11 
REMARK    7  A    between atoms: C_14  and  C_12 
REMARK    8  A    between atoms: C_24  and  C_13 
REMARK    9  A    between atoms: C_35  and  C_14 
REMARK   10  A    between atoms: C_36  and  C_22 
REMARK   11  A    between atoms: N_43  and  C_22 
REMARK   12  A    between atoms: C_32  and  C_23 
REMARK   13  A    between atoms: O_53  and  C_23 
REMARK   14  A    between atoms: C_38  and  C_25 
REMARK   15  A    between atoms: N_45  and  C_25 
REMARK   16  A    between atoms: C_31  and  C_42 
REMARK   17  A    between atoms: C_40  and  C_32 
REMARK   18  A    between atoms: C_32  and  N_51 
REMARK   19  A    between atoms: O_54  and  C_33 
REMARK   20  A    between atoms: O_55  and  C_34 
REMARK       I    between atoms: N_51  and  C_35 
REMARK       I    between atoms: N_52  and  C_36 
REMARK   21  A    between atoms: C_37  and  N_52 
REMARK   22  A    between atoms: O_58  and  C_38 
REMARK   23  A    between atoms: C_39  and  O_59 
REMARK   24  A    between atoms: C_40  and  O_60 
REMARK   25  A    between atoms: C_41  and  O_61 
REMARK   26  A    between atoms: O_63  and  C_42 
ROOT
HETATM    1  C   UNK N   1      34.486  18.818   8.207  0.00  0.00     0.154 C 
HETATM    2  C   UNK N   1      34.814  16.896   9.649  0.00  0.00     0.238 C 
HETATM    3  N   UNK N   1      34.189  17.444   8.548  0.00  0.00    -0.339 N 
HETATM    4  O   UNK N   1      35.650  17.555  10.257  0.00  0.00    -0.272 OA
ENDROOT
BRANCH   3   5
HETATM    5  C   UNK N   1      33.177  16.759   7.721  0.00  0.00     0.194 C 
HETATM    6  C   UNK N   1      31.734  17.237   7.819  0.00  0.00    -0.026 A 
HETATM    7  C   UNK N   1      31.212  17.851   8.961  0.00  0.00     0.012 A 
HETATM    8  C   UNK N   1      30.852  16.875   6.809  0.00  0.00     0.025 A 
HETATM    9  C   UNK N   1      29.868  18.223   9.004  0.00  0.00     0.038 A 
HETATM   10  C   UNK N   1      28.996  17.903   7.957  0.00  0.00     0.076 A 
HETATM   11  C   UNK N   1      29.477  17.169   6.835  0.00  0.00     0.011 A 
HETATM   12  C   UNK N   1      28.678  16.602   5.677  0.00  0.00     0.011 A 
HETATM   13  C   UNK N   1      29.440  15.961   4.683  0.00  0.00     0.022 A 
HETATM   14  C   UNK N   1      27.260  16.566   5.531  0.00  0.00     0.076 A 
HETATM   15  C   UNK N   1      28.872  15.303   3.607  0.00  0.00    -0.055 A 
HETATM   16  C   UNK N   1      27.486  15.275   3.476  0.00  0.00     0.010 A 
HETATM   17  C   UNK N   1      29.756  14.599   2.621  0.00  0.00     0.074 C 
HETATM   18  C   UNK N   1      26.688  15.910   4.430  0.00  0.00     0.038 A 
HETATM   19  C   UNK N   1      30.671  13.546   3.287  0.00  0.00     0.185 C 
HETATM   20  N   UNK N   1      31.784  14.178   4.013  0.00  0.00    -0.358 N 
HETATM   21  C   UNK N   1      32.959  14.451   3.530  0.00  0.00     0.135 C 
ATOM     22  HN  UNK N   1      31.617  14.424   4.989  1.00  0.00     0.162 HD
HETATM   23  C   UNK N   1      34.047  15.075   4.392  0.00  0.00     0.153 C 
HETATM   24  C   UNK N   1      35.208  14.100   4.476  0.00  0.00     0.041 C 
HETATM   25  N   UNK N   1      33.611  15.379   5.750  0.00  0.00    -0.361 N 
HETATM   26  C   UNK N   1      33.655  16.563   6.288  0.00  0.00     0.140 C 
ATOM     27  HN  UNK N   1      33.249  14.613   6.315  1.00  0.00     0.162 HD
BRANCH  10  28
HETATM   28  O   UNK N   1      27.725  18.303   8.066  0.00  0.00    -0.360 OA
HETATM   29  H   UNK N   1      27.502  19.029   8.614  0.00  0.00     0.217 HD
ENDBRANCH  10  28
BRANCH  19  30
HETATM   30  C   UNK N   1      31.125  12.496   2.293  0.00  0.00     0.163 C 
HETATM   31  O   UNK N   1      30.867  12.605   1.103  0.00  0.00    -0.648 OA
BRANCH  30  32
HETATM   32  O   UNK N   1      31.814  11.423   2.725  0.00  0.00    -0.775 OA
HETATM   33  H   UNK N   1      32.388  11.166   3.421  0.00  0.00     0.167 HD
ENDBRANCH  30  32
ENDBRANCH  19  30
BRANCH  21  34
HETATM   34  O   UNK N   1      33.258  14.166   2.244  0.00  0.00    -0.348 OA
HETATM   35  H   UNK N   1      32.690  14.018   1.514  0.00  0.00     0.219 HD
ENDBRANCH  21  34
BRANCH  26  36
HETATM   36  O   UNK N   1      34.099  17.628   5.587  0.00  0.00    -0.348 OA
HETATM   37  H   UNK N   1      34.629  18.356   5.330  0.00  0.00     0.219 HD
ENDBRANCH  26  36
BRANCH  14  38
HETATM   38  O   UNK N   1      26.427  17.104   6.429  0.00  0.00    -0.360 OA
HETATM   39  H   UNK N   1      25.938  16.572   7.025  0.00  0.00     0.217 HD
ENDBRANCH  14  38
ENDBRANCH   3   5
BRANCH   2  40
HETATM   40  C   UNK N   1      34.525  15.501  10.128  0.00  0.00     0.224 C 
BRANCH  40  41
HETATM   41  N   UNK N   1      35.433  15.049  11.151  0.00  0.00    -0.364 N 
HETATM   42  C   UNK N   1      35.704  13.804  11.360  0.00  0.00     0.134 C 
ATOM     43  HN  UNK N   1      35.884  15.748  11.741  1.00  0.00     0.161 HD
BRANCH  42  44
HETATM   44  C   UNK N   1      35.144  12.683  10.481  0.00  0.00     0.153 C 
HETATM   45  C   UNK N   1      34.975  11.376  11.252  0.00  0.00     0.041 C 
BRANCH  44  46
HETATM   46  N   UNK N   1      35.936  12.448   9.275  0.00  0.00    -0.361 N 
HETATM   47  C   UNK N   1      35.533  11.984   8.128  0.00  0.00     0.137 C 
ATOM     48  HN  UNK N   1      36.928  12.677   9.340  1.00  0.00     0.162 HD
BRANCH  47  49
HETATM   49  C   UNK N   1      34.098  11.540   7.867  0.00  0.00     0.184 C 
BRANCH  49  50
HETATM   50  C   UNK N   1      33.555  11.998   6.504  0.00  0.00     0.198 C 
BRANCH  50  51
HETATM   51  O   UNK N   1      32.278  12.553   6.578  0.00  0.00    -0.398 OA
HETATM   52  H   UNK N   1      31.432  12.874   6.927  0.00  0.00     0.209 HD
ENDBRANCH  50  51
ENDBRANCH  49  50
BRANCH  49  53
HETATM   53  N   UNK N   1      33.904  10.111   8.119  0.00  0.00    -0.342 N 
HETATM   54  C   UNK N   1      34.992   9.215   7.769  0.00  0.00     0.153 C 
HETATM   55  C   UNK N   1      32.790   9.581   8.715  0.00  0.00     0.220 C 
HETATM   56  O   UNK N   1      31.847  10.293   9.036  0.00  0.00    -0.273 OA
BRANCH  55  57
HETATM   57  C   UNK N   1      32.745   8.125   9.074  0.00  0.00     0.103 C 
BRANCH  57  58
HETATM   58  C   UNK N   1      32.622   7.942  10.585  0.00  0.00     0.009 C 
BRANCH  58  59
HETATM   59  C   UNK N   1      33.935   8.221  11.325  0.00  0.00     0.000 C 
BRANCH  59  60
HETATM   60  C   UNK N   1      34.921   7.053  11.215  0.00  0.00     0.000 C 
BRANCH  60  61
HETATM   61  C   UNK N   1      35.945   7.047  12.351  0.00  0.00     0.000 C 
BRANCH  61  62
HETATM   62  C   UNK N   1      35.852   8.282  13.241  0.00  0.00     0.000 C 
BRANCH  62  63
HETATM   63  C   UNK N   1      35.820   7.904  14.711  0.00  0.00     0.000 C 
BRANCH  63  64
HETATM   64  C   UNK N   1      35.376   9.067  15.575  0.00  0.00     0.004 C 
BRANCH  64  65
HETATM   65  C   UNK N   1      35.130  10.279  14.694  0.00  0.00    -0.023 C 
HETATM   66  C   UNK N   1      33.666  10.659  14.745  0.00  0.00     0.009 C 
HETATM   67  C   UNK N   1      35.968  11.455  15.166  0.00  0.00     0.009 C 
ENDBRANCH  64  65
ENDBRANCH  63  64
ENDBRANCH  62  63
ENDBRANCH  61  62
ENDBRANCH  60  61
ENDBRANCH  59  60
ENDBRANCH  58  59
ENDBRANCH  57  58
ENDBRANCH  55  57
ENDBRANCH  49  53
ENDBRANCH  47  49
BRANCH  47  68
HETATM   68  O   UNK N   1      36.429  11.893   7.126  0.00  0.00    -0.348 OA
HETATM   69  H   UNK N   1      36.914  11.971   6.328  0.00  0.00     0.219 HD
ENDBRANCH  47  68
ENDBRANCH  44  46
ENDBRANCH  42  44
BRANCH  42  70
HETATM   70  O   UNK N   1      36.500  13.489  12.402  0.00  0.00    -0.348 OA
HETATM   71  H   UNK N   1      36.714  13.652  13.301  0.00  0.00     0.219 HD
ENDBRANCH  42  70
ENDBRANCH  40  41
ENDBRANCH   2  40
TORSDOF 26
ENDMDL
MODEL 9
REMARK VINA RESULT:      -7.5      1.277      2.162
REMARK  26 active torsions:
REMARK  status: ('A' for Active; 'I' for Inactive)
REMARK    1  A    between atoms: C_8  and  C_7 
REMARK    2  A    between atoms: C_9  and  C_7 
REMARK    3  A    between atoms: C_10  and  C_8 
REMARK    4  A    between atoms: C_11  and  C_9 
REMARK    5  A    between atoms: C_12  and  C_10 
REMARK    6  A    between atoms: C_13  and  C_11 
REMARK    7  A    between atoms: C_14  and  C_12 
REMARK    8  A    between atoms: C_24  and  C_13 
REMARK    9  A    between atoms: C_35  and  C_14 
REMARK   10  A    between atoms: C_36  and  C_22 
REMARK   11  A    between atoms: N_43  and  C_22 
REMARK   12  A    between atoms: C_32  and  C_23 
REMARK   13  A    between atoms: O_53  and  C_23 
REMARK   14  A    between atoms: C_38  and  C_25 
REMARK   15  A    between atoms: N_45  and  C_25 
REMARK   16  A    between atoms: C_31  and  C_42 
REMARK   17  A    between atoms: C_40  and  C_32 
REMARK   18  A    between atoms: C_32  and  N_51 
REMARK   19  A    between atoms: O_54  and  C_33 
REMARK   20  A    between atoms: O_55  and  C_34 
REMARK       I    between atoms: N_51  and  C_35 
REMARK       I    between atoms: N_52  and  C_36 
REMARK   21  A    between atoms: C_37  and  N_52 
REMARK   22  A    between atoms: O_58  and  C_38 
REMARK   23  A    between atoms: C_39  and  O_59 
REMARK   24  A    between atoms: C_40  and  O_60 
REMARK   25  A    between atoms: C_41  and  O_61 
REMARK   26  A    between atoms: O_63  and  C_42 
ROOT
HETATM    1  C   UNK N   1      34.560  18.753   8.312  0.00  0.00     0.154 C 
HETATM    2  C   UNK N   1      34.836  16.783   9.697  0.00  0.00     0.238 C 
HETATM    3  N   UNK N   1      34.222  17.380   8.617  0.00  0.00    -0.339 N 
HETATM    4  O   UNK N   1      35.696  17.398  10.318  0.00  0.00    -0.272 OA
ENDROOT
BRANCH   3   5
HETATM    5  C   UNK N   1      33.184  16.750   7.778  0.00  0.00     0.194 C 
HETATM    6  C   UNK N   1      31.769  17.310   7.854  0.00  0.00    -0.026 A 
HETATM    7  C   UNK N   1      31.267  17.957   8.987  0.00  0.00     0.012 A 
HETATM    8  C   UNK N   1      30.882  16.995   6.834  0.00  0.00     0.025 A 
HETATM    9  C   UNK N   1      29.947  18.405   9.011  0.00  0.00     0.038 A 
HETATM   10  C   UNK N   1      29.072  18.131   7.952  0.00  0.00     0.076 A 
HETATM   11  C   UNK N   1      29.526  17.366   6.840  0.00  0.00     0.011 A 
HETATM   12  C   UNK N   1      28.712  16.841   5.672  0.00  0.00     0.011 A 
HETATM   13  C   UNK N   1      29.449  16.154   4.691  0.00  0.00     0.022 A 
HETATM   14  C   UNK N   1      27.296  16.885   5.507  0.00  0.00     0.076 A 
HETATM   15  C   UNK N   1      28.859  15.525   3.609  0.00  0.00    -0.055 A 
HETATM   16  C   UNK N   1      27.476  15.575   3.459  0.00  0.00     0.010 A 
HETATM   17  C   UNK N   1      29.715  14.768   2.638  0.00  0.00     0.074 C 
HETATM   18  C   UNK N   1      26.702  16.259   4.400  0.00  0.00     0.038 A 
HETATM   19  C   UNK N   1      30.560  13.668   3.319  0.00  0.00     0.185 C 
HETATM   20  N   UNK N   1      31.696  14.238   4.059  0.00  0.00    -0.358 N 
HETATM   21  C   UNK N   1      32.892  14.443   3.591  0.00  0.00     0.135 C 
ATOM     22  HN  UNK N   1      31.530  14.497   5.032  1.00  0.00     0.162 HD
HETATM   23  C   UNK N   1      34.001  15.006   4.466  0.00  0.00     0.153 C 
HETATM   24  C   UNK N   1      35.104  13.968   4.570  0.00  0.00     0.041 C 
HETATM   25  N   UNK N   1      33.566  15.341   5.817  0.00  0.00    -0.361 N 
HETATM   26  C   UNK N   1      33.669  16.522   6.352  0.00  0.00     0.140 C 
ATOM     27  HN  UNK N   1      33.153  14.598   6.380  1.00  0.00     0.162 HD
BRANCH  10  28
HETATM   28  O   UNK N   1      27.824  18.603   8.043  0.00  0.00    -0.360 OA
HETATM   29  H   UNK N   1      27.621  19.292   8.643  0.00  0.00     0.217 HD
ENDBRANCH  10  28
BRANCH  19  30
HETATM   30  C   UNK N   1      30.967  12.589   2.335  0.00  0.00     0.163 C 
HETATM   31  O   UNK N   1      30.740  12.713   1.141  0.00  0.00    -0.648 OA
BRANCH  30  32
HETATM   32  O   UNK N   1      31.579  11.476   2.782  0.00  0.00    -0.775 OA
HETATM   33  H   UNK N   1      32.065  11.167   3.521  0.00  0.00     0.167 HD
ENDBRANCH  30  32
ENDBRANCH  19  30
BRANCH  21  34
HETATM   34  O   UNK N   1      33.192  14.135   2.311  0.00  0.00    -0.348 OA
HETATM   35  H   UNK N   1      33.948  13.712   1.956  0.00  0.00     0.219 HD
ENDBRANCH  21  34
BRANCH  26  36
HETATM   36  O   UNK N   1      34.183  17.557   5.653  0.00  0.00    -0.348 OA
HETATM   37  H   UNK N   1      34.432  18.431   5.427  0.00  0.00     0.219 HD
ENDBRANCH  26  36
BRANCH  14  38
HETATM   38  O   UNK N   1      26.483  17.474   6.391  0.00  0.00    -0.360 OA
HETATM   39  H   UNK N   1      26.271  17.067   7.209  0.00  0.00     0.217 HD
ENDBRANCH  14  38
ENDBRANCH   3   5
BRANCH   2  40
HETATM   40  C   UNK N   1      34.506  15.384  10.140  0.00  0.00     0.224 C 
BRANCH  40  41
HETATM   41  N   UNK N   1      35.116  14.368   9.322  0.00  0.00    -0.364 N 
HETATM   42  C   UNK N   1      35.912  13.464   9.788  0.00  0.00     0.134 C 
ATOM     43  HN  UNK N   1      34.908  14.361   8.323  1.00  0.00     0.161 HD
BRANCH  42  44
HETATM   44  C   UNK N   1      36.225  13.336  11.281  0.00  0.00     0.153 C 
HETATM   45  C   UNK N   1      37.502  12.540  11.535  0.00  0.00     0.041 C 
BRANCH  44  46
HETATM   46  N   UNK N   1      35.122  12.765  12.052  0.00  0.00    -0.361 N 
HETATM   47  C   UNK N   1      35.074  12.531  13.331  0.00  0.00     0.137 C 
ATOM     48  HN  UNK N   1      34.286  12.521  11.522  1.00  0.00     0.162 HD
BRANCH  47  49
HETATM   49  C   UNK N   1      36.250  12.785  14.269  0.00  0.00     0.184 C 
BRANCH  49  50
HETATM   50  C   UNK N   1      36.424  14.265  14.643  0.00  0.00     0.198 C 
BRANCH  50  51
HETATM   51  O   UNK N   1      37.599  14.520  15.351  0.00  0.00    -0.398 OA
HETATM   52  H   UNK N   1      38.251  14.943  15.930  0.00  0.00     0.209 HD
ENDBRANCH  50  51
ENDBRANCH  49  50
BRANCH  49  53
HETATM   53  N   UNK N   1      36.239  11.890  15.428  0.00  0.00    -0.342 N 
HETATM   54  C   UNK N   1      37.135  10.748  15.401  0.00  0.00     0.153 C 
HETATM   55  C   UNK N   1      35.483  12.098  16.551  0.00  0.00     0.220 C 
HETATM   56  O   UNK N   1      34.716  13.049  16.628  0.00  0.00    -0.273 OA
BRANCH  55  57
HETATM   57  C   UNK N   1      35.653  11.214  17.751  0.00  0.00     0.103 C 
BRANCH  57  58
HETATM   58  C   UNK N   1      35.541  12.022  19.042  0.00  0.00     0.009 C 
BRANCH  58  59
HETATM   59  C   UNK N   1      34.641  11.350  20.086  0.00  0.00     0.000 C 
BRANCH  59  60
HETATM   60  C   UNK N   1      35.092   9.922  20.405  0.00  0.00     0.000 C 
BRANCH  60  61
HETATM   61  C   UNK N   1      34.841   9.545  21.866  0.00  0.00     0.000 C 
BRANCH  61  62
HETATM   62  C   UNK N   1      33.360   9.515  22.225  0.00  0.00     0.000 C 
BRANCH  62  63
HETATM   63  C   UNK N   1      32.563   8.702  21.219  0.00  0.00     0.000 C 
BRANCH  63  64
HETATM   64  C   UNK N   1      32.192   7.342  21.772  0.00  0.00     0.004 C 
BRANCH  64  65
HETATM   65  C   UNK N   1      30.984   6.809  21.020  0.00  0.00    -0.023 C 
HETATM   66  C   UNK N   1      30.580   7.789  19.941  0.00  0.00     0.009 C 
HETATM   67  C   UNK N   1      31.307   5.469  20.382  0.00  0.00     0.009 C 
ENDBRANCH  64  65
ENDBRANCH  63  64
ENDBRANCH  62  63
ENDBRANCH  61  62
ENDBRANCH  60  61
ENDBRANCH  59  60
ENDBRANCH  58  59
ENDBRANCH  57  58
ENDBRANCH  55  57
ENDBRANCH  49  53
ENDBRANCH  47  49
BRANCH  47  68
HETATM   68  O   UNK N   1      33.931  12.042  13.848  0.00  0.00    -0.348 OA
HETATM   69  H   UNK N   1      33.042  11.857  14.082  0.00  0.00     0.219 HD
ENDBRANCH  47  68
ENDBRANCH  44  46
ENDBRANCH  42  44
BRANCH  42  70
HETATM   70  O   UNK N   1      36.495  12.615   8.917  0.00  0.00    -0.348 OA
HETATM   71  H   UNK N   1      36.680  11.722   8.700  0.00  0.00     0.219 HD
ENDBRANCH  42  70
ENDBRANCH  40  41
ENDBRANCH   2  40
TORSDOF 26
ENDMDL
