MODEL 1
REMARK VINA RESULT:      -6.5      0.000      0.000
REMARK WARNING: 32 MAX_TORS EXCEEDED!!!
REMARK  33 active torsions:
REMARK  status: ('A' for Active; 'I' for Inactive)
REMARK    1  A    between atoms: C_4  and  C_3 
REMARK    2  A    between atoms: C_14  and  C_3 
REMARK    3  A    between atoms: N_31  and  C_4 
REMARK    4  A    between atoms: C_6  and  C_5 
REMARK    5  A    between atoms: N_29  and  C_5 
REMARK    6  A    between atoms: S_60  and  C_6 
REMARK    7  A    between atoms: C_12  and  C_7 
REMARK    8  A    between atoms: O_52  and  C_7 
REMARK    9  A    between atoms: C_13  and  C_8 
REMARK   10  A    between atoms: S_60  and  C_8 
REMARK   11  A    between atoms: C_23  and  C_9 
REMARK   12  A    between atoms: O_53  and  C_9 
REMARK   13  A    between atoms: C_24  and  C_13 
REMARK   14  A    between atoms: N_29  and  C_14 
REMARK   15  A    between atoms: O_41  and  C_14 
REMARK   16  A    between atoms: C_16  and  O_42 
REMARK   17  A    between atoms: C_17  and  O_55 
REMARK   18  A    between atoms: C_21  and  C_18 
REMARK   19  A    between atoms: C_23  and  C_18 
REMARK   20  A    between atoms: C_18  and  O_43 
REMARK   21  A    between atoms: N_28  and  C_19 
REMARK   22  A    between atoms: N_31  and  C_21 
REMARK   23  A    between atoms: O_44  and  C_21 
REMARK   24  A    between atoms: C_22  and  N_39 
REMARK   25  A    between atoms: P_57  and  O_45 
REMARK   26  A    between atoms: P_57  and  O_46 
REMARK   27  A    between atoms: P_58  and  O_48 
REMARK   28  A    between atoms: P_59  and  O_50 
REMARK   29  A    between atoms: P_58  and  O_52 
REMARK   30  A    between atoms: P_59  and  O_53 
REMARK   31  A    between atoms: P_57  and  O_55 
REMARK   32  A    between atoms: P_58  and  O_56 
REMARK   33  A    between atoms: P_59  and  O_56 
ROOT
HETATM    1  O   UNK N   1      20.833  16.254   4.742  0.00  0.00    -0.195 OA
ENDROOT
BRANCH   1   2
HETATM    2  P   UNK N   1      21.511  16.622   6.310  0.00  0.00     0.401 P 
HETATM    3  O   UNK N   1      21.593  18.169   6.410  0.00  0.00    -0.631 OA
BRANCH   2   4
HETATM    4  O   UNK N   1      20.464  16.136   7.608  0.00  0.00    -0.307 OA
HETATM    5  H   UNK N   1      20.059  16.151   8.489  0.00  0.00     0.222 HD
ENDBRANCH   2   4
BRANCH   2   6
HETATM    6  O   UNK N   1      23.124  16.017   6.556  0.00  0.00    -0.294 OA
BRANCH   6   7
HETATM    7  C   UNK N   1      23.529  15.421   5.356  0.00  0.00     0.215 C 
BRANCH   7   8
HETATM    8  C   UNK N   1      24.930  15.891   4.938  0.00  0.00     0.180 C 
HETATM    9  C   UNK N   1      25.554  15.043   3.820  0.00  0.00     0.197 C 
HETATM   10  C   UNK N   1      26.991  15.420   4.003  0.00  0.00     0.199 C 
HETATM   11  C   UNK N   1      27.049  15.312   5.531  0.00  0.00     0.262 C 
HETATM   12  O   UNK N   1      25.843  15.876   6.026  0.00  0.00    -0.353 OA
BRANCH   9  13
HETATM   13  O   UNK N   1      25.096  15.367   2.525  0.00  0.00    -0.286 OA
BRANCH  13  14
HETATM   14  P   UNK N   1      24.628  13.908   1.680  0.00  0.00     0.391 P 
HETATM   15  O   UNK N   1      25.895  13.029   1.526  0.00  0.00    -0.632 OA
BRANCH  14  16
HETATM   16  O   UNK N   1      23.985  14.211   0.093  0.00  0.00    -0.307 OA
HETATM   17  H   UNK N   1      23.831  14.709  -0.725  0.00  0.00     0.222 HD
ENDBRANCH  14  16
BRANCH  14  18
HETATM   18  O   UNK N   1      23.496  12.986   2.616  0.00  0.00    -0.307 OA
HETATM   19  H   UNK N   1      23.792  12.200   3.101  0.00  0.00     0.222 HD
ENDBRANCH  14  18
ENDBRANCH  13  14
ENDBRANCH   9  13
BRANCH  10  20
HETATM   20  O   UNK N   1      27.178  16.749   3.591  0.00  0.00    -0.388 OA
HETATM   21  H   UNK N   1      27.175  17.459   2.932  0.00  0.00     0.210 HD
ENDBRANCH  10  20
BRANCH  11  22
HETATM   22  N   UNK N   1      28.229  15.941   6.148  0.00  0.00    -0.297 N 
HETATM   23  C   UNK N   1      29.462  15.979   5.577  0.00  0.00     0.188 A 
HETATM   24  N   UNK N   1      30.360  16.636   6.363  0.00  0.00    -0.346 N 
HETATM   25  C   UNK N   1      29.646  17.026   7.432  0.00  0.00     0.122 A 
ATOM     26  HN  UNK N   1      31.351  16.797   6.180  1.00  0.00     0.167 HD
HETATM   27  C   UNK N   1      30.041  17.753   8.545  0.00  0.00     0.131 A 
HETATM   28  C   UNK N   1      28.369  16.614   7.307  0.00  0.00     0.142 A 
HETATM   29  N   UNK N   1      29.099  18.042   9.489  0.00  0.00    -0.337 N 
HETATM   30  C   UNK N   1      27.798  17.625   9.339  0.00  0.00     0.183 A 
ATOM     31  HN  UNK N   1      29.363  18.574  10.318  1.00  0.00     0.168 HD
HETATM   32  N   UNK N   1      27.424  16.903   8.236  0.00  0.00    -0.336 N 
ATOM     33  HN  UNK N   1      26.460  16.593   8.116  1.00  0.00     0.168 HD
BRANCH  27  34
HETATM   34  N   UNK N   1      31.372  18.191   8.699  0.00  0.00    -0.383 N 
HETATM   35  H   UNK N   1      31.806  18.711   7.986  0.00  0.00     0.157 HD
HETATM   36  H   UNK N   1      31.868  17.976   9.522  0.00  0.00     0.157 HD
ENDBRANCH  27  34
ENDBRANCH  11  22
ENDBRANCH   7   8
ENDBRANCH   6   7
ENDBRANCH   2   6
ENDBRANCH   1   2
BRANCH   1  37
HETATM   37  P   UNK N   1      19.528  15.122   4.993  0.00  0.00     0.401 P 
HETATM   38  O   UNK N   1      18.381  15.949   5.637  0.00  0.00    -0.631 OA
BRANCH  37  39
HETATM   39  O   UNK N   1      19.960  13.884   6.129  0.00  0.00    -0.307 OA
HETATM   40  H   UNK N   1      19.726  13.156   6.726  0.00  0.00     0.222 HD
ENDBRANCH  37  39
BRANCH  37  41
HETATM   41  O   UNK N   1      18.931  14.479   3.486  0.00  0.00    -0.296 OA
BRANCH  41  42
HETATM   42  C   UNK N   1      19.983  13.792   2.853  0.00  0.00     0.192 C 
BRANCH  42  43
HETATM   43  C   UNK N   1      20.101  14.162   1.362  0.00  0.00     0.008 C 
HETATM   44  C   UNK N   1      20.805  13.048   0.607  0.00  0.00     0.020 C 
HETATM   45  C   UNK N   1      18.716  14.302   0.751  0.00  0.00     0.020 C 
BRANCH  43  46
HETATM   46  C   UNK N   1      20.928  15.456   1.140  0.00  0.00     0.202 C 
BRANCH  46  47
HETATM   47  C   UNK N   1      20.176  16.766   1.128  0.00  0.00     0.141 C 
BRANCH  47  48
HETATM   48  N   UNK N   1      19.529  17.181   2.162  0.00  0.00    -0.372 N 
ATOM     49  HN  UNK N   1      19.357  16.540   2.936  1.00  0.00     0.161 HD
BRANCH  48  50
HETATM   50  C   UNK N   1      19.040  18.537   2.242  0.00  0.00     0.129 C 
BRANCH  50  51
HETATM   51  C   UNK N   1      19.989  19.415   3.044  0.00  0.00     0.103 C 
BRANCH  51  52
HETATM   52  C   UNK N   1      20.769  20.334   2.165  0.00  0.00     0.112 C 
BRANCH  52  53
HETATM   53  N   UNK N   1      21.623  21.136   2.697  0.00  0.00    -0.374 N 
ATOM     54  HN  UNK N   1      21.285  21.887   3.298  1.00  0.00     0.161 HD
BRANCH  53  55
HETATM   55  C   UNK N   1      23.040  21.009   2.469  0.00  0.00     0.131 C 
BRANCH  55  56
HETATM   56  C   UNK N   1      23.622  19.932   3.364  0.00  0.00     0.094 C 
BRANCH  56  57
HETATM   57  S   UNK N   1      25.431  20.032   3.288  0.00  0.00    -0.160 SA
BRANCH  57  58
HETATM   58  C   UNK N   1      25.655  19.411   4.981  0.00  0.00     0.162 C 
BRANCH  58  59
HETATM   59  C   UNK N   1      27.037  19.734   5.457  0.00  0.00     0.241 C 
HETATM   60  O   UNK N   1      27.986  19.168   4.939  0.00  0.00    -0.287 OA
BRANCH  59  61
HETATM   61  C   UNK N   1      27.266  20.734   6.558  0.00  0.00     0.451 C 
HETATM   62  F   UNK N   1      27.775  21.903   6.024  0.00  0.00    -0.163 F 
HETATM   63  F   UNK N   1      26.076  21.018   7.206  0.00  0.00    -0.163 F 
HETATM   64  F   UNK N   1      28.161  20.233   7.485  0.00  0.00    -0.163 F 
ENDBRANCH  59  61
ENDBRANCH  58  59
ENDBRANCH  57  58
ENDBRANCH  56  57
ENDBRANCH  55  56
ENDBRANCH  53  55
ENDBRANCH  52  53
BRANCH  52  65
HETATM   65  O   UNK N   1      20.583  20.304   0.827  0.00  0.00    -0.350 OA
HETATM   66  H   UNK N   1      20.065  20.469   0.065  0.00  0.00     0.219 HD
ENDBRANCH  52  65
ENDBRANCH  51  52
ENDBRANCH  50  51
ENDBRANCH  48  50
ENDBRANCH  47  48
BRANCH  47  67
HETATM   67  O   UNK N   1      20.188  17.502  -0.006  0.00  0.00    -0.348 OA
HETATM   68  H   UNK N   1      20.908  18.069  -0.202  0.00  0.00     0.219 HD
ENDBRANCH  47  67
ENDBRANCH  46  47
BRANCH  46  69
HETATM   69  O   UNK N   1      21.941  15.539   2.101  0.00  0.00    -0.387 OA
HETATM   70  H   UNK N   1      22.723  15.025   2.355  0.00  0.00     0.210 HD
ENDBRANCH  46  69
ENDBRANCH  43  46
ENDBRANCH  42  43
ENDBRANCH  41  42
ENDBRANCH  37  41
ENDBRANCH   1  37
TORSDOF 33
ENDMDL
MODEL 2
REMARK VINA RESULT:      -6.2      9.020     12.689
REMARK WARNING: 32 MAX_TORS EXCEEDED!!!
REMARK  33 active torsions:
REMARK  status: ('A' for Active; 'I' for Inactive)
REMARK    1  A    between atoms: C_4  and  C_3 
REMARK    2  A    between atoms: C_14  and  C_3 
REMARK    3  A    between atoms: N_31  and  C_4 
REMARK    4  A    between atoms: C_6  and  C_5 
REMARK    5  A    between atoms: N_29  and  C_5 
REMARK    6  A    between atoms: S_60  and  C_6 
REMARK    7  A    between atoms: C_12  and  C_7 
REMARK    8  A    between atoms: O_52  and  C_7 
REMARK    9  A    between atoms: C_13  and  C_8 
REMARK   10  A    between atoms: S_60  and  C_8 
REMARK   11  A    between atoms: C_23  and  C_9 
REMARK   12  A    between atoms: O_53  and  C_9 
REMARK   13  A    between atoms: C_24  and  C_13 
REMARK   14  A    between atoms: N_29  and  C_14 
REMARK   15  A    between atoms: O_41  and  C_14 
REMARK   16  A    between atoms: C_16  and  O_42 
REMARK   17  A    between atoms: C_17  and  O_55 
REMARK   18  A    between atoms: C_21  and  C_18 
REMARK   19  A    between atoms: C_23  and  C_18 
REMARK   20  A    between atoms: C_18  and  O_43 
REMARK   21  A    between atoms: N_28  and  C_19 
REMARK   22  A    between atoms: N_31  and  C_21 
REMARK   23  A    between atoms: O_44  and  C_21 
REMARK   24  A    between atoms: C_22  and  N_39 
REMARK   25  A    between atoms: P_57  and  O_45 
REMARK   26  A    between atoms: P_57  and  O_46 
REMARK   27  A    between atoms: P_58  and  O_48 
REMARK   28  A    between atoms: P_59  and  O_50 
REMARK   29  A    between atoms: P_58  and  O_52 
REMARK   30  A    between atoms: P_59  and  O_53 
REMARK   31  A    between atoms: P_57  and  O_55 
REMARK   32  A    between atoms: P_58  and  O_56 
REMARK   33  A    between atoms: P_59  and  O_56 
ROOT
HETATM    1  O   UNK N   1      36.291  15.013   9.441  0.00  0.00    -0.195 OA
ENDROOT
BRANCH   1   2
HETATM    2  P   UNK N   1      35.274  16.042  10.421  0.00  0.00     0.401 P 
HETATM    3  O   UNK N   1      35.939  17.445  10.436  0.00  0.00    -0.631 OA
BRANCH   2   4
HETATM    4  O   UNK N   1      33.709  16.287   9.708  0.00  0.00    -0.307 OA
HETATM    5  H   UNK N   1      32.748  16.409   9.672  0.00  0.00     0.222 HD
ENDBRANCH   2   4
BRANCH   2   6
HETATM    6  O   UNK N   1      35.127  15.539  12.080  0.00  0.00    -0.294 OA
BRANCH   6   7
HETATM    7  C   UNK N   1      34.879  14.161  12.073  0.00  0.00     0.215 C 
BRANCH   7   8
HETATM    8  C   UNK N   1      35.743  13.428  13.110  0.00  0.00     0.180 C 
HETATM    9  C   UNK N   1      36.494  12.217  12.536  0.00  0.00     0.197 C 
HETATM   10  C   UNK N   1      36.799  11.494  13.811  0.00  0.00     0.199 C 
HETATM   11  C   UNK N   1      35.421  11.633  14.471  0.00  0.00     0.262 C 
HETATM   12  O   UNK N   1      34.973  12.955  14.205  0.00  0.00    -0.353 OA
BRANCH   9  13
HETATM   13  O   UNK N   1      37.675  12.548  11.836  0.00  0.00    -0.286 OA
BRANCH  13  14
HETATM   14  P   UNK N   1      37.712  11.703  10.305  0.00  0.00     0.391 P 
HETATM   15  O   UNK N   1      36.245  11.425   9.888  0.00  0.00    -0.632 OA
BRANCH  14  16
HETATM   16  O   UNK N   1      38.549  10.181  10.382  0.00  0.00    -0.307 OA
HETATM   17  H   UNK N   1      39.292   9.567  10.277  0.00  0.00     0.222 HD
ENDBRANCH  14  16
BRANCH  14  18
HETATM   18  O   UNK N   1      38.400  12.699   9.063  0.00  0.00    -0.307 OA
HETATM   19  H   UNK N   1      38.849  12.292   8.306  0.00  0.00     0.222 HD
ENDBRANCH  14  18
ENDBRANCH  13  14
ENDBRANCH   9  13
BRANCH  10  20
HETATM   20  O   UNK N   1      37.768  12.210  14.531  0.00  0.00    -0.388 OA
HETATM   21  H   UNK N   1      38.572  12.747  14.601  0.00  0.00     0.210 HD
ENDBRANCH  10  20
BRANCH  11  22
HETATM   22  N   UNK N   1      35.397  11.337  15.913  0.00  0.00    -0.297 N 
HETATM   23  C   UNK N   1      35.485  10.087  16.440  0.00  0.00     0.188 A 
HETATM   24  N   UNK N   1      35.452  10.111  17.802  0.00  0.00    -0.346 N 
HETATM   25  C   UNK N   1      35.362  11.415  18.110  0.00  0.00     0.122 A 
ATOM     26  HN  UNK N   1      35.488   9.318  18.441  1.00  0.00     0.167 HD
HETATM   27  C   UNK N   1      35.316  12.031  19.352  0.00  0.00     0.131 A 
HETATM   28  C   UNK N   1      35.332  12.154  16.984  0.00  0.00     0.142 A 
HETATM   29  N   UNK N   1      35.250  13.394  19.389  0.00  0.00    -0.337 N 
HETATM   30  C   UNK N   1      35.233  14.132  18.230  0.00  0.00     0.183 A 
ATOM     31  HN  UNK N   1      35.214  13.873  20.289  1.00  0.00     0.168 HD
HETATM   32  N   UNK N   1      35.275  13.508  17.010  0.00  0.00    -0.336 N 
ATOM     33  HN  UNK N   1      35.266  14.050  16.146  1.00  0.00     0.168 HD
BRANCH  27  34
HETATM   34  N   UNK N   1      35.342  11.280  20.543  0.00  0.00    -0.383 N 
HETATM   35  H   UNK N   1      36.201  10.974  20.915  0.00  0.00     0.157 HD
HETATM   36  H   UNK N   1      34.501  11.061  21.006  0.00  0.00     0.157 HD
ENDBRANCH  27  34
ENDBRANCH  11  22
ENDBRANCH   7   8
ENDBRANCH   6   7
ENDBRANCH   2   6
ENDBRANCH   1   2
BRANCH   1  37
HETATM   37  P   UNK N   1      35.324  14.446   8.104  0.00  0.00     0.401 P 
HETATM   38  O   UNK N   1      34.106  13.728   8.749  0.00  0.00    -0.631 OA
BRANCH  37  39
HETATM   39  O   UNK N   1      36.168  13.261   7.157  0.00  0.00    -0.307 OA
HETATM   40  H   UNK N   1      36.247  12.371   6.780  0.00  0.00     0.222 HD
ENDBRANCH  37  39
BRANCH  37  41
HETATM   41  O   UNK N   1      34.710  15.766   7.145  0.00  0.00    -0.296 OA
BRANCH  41  42
HETATM   42  C   UNK N   1      34.825  15.415   5.787  0.00  0.00     0.192 C 
BRANCH  42  43
HETATM   43  C   UNK N   1      33.509  15.643   5.018  0.00  0.00     0.008 C 
HETATM   44  C   UNK N   1      33.739  15.445   3.530  0.00  0.00     0.020 C 
HETATM   45  C   UNK N   1      32.473  14.617   5.445  0.00  0.00     0.020 C 
BRANCH  43  46
HETATM   46  C   UNK N   1      32.961  17.083   5.205  0.00  0.00     0.202 C 
BRANCH  46  47
HETATM   47  C   UNK N   1      31.743  17.252   6.083  0.00  0.00     0.141 C 
BRANCH  47  48
HETATM   48  N   UNK N   1      31.845  17.375   7.361  0.00  0.00    -0.372 N 
ATOM     49  HN  UNK N   1      32.700  17.761   7.760  1.00  0.00     0.161 HD
BRANCH  48  50
HETATM   50  C   UNK N   1      30.771  16.973   8.238  0.00  0.00     0.129 C 
BRANCH  50  51
HETATM   51  C   UNK N   1      29.969  18.176   8.710  0.00  0.00     0.103 C 
BRANCH  51  52
HETATM   52  C   UNK N   1      28.520  18.036   8.387  0.00  0.00     0.112 C 
BRANCH  52  53
HETATM   53  N   UNK N   1      28.168  17.807   7.170  0.00  0.00    -0.374 N 
ATOM     54  HN  UNK N   1      28.556  18.388   6.427  1.00  0.00     0.161 HD
BRANCH  53  55
HETATM   55  C   UNK N   1      27.241  16.759   6.823  0.00  0.00     0.131 C 
BRANCH  55  56
HETATM   56  C   UNK N   1      26.959  16.779   5.334  0.00  0.00     0.094 C 
BRANCH  56  57
HETATM   57  S   UNK N   1      25.167  16.666   5.084  0.00  0.00    -0.160 SA
BRANCH  57  58
HETATM   58  C   UNK N   1      24.948  18.468   4.989  0.00  0.00     0.162 C 
BRANCH  58  59
HETATM   59  C   UNK N   1      25.659  18.998   3.783  0.00  0.00     0.241 C 
HETATM   60  O   UNK N   1      25.521  18.421   2.716  0.00  0.00    -0.287 OA
BRANCH  59  61
HETATM   61  C   UNK N   1      26.539  20.217   3.871  0.00  0.00     0.451 C 
HETATM   62  F   UNK N   1      27.861  19.827   3.974  0.00  0.00    -0.163 F 
HETATM   63  F   UNK N   1      26.390  21.001   2.740  0.00  0.00    -0.163 F 
HETATM   64  F   UNK N   1      26.203  20.975   4.978  0.00  0.00    -0.163 F 
ENDBRANCH  59  61
ENDBRANCH  58  59
ENDBRANCH  57  58
ENDBRANCH  56  57
ENDBRANCH  55  56
ENDBRANCH  53  55
ENDBRANCH  52  53
BRANCH  52  65
HETATM   65  O   UNK N   1      27.598  18.135   9.369  0.00  0.00    -0.350 OA
HETATM   66  H   UNK N   1      26.716  18.245   9.662  0.00  0.00     0.219 HD
ENDBRANCH  52  65
ENDBRANCH  51  52
ENDBRANCH  50  51
ENDBRANCH  48  50
ENDBRANCH  47  48
BRANCH  47  67
HETATM   67  O   UNK N   1      30.526  17.265   5.495  0.00  0.00    -0.348 OA
HETATM   68  H   UNK N   1      29.987  16.498   5.492  0.00  0.00     0.219 HD
ENDBRANCH  47  67
ENDBRANCH  46  47
BRANCH  46  69
HETATM   69  O   UNK N   1      33.974  17.914   5.694  0.00  0.00    -0.387 OA
HETATM   70  H   UNK N   1      34.225  18.302   6.547  0.00  0.00     0.210 HD
ENDBRANCH  46  69
ENDBRANCH  43  46
ENDBRANCH  42  43
ENDBRANCH  41  42
ENDBRANCH  37  41
ENDBRANCH   1  37
TORSDOF 33
ENDMDL
MODEL 3
REMARK VINA RESULT:      -6.2      7.032     12.051
REMARK WARNING: 32 MAX_TORS EXCEEDED!!!
REMARK  33 active torsions:
REMARK  status: ('A' for Active; 'I' for Inactive)
REMARK    1  A    between atoms: C_4  and  C_3 
REMARK    2  A    between atoms: C_14  and  C_3 
REMARK    3  A    between atoms: N_31  and  C_4 
REMARK    4  A    between atoms: C_6  and  C_5 
REMARK    5  A    between atoms: N_29  and  C_5 
REMARK    6  A    between atoms: S_60  and  C_6 
REMARK    7  A    between atoms: C_12  and  C_7 
REMARK    8  A    between atoms: O_52  and  C_7 
REMARK    9  A    between atoms: C_13  and  C_8 
REMARK   10  A    between atoms: S_60  and  C_8 
REMARK   11  A    between atoms: C_23  and  C_9 
REMARK   12  A    between atoms: O_53  and  C_9 
REMARK   13  A    between atoms: C_24  and  C_13 
REMARK   14  A    between atoms: N_29  and  C_14 
REMARK   15  A    between atoms: O_41  and  C_14 
REMARK   16  A    between atoms: C_16  and  O_42 
REMARK   17  A    between atoms: C_17  and  O_55 
REMARK   18  A    between atoms: C_21  and  C_18 
REMARK   19  A    between atoms: C_23  and  C_18 
REMARK   20  A    between atoms: C_18  and  O_43 
REMARK   21  A    between atoms: N_28  and  C_19 
REMARK   22  A    between atoms: N_31  and  C_21 
REMARK   23  A    between atoms: O_44  and  C_21 
REMARK   24  A    between atoms: C_22  and  N_39 
REMARK   25  A    between atoms: P_57  and  O_45 
REMARK   26  A    between atoms: P_57  and  O_46 
REMARK   27  A    between atoms: P_58  and  O_48 
REMARK   28  A    between atoms: P_59  and  O_50 
REMARK   29  A    between atoms: P_58  and  O_52 
REMARK   30  A    between atoms: P_59  and  O_53 
REMARK   31  A    between atoms: P_57  and  O_55 
REMARK   32  A    between atoms: P_58  and  O_56 
REMARK   33  A    between atoms: P_59  and  O_56 
ROOT
HETATM    1  O   UNK N   1      26.972  17.429   5.367  0.00  0.00    -0.195 OA
ENDROOT
BRANCH   1   2
HETATM    2  P   UNK N   1      26.695  18.919   4.495  0.00  0.00     0.401 P 
HETATM    3  O   UNK N   1      26.221  19.966   5.538  0.00  0.00    -0.631 OA
BRANCH   2   4
HETATM    4  O   UNK N   1      28.160  19.570   3.827  0.00  0.00    -0.307 OA
HETATM    5  H   UNK N   1      28.857  20.222   3.656  0.00  0.00     0.222 HD
ENDBRANCH   2   4
BRANCH   2   6
HETATM    6  O   UNK N   1      25.451  18.821   3.282  0.00  0.00    -0.294 OA
BRANCH   6   7
HETATM    7  C   UNK N   1      24.246  19.186   3.895  0.00  0.00     0.215 C 
BRANCH   7   8
HETATM    8  C   UNK N   1      23.355  17.963   4.157  0.00  0.00     0.180 C 
HETATM    9  C   UNK N   1      21.853  18.264   4.044  0.00  0.00     0.197 C 
HETATM   10  C   UNK N   1      21.313  17.090   4.801  0.00  0.00     0.199 C 
HETATM   11  C   UNK N   1      22.285  17.133   5.986  0.00  0.00     0.262 C 
HETATM   12  O   UNK N   1      23.570  17.416   5.450  0.00  0.00    -0.353 OA
BRANCH   9  13
HETATM   13  O   UNK N   1      21.368  18.291   2.719  0.00  0.00    -0.286 OA
BRANCH  13  14
HETATM   14  P   UNK N   1      20.130  19.518   2.566  0.00  0.00     0.391 P 
HETATM   15  O   UNK N   1      20.249  20.457   3.794  0.00  0.00    -0.632 OA
BRANCH  14  16
HETATM   16  O   UNK N   1      18.518  18.867   2.538  0.00  0.00    -0.307 OA
HETATM   17  H   UNK N   1      17.618  18.703   2.860  0.00  0.00     0.222 HD
ENDBRANCH  14  16
BRANCH  14  18
HETATM   18  O   UNK N   1      20.400  20.501   1.163  0.00  0.00    -0.307 OA
HETATM   19  H   UNK N   1      20.954  20.172   0.438  0.00  0.00     0.222 HD
ENDBRANCH  14  18
ENDBRANCH  13  14
ENDBRANCH   9  13
BRANCH  10  20
HETATM   20  O   UNK N   1      21.503  15.923   4.045  0.00  0.00    -0.388 OA
HETATM   21  H   UNK N   1      21.913  15.063   3.870  0.00  0.00     0.210 HD
ENDBRANCH  10  20
BRANCH  11  22
HETATM   22  N   UNK N   1      22.303  15.914   6.811  0.00  0.00    -0.297 N 
HETATM   23  C   UNK N   1      23.282  14.972   6.764  0.00  0.00     0.188 A 
HETATM   24  N   UNK N   1      23.050  13.960   7.645  0.00  0.00    -0.346 N 
HETATM   25  C   UNK N   1      21.907  14.308   8.259  0.00  0.00     0.122 A 
ATOM     26  HN  UNK N   1      23.616  13.127   7.803  1.00  0.00     0.167 HD
HETATM   27  C   UNK N   1      21.209  13.659   9.266  0.00  0.00     0.131 A 
HETATM   28  C   UNK N   1      21.457  15.478   7.766  0.00  0.00     0.142 A 
HETATM   29  N   UNK N   1      20.071  14.247   9.740  0.00  0.00    -0.337 N 
HETATM   30  C   UNK N   1      19.635  15.447   9.233  0.00  0.00     0.183 A 
ATOM     31  HN  UNK N   1      19.538  13.790  10.480  1.00  0.00     0.168 HD
HETATM   32  N   UNK N   1      20.333  16.074   8.235  0.00  0.00    -0.336 N 
ATOM     33  HN  UNK N   1      20.016  16.967   7.856  1.00  0.00     0.168 HD
BRANCH  27  34
HETATM   34  N   UNK N   1      21.657  12.432   9.796  0.00  0.00    -0.383 N 
HETATM   35  H   UNK N   1      21.083  11.920  10.409  0.00  0.00     0.157 HD
HETATM   36  H   UNK N   1      22.546  12.087   9.552  0.00  0.00     0.157 HD
ENDBRANCH  27  34
ENDBRANCH  11  22
ENDBRANCH   7   8
ENDBRANCH   6   7
ENDBRANCH   2   6
ENDBRANCH   1   2
BRANCH   1  37
HETATM   37  P   UNK N   1      28.492  16.776   4.811  0.00  0.00     0.401 P 
HETATM   38  O   UNK N   1      28.401  16.779   3.259  0.00  0.00    -0.631 OA
BRANCH  37  39
HETATM   39  O   UNK N   1      28.700  15.125   5.303  0.00  0.00    -0.307 OA
HETATM   40  H   UNK N   1      29.223  14.418   5.712  0.00  0.00     0.222 HD
ENDBRANCH  37  39
BRANCH  37  41
HETATM   41  O   UNK N   1      29.835  17.791   5.262  0.00  0.00    -0.296 OA
BRANCH  41  42
HETATM   42  C   UNK N   1      30.541  17.153   6.298  0.00  0.00     0.192 C 
BRANCH  42  43
HETATM   43  C   UNK N   1      32.030  16.959   5.950  0.00  0.00     0.008 C 
HETATM   44  C   UNK N   1      32.369  15.479   5.936  0.00  0.00     0.020 C 
HETATM   45  C   UNK N   1      32.310  17.489   4.553  0.00  0.00     0.020 C 
BRANCH  43  46
HETATM   46  C   UNK N   1      32.969  17.631   6.987  0.00  0.00     0.202 C 
BRANCH  46  47
HETATM   47  C   UNK N   1      33.184  16.910   8.296  0.00  0.00     0.141 C 
BRANCH  47  48
HETATM   48  N   UNK N   1      34.330  16.410   8.610  0.00  0.00    -0.372 N 
ATOM     49  HN  UNK N   1      34.764  15.725   7.992  1.00  0.00     0.161 HD
BRANCH  48  50
HETATM   50  C   UNK N   1      35.009  16.802   9.823  0.00  0.00     0.129 C 
BRANCH  50  51
HETATM   51  C   UNK N   1      35.680  15.609  10.486  0.00  0.00     0.103 C 
BRANCH  51  52
HETATM   52  C   UNK N   1      34.751  14.897  11.411  0.00  0.00     0.112 C 
BRANCH  52  53
HETATM   53  N   UNK N   1      35.235  14.271  12.426  0.00  0.00    -0.374 N 
ATOM     54  HN  UNK N   1      35.787  14.791  13.108  1.00  0.00     0.161 HD
BRANCH  53  55
HETATM   55  C   UNK N   1      35.024  12.860  12.630  0.00  0.00     0.131 C 
BRANCH  55  56
HETATM   56  C   UNK N   1      36.300  12.203  13.120  0.00  0.00     0.094 C 
BRANCH  56  57
HETATM   57  S   UNK N   1      36.833  13.038  14.639  0.00  0.00    -0.160 SA
BRANCH  57  58
HETATM   58  C   UNK N   1      36.575  11.569  15.677  0.00  0.00     0.162 C 
BRANCH  58  59
HETATM   59  C   UNK N   1      35.479  11.835  16.662  0.00  0.00     0.241 C 
HETATM   60  O   UNK N   1      34.686  12.733  16.432  0.00  0.00    -0.287 OA
BRANCH  59  61
HETATM   61  C   UNK N   1      35.351  11.022  17.922  0.00  0.00     0.451 C 
HETATM   62  F   UNK N   1      34.415  10.022  17.736  0.00  0.00    -0.163 F 
HETATM   63  F   UNK N   1      36.566  10.443  18.247  0.00  0.00    -0.163 F 
HETATM   64  F   UNK N   1      34.953  11.824  18.975  0.00  0.00    -0.163 F 
ENDBRANCH  59  61
ENDBRANCH  58  59
ENDBRANCH  57  58
ENDBRANCH  56  57
ENDBRANCH  55  56
ENDBRANCH  53  55
ENDBRANCH  52  53
BRANCH  52  65
HETATM   65  O   UNK N   1      33.420  14.927  11.183  0.00  0.00    -0.350 OA
HETATM   66  H   UNK N   1      32.582  14.511  11.142  0.00  0.00     0.219 HD
ENDBRANCH  52  65
ENDBRANCH  51  52
ENDBRANCH  50  51
ENDBRANCH  48  50
ENDBRANCH  47  48
BRANCH  47  67
HETATM   67  O   UNK N   1      32.137  16.789   9.142  0.00  0.00    -0.348 OA
HETATM   68  H   UNK N   1      32.168  17.163  10.000  0.00  0.00     0.219 HD
ENDBRANCH  47  67
ENDBRANCH  46  47
BRANCH  46  69
HETATM   69  O   UNK N   1      34.218  17.871   6.406  0.00  0.00    -0.387 OA
HETATM   70  H   UNK N   1      34.559  18.133   5.536  0.00  0.00     0.210 HD
ENDBRANCH  46  69
ENDBRANCH  43  46
ENDBRANCH  42  43
ENDBRANCH  41  42
ENDBRANCH  37  41
ENDBRANCH   1  37
TORSDOF 33
ENDMDL
MODEL 4
REMARK VINA RESULT:      -6.2      5.377      8.528
REMARK WARNING: 32 MAX_TORS EXCEEDED!!!
REMARK  33 active torsions:
REMARK  status: ('A' for Active; 'I' for Inactive)
REMARK    1  A    between atoms: C_4  and  C_3 
REMARK    2  A    between atoms: C_14  and  C_3 
REMARK    3  A    between atoms: N_31  and  C_4 
REMARK    4  A    between atoms: C_6  and  C_5 
REMARK    5  A    between atoms: N_29  and  C_5 
REMARK    6  A    between atoms: S_60  and  C_6 
REMARK    7  A    between atoms: C_12  and  C_7 
REMARK    8  A    between atoms: O_52  and  C_7 
REMARK    9  A    between atoms: C_13  and  C_8 
REMARK   10  A    between atoms: S_60  and  C_8 
REMARK   11  A    between atoms: C_23  and  C_9 
REMARK   12  A    between atoms: O_53  and  C_9 
REMARK   13  A    between atoms: C_24  and  C_13 
REMARK   14  A    between atoms: N_29  and  C_14 
REMARK   15  A    between atoms: O_41  and  C_14 
REMARK   16  A    between atoms: C_16  and  O_42 
REMARK   17  A    between atoms: C_17  and  O_55 
REMARK   18  A    between atoms: C_21  and  C_18 
REMARK   19  A    between atoms: C_23  and  C_18 
REMARK   20  A    between atoms: C_18  and  O_43 
REMARK   21  A    between atoms: N_28  and  C_19 
REMARK   22  A    between atoms: N_31  and  C_21 
REMARK   23  A    between atoms: O_44  and  C_21 
REMARK   24  A    between atoms: C_22  and  N_39 
REMARK   25  A    between atoms: P_57  and  O_45 
REMARK   26  A    between atoms: P_57  and  O_46 
REMARK   27  A    between atoms: P_58  and  O_48 
REMARK   28  A    between atoms: P_59  and  O_50 
REMARK   29  A    between atoms: P_58  and  O_52 
REMARK   30  A    between atoms: P_59  and  O_53 
REMARK   31  A    between atoms: P_57  and  O_55 
REMARK   32  A    between atoms: P_58  and  O_56 
REMARK   33  A    between atoms: P_59  and  O_56 
ROOT
HETATM    1  O   UNK N   1      30.447  13.254   3.454  0.00  0.00    -0.195 OA
ENDROOT
BRANCH   1   2
HETATM    2  P   UNK N   1      31.897  13.404   4.419  0.00  0.00     0.401 P 
HETATM    3  O   UNK N   1      32.656  12.055   4.299  0.00  0.00    -0.631 OA
BRANCH   2   4
HETATM    4  O   UNK N   1      32.986  14.599   3.785  0.00  0.00    -0.307 OA
HETATM    5  H   UNK N   1      33.573  15.371   3.788  0.00  0.00     0.222 HD
ENDBRANCH   2   4
BRANCH   2   6
HETATM    6  O   UNK N   1      31.608  13.668   6.115  0.00  0.00    -0.294 OA
BRANCH   6   7
HETATM    7  C   UNK N   1      32.712  14.366   6.618  0.00  0.00     0.215 C 
BRANCH   7   8
HETATM    8  C   UNK N   1      32.308  15.750   7.147  0.00  0.00     0.180 C 
HETATM    9  C   UNK N   1      32.737  15.999   8.601  0.00  0.00     0.197 C 
HETATM   10  C   UNK N   1      31.815  17.132   8.935  0.00  0.00     0.199 C 
HETATM   11  C   UNK N   1      30.533  16.553   8.324  0.00  0.00     0.262 C 
HETATM   12  O   UNK N   1      30.904  15.953   7.090  0.00  0.00    -0.353 OA
BRANCH   9  13
HETATM   13  O   UNK N   1      34.089  16.375   8.749  0.00  0.00    -0.286 OA
BRANCH  13  14
HETATM   14  P   UNK N   1      34.701  15.792  10.281  0.00  0.00     0.391 P 
HETATM   15  O   UNK N   1      35.914  14.874   9.982  0.00  0.00    -0.632 OA
BRANCH  14  16
HETATM   16  O   UNK N   1      33.533  14.869  11.179  0.00  0.00    -0.307 OA
HETATM   17  H   UNK N   1      32.704  14.703  11.654  0.00  0.00     0.222 HD
ENDBRANCH  14  16
BRANCH  14  18
HETATM   18  O   UNK N   1      35.298  17.102  11.249  0.00  0.00    -0.307 OA
HETATM   19  H   UNK N   1      34.956  17.238  12.146  0.00  0.00     0.222 HD
ENDBRANCH  14  18
ENDBRANCH  13  14
ENDBRANCH   9  13
BRANCH  10  20
HETATM   20  O   UNK N   1      32.221  18.281   8.239  0.00  0.00    -0.388 OA
HETATM   21  H   UNK N   1      32.410  19.229   8.170  0.00  0.00     0.210 HD
ENDBRANCH  10  20
BRANCH  11  22
HETATM   22  N   UNK N   1      29.444  17.527   8.143  0.00  0.00    -0.297 N 
HETATM   23  C   UNK N   1      28.741  18.088   9.162  0.00  0.00     0.188 A 
HETATM   24  N   UNK N   1      27.804  18.964   8.705  0.00  0.00    -0.346 N 
HETATM   25  C   UNK N   1      27.956  18.949   7.371  0.00  0.00     0.122 A 
ATOM     26  HN  UNK N   1      27.138  19.509   9.253  1.00  0.00     0.167 HD
HETATM   27  C   UNK N   1      27.282  19.666   6.393  0.00  0.00     0.131 A 
HETATM   28  C   UNK N   1      28.938  18.092   7.029  0.00  0.00     0.142 A 
HETATM   29  N   UNK N   1      27.653  19.482   5.093  0.00  0.00    -0.337 N 
HETATM   30  C   UNK N   1      28.666  18.613   4.764  0.00  0.00     0.183 A 
ATOM     31  HN  UNK N   1      27.173  19.996   4.354  1.00  0.00     0.168 HD
HETATM   32  N   UNK N   1      29.319  17.909   5.740  0.00  0.00    -0.336 N 
ATOM     33  HN  UNK N   1      30.074  17.265   5.504  1.00  0.00     0.168 HD
BRANCH  27  34
HETATM   34  N   UNK N   1      26.249  20.564   6.726  0.00  0.00    -0.383 N 
HETATM   35  H   UNK N   1      25.665  20.928   6.022  0.00  0.00     0.157 HD
HETATM   36  H   UNK N   1      26.110  20.829   7.664  0.00  0.00     0.157 HD
ENDBRANCH  27  34
ENDBRANCH  11  22
ENDBRANCH   7   8
ENDBRANCH   6   7
ENDBRANCH   2   6
ENDBRANCH   1   2
BRANCH   1  37
HETATM   37  P   UNK N   1      29.474  14.671   3.754  0.00  0.00     0.401 P 
HETATM   38  O   UNK N   1      30.401  15.881   3.454  0.00  0.00    -0.631 OA
BRANCH  37  39
HETATM   39  O   UNK N   1      29.009  14.790   5.421  0.00  0.00    -0.307 OA
HETATM   40  H   UNK N   1      28.897  15.298   6.241  0.00  0.00     0.222 HD
ENDBRANCH  37  39
BRANCH  37  41
HETATM   41  O   UNK N   1      28.117  14.765   2.665  0.00  0.00    -0.296 OA
BRANCH  41  42
HETATM   42  C   UNK N   1      27.351  15.893   3.011  0.00  0.00     0.192 C 
BRANCH  42  43
HETATM   43  C   UNK N   1      25.845  15.572   3.079  0.00  0.00     0.008 C 
HETATM   44  C   UNK N   1      25.324  15.237   1.692  0.00  0.00     0.020 C 
HETATM   45  C   UNK N   1      25.615  14.344   3.945  0.00  0.00     0.020 C 
BRANCH  43  46
HETATM   46  C   UNK N   1      25.010  16.772   3.601  0.00  0.00     0.202 C 
BRANCH  46  47
HETATM   47  C   UNK N   1      24.735  16.831   5.085  0.00  0.00     0.141 C 
BRANCH  47  48
HETATM   48  N   UNK N   1      23.533  16.899   5.545  0.00  0.00    -0.372 N 
ATOM     49  HN  UNK N   1      23.115  16.076   5.977  1.00  0.00     0.161 HD
BRANCH  48  50
HETATM   50  C   UNK N   1      22.769  18.122   5.458  0.00  0.00     0.129 C 
BRANCH  50  51
HETATM   51  C   UNK N   1      21.455  18.001   6.213  0.00  0.00     0.103 C 
BRANCH  51  52
HETATM   52  C   UNK N   1      20.614  16.887   5.685  0.00  0.00     0.112 C 
BRANCH  52  53
HETATM   53  N   UNK N   1      19.834  16.254   6.490  0.00  0.00    -0.374 N 
ATOM     54  HN  UNK N   1      18.828  16.413   6.428  1.00  0.00     0.161 HD
BRANCH  53  55
HETATM   55  C   UNK N   1      20.334  15.331   7.477  0.00  0.00     0.131 C 
BRANCH  55  56
HETATM   56  C   UNK N   1      20.646  13.993   6.835  0.00  0.00     0.094 C 
BRANCH  56  57
HETATM   57  S   UNK N   1      21.961  13.188   7.788  0.00  0.00    -0.160 SA
BRANCH  57  58
HETATM   58  C   UNK N   1      21.467  13.970   9.353  0.00  0.00     0.162 C 
BRANCH  58  59
HETATM   59  C   UNK N   1      21.261  12.918  10.398  0.00  0.00     0.241 C 
HETATM   60  O   UNK N   1      20.123  12.657  10.755  0.00  0.00    -0.287 OA
BRANCH  59  61
HETATM   61  C   UNK N   1      22.427  12.190  11.012  0.00  0.00     0.451 C 
HETATM   62  F   UNK N   1      22.628  10.994  10.349  0.00  0.00    -0.163 F 
HETATM   63  F   UNK N   1      23.576  12.956  10.914  0.00  0.00    -0.163 F 
HETATM   64  F   UNK N   1      22.185  11.933  12.348  0.00  0.00    -0.163 F 
ENDBRANCH  59  61
ENDBRANCH  58  59
ENDBRANCH  57  58
ENDBRANCH  56  57
ENDBRANCH  55  56
ENDBRANCH  53  55
ENDBRANCH  52  53
BRANCH  52  65
HETATM   65  O   UNK N   1      20.669  16.565   4.375  0.00  0.00    -0.350 OA
HETATM   66  H   UNK N   1      21.103  16.182   3.639  0.00  0.00     0.219 HD
ENDBRANCH  52  65
ENDBRANCH  51  52
ENDBRANCH  50  51
ENDBRANCH  48  50
ENDBRANCH  47  48
BRANCH  47  67
HETATM   67  O   UNK N   1      25.787  16.818   5.933  0.00  0.00    -0.348 OA
HETATM   68  H   UNK N   1      25.667  16.627   6.843  0.00  0.00     0.219 HD
ENDBRANCH  47  67
ENDBRANCH  46  47
BRANCH  46  69
HETATM   69  O   UNK N   1      25.618  17.972   3.218  0.00  0.00    -0.387 OA
HETATM   70  H   UNK N   1      26.428  18.459   3.436  0.00  0.00     0.210 HD
ENDBRANCH  46  69
ENDBRANCH  43  46
ENDBRANCH  42  43
ENDBRANCH  41  42
ENDBRANCH  37  41
ENDBRANCH   1  37
TORSDOF 33
ENDMDL
MODEL 5
REMARK VINA RESULT:      -6.2      5.844     11.682
REMARK WARNING: 32 MAX_TORS EXCEEDED!!!
REMARK  33 active torsions:
REMARK  status: ('A' for Active; 'I' for Inactive)
REMARK    1  A    between atoms: C_4  and  C_3 
REMARK    2  A    between atoms: C_14  and  C_3 
REMARK    3  A    between atoms: N_31  and  C_4 
REMARK    4  A    between atoms: C_6  and  C_5 
REMARK    5  A    between atoms: N_29  and  C_5 
REMARK    6  A    between atoms: S_60  and  C_6 
REMARK    7  A    between atoms: C_12  and  C_7 
REMARK    8  A    between atoms: O_52  and  C_7 
REMARK    9  A    between atoms: C_13  and  C_8 
REMARK   10  A    between atoms: S_60  and  C_8 
REMARK   11  A    between atoms: C_23  and  C_9 
REMARK   12  A    between atoms: O_53  and  C_9 
REMARK   13  A    between atoms: C_24  and  C_13 
REMARK   14  A    between atoms: N_29  and  C_14 
REMARK   15  A    between atoms: O_41  and  C_14 
REMARK   16  A    between atoms: C_16  and  O_42 
REMARK   17  A    between atoms: C_17  and  O_55 
REMARK   18  A    between atoms: C_21  and  C_18 
REMARK   19  A    between atoms: C_23  and  C_18 
REMARK   20  A    between atoms: C_18  and  O_43 
REMARK   21  A    between atoms: N_28  and  C_19 
REMARK   22  A    between atoms: N_31  and  C_21 
REMARK   23  A    between atoms: O_44  and  C_21 
REMARK   24  A    between atoms: C_22  and  N_39 
REMARK   25  A    between atoms: P_57  and  O_45 
REMARK   26  A    between atoms: P_57  and  O_46 
REMARK   27  A    between atoms: P_58  and  O_48 
REMARK   28  A    between atoms: P_59  and  O_50 
REMARK   29  A    between atoms: P_58  and  O_52 
REMARK   30  A    between atoms: P_59  and  O_53 
REMARK   31  A    between atoms: P_57  and  O_55 
REMARK   32  A    between atoms: P_58  and  O_56 
REMARK   33  A    between atoms: P_59  and  O_56 
ROOT
HETATM    1  O   UNK N   1      25.992  17.240   4.821  0.00  0.00    -0.195 OA
ENDROOT
BRANCH   1   2
HETATM    2  P   UNK N   1      26.081  15.500   4.952  0.00  0.00     0.401 P 
HETATM    3  O   UNK N   1      26.753  14.986   3.651  0.00  0.00    -0.631 OA
BRANCH   2   4
HETATM    4  O   UNK N   1      27.130  14.992   6.240  0.00  0.00    -0.307 OA
HETATM    5  H   UNK N   1      27.591  15.034   7.092  0.00  0.00     0.222 HD
ENDBRANCH   2   4
BRANCH   2   6
HETATM    6  O   UNK N   1      24.535  14.707   5.064  0.00  0.00    -0.294 OA
BRANCH   6   7
HETATM    7  C   UNK N   1      23.987  15.045   6.308  0.00  0.00     0.215 C 
BRANCH   7   8
HETATM    8  C   UNK N   1      22.852  16.069   6.163  0.00  0.00     0.180 C 
HETATM    9  C   UNK N   1      21.516  15.590   6.753  0.00  0.00     0.197 C 
HETATM   10  C   UNK N   1      20.589  16.527   6.044  0.00  0.00     0.199 C 
HETATM   11  C   UNK N   1      21.195  16.409   4.640  0.00  0.00     0.262 C 
HETATM   12  O   UNK N   1      22.607  16.404   4.805  0.00  0.00    -0.353 OA
BRANCH   9  13
HETATM   13  O   UNK N   1      21.420  15.731   8.155  0.00  0.00    -0.286 OA
BRANCH  13  14
HETATM   14  P   UNK N   1      20.885  14.225   8.866  0.00  0.00     0.391 P 
HETATM   15  O   UNK N   1      19.462  14.457   9.437  0.00  0.00    -0.632 OA
BRANCH  14  16
HETATM   16  O   UNK N   1      21.905  13.678  10.162  0.00  0.00    -0.307 OA
HETATM   17  H   UNK N   1      22.686  13.272  10.571  0.00  0.00     0.222 HD
ENDBRANCH  14  16
BRANCH  14  18
HETATM   18  O   UNK N   1      20.738  12.987   7.660  0.00  0.00    -0.307 OA
HETATM   19  H   UNK N   1      21.255  13.043   6.841  0.00  0.00     0.222 HD
ENDBRANCH  14  18
ENDBRANCH  13  14
ENDBRANCH   9  13
BRANCH  10  20
HETATM   20  O   UNK N   1      20.761  17.824   6.552  0.00  0.00    -0.388 OA
HETATM   21  H   UNK N   1      21.104  18.463   7.196  0.00  0.00     0.210 HD
ENDBRANCH  10  20
BRANCH  11  22
HETATM   22  N   UNK N   1      20.768  17.455   3.696  0.00  0.00    -0.297 N 
HETATM   23  C   UNK N   1      19.552  17.489   3.091  0.00  0.00     0.188 A 
HETATM   24  N   UNK N   1      19.424  18.577   2.280  0.00  0.00    -0.346 N 
HETATM   25  C   UNK N   1      20.589  19.231   2.413  0.00  0.00     0.122 A 
ATOM     26  HN  UNK N   1      18.623  18.835   1.703  1.00  0.00     0.167 HD
HETATM   27  C   UNK N   1      21.010  20.419   1.834  0.00  0.00     0.131 A 
HETATM   28  C   UNK N   1      21.397  18.565   3.261  0.00  0.00     0.142 A 
HETATM   29  N   UNK N   1      22.250  20.887   2.161  0.00  0.00    -0.337 N 
HETATM   30  C   UNK N   1      23.054  20.202   3.038  0.00  0.00     0.183 A 
ATOM     31  HN  UNK N   1      22.584  21.759   1.748  1.00  0.00     0.168 HD
HETATM   32  N   UNK N   1      22.627  19.027   3.598  0.00  0.00    -0.336 N 
ATOM     33  HN  UNK N   1      23.218  18.514   4.253  1.00  0.00     0.168 HD
BRANCH  27  34
HETATM   34  N   UNK N   1      20.185  21.131   0.940  0.00  0.00    -0.383 N 
HETATM   35  H   UNK N   1      19.321  21.490   1.246  0.00  0.00     0.157 HD
HETATM   36  H   UNK N   1      20.473  21.270   0.009  0.00  0.00     0.157 HD
ENDBRANCH  27  34
ENDBRANCH  11  22
ENDBRANCH   7   8
ENDBRANCH   6   7
ENDBRANCH   2   6
ENDBRANCH   1   2
BRANCH   1  37
HETATM   37  P   UNK N   1      27.559  17.876   5.252  0.00  0.00     0.401 P 
HETATM   38  O   UNK N   1      27.577  19.333   4.713  0.00  0.00    -0.631 OA
BRANCH  37  39
HETATM   39  O   UNK N   1      28.841  17.023   4.450  0.00  0.00    -0.307 OA
HETATM   40  H   UNK N   1      29.757  16.707   4.407  0.00  0.00     0.222 HD
ENDBRANCH  37  39
BRANCH  37  41
HETATM   41  O   UNK N   1      27.773  17.950   6.980  0.00  0.00    -0.296 OA
BRANCH  41  42
HETATM   42  C   UNK N   1      29.120  18.262   7.244  0.00  0.00     0.192 C 
BRANCH  42  43
HETATM   43  C   UNK N   1      29.543  17.841   8.665  0.00  0.00     0.008 C 
HETATM   44  C   UNK N   1      30.088  19.041   9.419  0.00  0.00     0.020 C 
HETATM   45  C   UNK N   1      28.334  17.344   9.441  0.00  0.00     0.020 C 
BRANCH  43  46
HETATM   46  C   UNK N   1      30.662  16.766   8.652  0.00  0.00     0.202 C 
BRANCH  46  47
HETATM   47  C   UNK N   1      32.042  17.207   8.225  0.00  0.00     0.141 C 
BRANCH  47  48
HETATM   48  N   UNK N   1      33.005  17.322   9.074  0.00  0.00    -0.372 N 
ATOM     49  HN  UNK N   1      32.895  17.944   9.874  1.00  0.00     0.161 HD
BRANCH  48  50
HETATM   50  C   UNK N   1      34.237  16.587   8.910  0.00  0.00     0.129 C 
BRANCH  50  51
HETATM   51  C   UNK N   1      34.923  16.362  10.248  0.00  0.00     0.103 C 
BRANCH  51  52
HETATM   52  C   UNK N   1      34.397  15.150  10.942  0.00  0.00     0.112 C 
BRANCH  52  53
HETATM   53  N   UNK N   1      35.225  14.331  11.489  0.00  0.00    -0.374 N 
ATOM     54  HN  UNK N   1      34.870  13.637  12.147  1.00  0.00     0.161 HD
BRANCH  53  55
HETATM   55  C   UNK N   1      36.638  14.364  11.204  0.00  0.00     0.131 C 
BRANCH  55  56
HETATM   56  C   UNK N   1      37.215  12.962  11.244  0.00  0.00     0.094 C 
BRANCH  56  57
HETATM   57  S   UNK N   1      36.055  11.885  12.128  0.00  0.00    -0.160 SA
BRANCH  57  58
HETATM   58  C   UNK N   1      36.688  12.352  13.767  0.00  0.00     0.162 C 
BRANCH  58  59
HETATM   59  C   UNK N   1      35.557  12.821  14.628  0.00  0.00     0.241 C 
HETATM   60  O   UNK N   1      34.483  13.073  14.105  0.00  0.00    -0.287 OA
BRANCH  59  61
HETATM   61  C   UNK N   1      35.728  12.991  16.114  0.00  0.00     0.451 C 
HETATM   62  F   UNK N   1      36.355  11.877  16.639  0.00  0.00    -0.163 F 
HETATM   63  F   UNK N   1      36.500  14.108  16.385  0.00  0.00    -0.163 F 
HETATM   64  F   UNK N   1      34.499  13.149  16.726  0.00  0.00    -0.163 F 
ENDBRANCH  59  61
ENDBRANCH  58  59
ENDBRANCH  57  58
ENDBRANCH  56  57
ENDBRANCH  55  56
ENDBRANCH  53  55
ENDBRANCH  52  53
BRANCH  52  65
HETATM   65  O   UNK N   1      33.065  14.934  11.002  0.00  0.00    -0.350 OA
HETATM   66  H   UNK N   1      32.197  15.199  11.233  0.00  0.00     0.219 HD
ENDBRANCH  52  65
ENDBRANCH  51  52
ENDBRANCH  50  51
ENDBRANCH  48  50
ENDBRANCH  47  48
BRANCH  47  67
HETATM   67  O   UNK N   1      32.250  17.491   6.921  0.00  0.00    -0.348 OA
HETATM   68  H   UNK N   1      32.583  16.839   6.335  0.00  0.00     0.219 HD
ENDBRANCH  47  67
ENDBRANCH  46  47
BRANCH  46  69
HETATM   69  O   UNK N   1      30.760  16.172   9.914  0.00  0.00    -0.387 OA
HETATM   70  H   UNK N   1      31.354  15.548  10.362  0.00  0.00     0.210 HD
ENDBRANCH  46  69
ENDBRANCH  43  46
ENDBRANCH  42  43
ENDBRANCH  41  42
ENDBRANCH  37  41
ENDBRANCH   1  37
TORSDOF 33
ENDMDL
MODEL 6
REMARK VINA RESULT:      -6.2      6.605     11.806
REMARK WARNING: 32 MAX_TORS EXCEEDED!!!
REMARK  33 active torsions:
REMARK  status: ('A' for Active; 'I' for Inactive)
REMARK    1  A    between atoms: C_4  and  C_3 
REMARK    2  A    between atoms: C_14  and  C_3 
REMARK    3  A    between atoms: N_31  and  C_4 
REMARK    4  A    between atoms: C_6  and  C_5 
REMARK    5  A    between atoms: N_29  and  C_5 
REMARK    6  A    between atoms: S_60  and  C_6 
REMARK    7  A    between atoms: C_12  and  C_7 
REMARK    8  A    between atoms: O_52  and  C_7 
REMARK    9  A    between atoms: C_13  and  C_8 
REMARK   10  A    between atoms: S_60  and  C_8 
REMARK   11  A    between atoms: C_23  and  C_9 
REMARK   12  A    between atoms: O_53  and  C_9 
REMARK   13  A    between atoms: C_24  and  C_13 
REMARK   14  A    between atoms: N_29  and  C_14 
REMARK   15  A    between atoms: O_41  and  C_14 
REMARK   16  A    between atoms: C_16  and  O_42 
REMARK   17  A    between atoms: C_17  and  O_55 
REMARK   18  A    between atoms: C_21  and  C_18 
REMARK   19  A    between atoms: C_23  and  C_18 
REMARK   20  A    between atoms: C_18  and  O_43 
REMARK   21  A    between atoms: N_28  and  C_19 
REMARK   22  A    between atoms: N_31  and  C_21 
REMARK   23  A    between atoms: O_44  and  C_21 
REMARK   24  A    between atoms: C_22  and  N_39 
REMARK   25  A    between atoms: P_57  and  O_45 
REMARK   26  A    between atoms: P_57  and  O_46 
REMARK   27  A    between atoms: P_58  and  O_48 
REMARK   28  A    between atoms: P_59  and  O_50 
REMARK   29  A    between atoms: P_58  and  O_52 
REMARK   30  A    between atoms: P_59  and  O_53 
REMARK   31  A    between atoms: P_57  and  O_55 
REMARK   32  A    between atoms: P_58  and  O_56 
REMARK   33  A    between atoms: P_59  and  O_56 
ROOT
HETATM    1  O   UNK N   1      27.518  19.061   6.014  0.00  0.00    -0.195 OA
ENDROOT
BRANCH   1   2
HETATM    2  P   UNK N   1      26.926  18.511   4.464  0.00  0.00     0.401 P 
HETATM    3  O   UNK N   1      26.532  19.779   3.659  0.00  0.00    -0.631 OA
BRANCH   2   4
HETATM    4  O   UNK N   1      28.166  17.739   3.524  0.00  0.00    -0.307 OA
HETATM    5  H   UNK N   1      28.669  17.013   3.126  0.00  0.00     0.222 HD
ENDBRANCH   2   4
BRANCH   2   6
HETATM    6  O   UNK N   1      25.504  17.511   4.553  0.00  0.00    -0.294 OA
BRANCH   6   7
HETATM    7  C   UNK N   1      24.460  18.224   3.951  0.00  0.00     0.215 C 
BRANCH   7   8
HETATM    8  C   UNK N   1      23.088  17.663   4.354  0.00  0.00     0.180 C 
HETATM    9  C   UNK N   1      21.924  18.624   4.068  0.00  0.00     0.197 C 
HETATM   10  C   UNK N   1      20.892  18.030   4.976  0.00  0.00     0.199 C 
HETATM   11  C   UNK N   1      21.781  17.827   6.209  0.00  0.00     0.262 C 
HETATM   12  O   UNK N   1      23.030  17.342   5.736  0.00  0.00    -0.353 OA
BRANCH   9  13
HETATM   13  O   UNK N   1      21.492  18.624   2.725  0.00  0.00    -0.286 OA
BRANCH  13  14
HETATM   14  P   UNK N   1      21.404  20.268   2.131  0.00  0.00     0.391 P 
HETATM   15  O   UNK N   1      22.853  20.813   2.049  0.00  0.00    -0.632 OA
BRANCH  14  16
HETATM   16  O   UNK N   1      20.488  21.322   3.167  0.00  0.00    -0.307 OA
HETATM   17  H   UNK N   1      20.256  21.783   3.988  0.00  0.00     0.222 HD
ENDBRANCH  14  16
BRANCH  14  18
HETATM   18  O   UNK N   1      20.766  20.312   0.520  0.00  0.00    -0.307 OA
HETATM   19  H   UNK N   1      20.513  21.159   0.120  0.00  0.00     0.222 HD
ENDBRANCH  14  18
ENDBRANCH  13  14
ENDBRANCH   9  13
BRANCH  10  20
HETATM   20  O   UNK N   1      20.473  16.795   4.457  0.00  0.00    -0.388 OA
HETATM   21  H   UNK N   1      20.539  16.047   3.844  0.00  0.00     0.210 HD
ENDBRANCH  10  20
BRANCH  11  22
HETATM   22  N   UNK N   1      21.213  16.937   7.236  0.00  0.00    -0.297 N 
HETATM   23  C   UNK N   1      20.114  17.231   7.980  0.00  0.00     0.188 A 
HETATM   24  N   UNK N   1      19.806  16.221   8.842  0.00  0.00    -0.346 N 
HETATM   25  C   UNK N   1      20.733  15.280   8.599  0.00  0.00     0.122 A 
ATOM     26  HN  UNK N   1      19.043  16.188   9.518  1.00  0.00     0.167 HD
HETATM   27  C   UNK N   1      20.894  14.027   9.169  0.00  0.00     0.131 A 
HETATM   28  C   UNK N   1      21.577  15.703   7.637  0.00  0.00     0.142 A 
HETATM   29  N   UNK N   1      21.918  13.244   8.718  0.00  0.00    -0.337 N 
HETATM   30  C   UNK N   1      22.760  13.686   7.727  0.00  0.00     0.183 A 
ATOM     31  HN  UNK N   1      22.059  12.318   9.122  1.00  0.00     0.168 HD
HETATM   32  N   UNK N   1      22.591  14.929   7.176  0.00  0.00    -0.336 N 
ATOM     33  HN  UNK N   1      23.211  15.263   6.438  1.00  0.00     0.168 HD
BRANCH  27  34
HETATM   34  N   UNK N   1      20.028  13.565  10.180  0.00  0.00    -0.383 N 
HETATM   35  H   UNK N   1      20.041  13.982  11.071  0.00  0.00     0.157 HD
HETATM   36  H   UNK N   1      19.407  12.823   9.995  0.00  0.00     0.157 HD
ENDBRANCH  27  34
ENDBRANCH  11  22
ENDBRANCH   7   8
ENDBRANCH   6   7
ENDBRANCH   2   6
ENDBRANCH   1   2
BRANCH   1  37
HETATM   37  P   UNK N   1      28.662  17.873   6.585  0.00  0.00     0.401 P 
HETATM   38  O   UNK N   1      27.953  16.501   6.415  0.00  0.00    -0.631 OA
BRANCH  37  39
HETATM   39  O   UNK N   1      28.996  18.064   8.277  0.00  0.00    -0.307 OA
HETATM   40  H   UNK N   1      29.582  18.322   9.006  0.00  0.00     0.222 HD
ENDBRANCH  37  39
BRANCH  37  41
HETATM   41  O   UNK N   1      30.106  17.844   5.610  0.00  0.00    -0.296 OA
BRANCH  41  42
HETATM   42  C   UNK N   1      30.848  16.700   5.954  0.00  0.00     0.192 C 
BRANCH  42  43
HETATM   43  C   UNK N   1      32.355  16.886   5.689  0.00  0.00     0.008 C 
HETATM   44  C   UNK N   1      33.029  15.531   5.561  0.00  0.00     0.020 C 
HETATM   45  C   UNK N   1      32.565  17.610   4.369  0.00  0.00     0.020 C 
BRANCH  43  46
HETATM   46  C   UNK N   1      33.067  17.640   6.844  0.00  0.00     0.202 C 
BRANCH  46  47
HETATM   47  C   UNK N   1      32.952  17.051   8.230  0.00  0.00     0.141 C 
BRANCH  47  48
HETATM   48  N   UNK N   1      33.871  16.293   8.719  0.00  0.00    -0.372 N 
ATOM     49  HN  UNK N   1      34.845  16.459   8.466  1.00  0.00     0.161 HD
BRANCH  48  50
HETATM   50  C   UNK N   1      33.547  15.209   9.617  0.00  0.00     0.129 C 
BRANCH  50  51
HETATM   51  C   UNK N   1      34.302  15.341  10.930  0.00  0.00     0.103 C 
BRANCH  51  52
HETATM   52  C   UNK N   1      35.635  15.983  10.739  0.00  0.00     0.112 C 
BRANCH  52  53
HETATM   53  N   UNK N   1      36.692  15.249  10.748  0.00  0.00    -0.374 N 
ATOM     54  HN  UNK N   1      37.602  15.696  10.863  1.00  0.00     0.161 HD
BRANCH  53  55
HETATM   55  C   UNK N   1      36.633  13.816  10.599  0.00  0.00     0.131 C 
BRANCH  55  56
HETATM   56  C   UNK N   1      37.178  13.136  11.840  0.00  0.00     0.094 C 
BRANCH  56  57
HETATM   57  S   UNK N   1      35.810  12.304  12.690  0.00  0.00    -0.160 SA
BRANCH  57  58
HETATM   58  C   UNK N   1      36.753  12.068  14.226  0.00  0.00     0.162 C 
BRANCH  58  59
HETATM   59  C   UNK N   1      36.202  12.958  15.296  0.00  0.00     0.241 C 
HETATM   60  O   UNK N   1      36.591  14.114  15.359  0.00  0.00    -0.287 OA
BRANCH  59  61
HETATM   61  C   UNK N   1      35.192  12.450  16.289  0.00  0.00     0.451 C 
HETATM   62  F   UNK N   1      34.395  11.492  15.690  0.00  0.00    -0.163 F 
HETATM   63  F   UNK N   1      35.831  11.883  17.379  0.00  0.00    -0.163 F 
HETATM   64  F   UNK N   1      34.394  13.486  16.738  0.00  0.00    -0.163 F 
ENDBRANCH  59  61
ENDBRANCH  58  59
ENDBRANCH  57  58
ENDBRANCH  56  57
ENDBRANCH  55  56
ENDBRANCH  53  55
ENDBRANCH  52  53
BRANCH  52  65
HETATM   65  O   UNK N   1      35.718  17.317  10.545  0.00  0.00    -0.350 OA
HETATM   66  H   UNK N   1      35.557  18.200  10.814  0.00  0.00     0.219 HD
ENDBRANCH  52  65
ENDBRANCH  51  52
ENDBRANCH  50  51
ENDBRANCH  48  50
ENDBRANCH  47  48
BRANCH  47  67
HETATM   67  O   UNK N   1      31.848  17.333   8.957  0.00  0.00    -0.348 OA
HETATM   68  H   UNK N   1      31.800  18.113   9.474  0.00  0.00     0.219 HD
ENDBRANCH  47  67
ENDBRANCH  46  47
BRANCH  46  69
HETATM   69  O   UNK N   1      34.423  17.793   6.542  0.00  0.00    -0.387 OA
HETATM   70  H   UNK N   1      34.957  18.021   5.765  0.00  0.00     0.210 HD
ENDBRANCH  46  69
ENDBRANCH  43  46
ENDBRANCH  42  43
ENDBRANCH  41  42
ENDBRANCH  37  41
ENDBRANCH   1  37
TORSDOF 33
ENDMDL
MODEL 7
REMARK VINA RESULT:      -6.1      8.703     11.985
REMARK WARNING: 32 MAX_TORS EXCEEDED!!!
REMARK  33 active torsions:
REMARK  status: ('A' for Active; 'I' for Inactive)
REMARK    1  A    between atoms: C_4  and  C_3 
REMARK    2  A    between atoms: C_14  and  C_3 
REMARK    3  A    between atoms: N_31  and  C_4 
REMARK    4  A    between atoms: C_6  and  C_5 
REMARK    5  A    between atoms: N_29  and  C_5 
REMARK    6  A    between atoms: S_60  and  C_6 
REMARK    7  A    between atoms: C_12  and  C_7 
REMARK    8  A    between atoms: O_52  and  C_7 
REMARK    9  A    between atoms: C_13  and  C_8 
REMARK   10  A    between atoms: S_60  and  C_8 
REMARK   11  A    between atoms: C_23  and  C_9 
REMARK   12  A    between atoms: O_53  and  C_9 
REMARK   13  A    between atoms: C_24  and  C_13 
REMARK   14  A    between atoms: N_29  and  C_14 
REMARK   15  A    between atoms: O_41  and  C_14 
REMARK   16  A    between atoms: C_16  and  O_42 
REMARK   17  A    between atoms: C_17  and  O_55 
REMARK   18  A    between atoms: C_21  and  C_18 
REMARK   19  A    between atoms: C_23  and  C_18 
REMARK   20  A    between atoms: C_18  and  O_43 
REMARK   21  A    between atoms: N_28  and  C_19 
REMARK   22  A    between atoms: N_31  and  C_21 
REMARK   23  A    between atoms: O_44  and  C_21 
REMARK   24  A    between atoms: C_22  and  N_39 
REMARK   25  A    between atoms: P_57  and  O_45 
REMARK   26  A    between atoms: P_57  and  O_46 
REMARK   27  A    between atoms: P_58  and  O_48 
REMARK   28  A    between atoms: P_59  and  O_50 
REMARK   29  A    between atoms: P_58  and  O_52 
REMARK   30  A    between atoms: P_59  and  O_53 
REMARK   31  A    between atoms: P_57  and  O_55 
REMARK   32  A    between atoms: P_58  and  O_56 
REMARK   33  A    between atoms: P_59  and  O_56 
ROOT
HETATM    1  O   UNK N   1      35.378  15.307   8.322  0.00  0.00    -0.195 OA
ENDROOT
BRANCH   1   2
HETATM    2  P   UNK N   1      34.885  16.047   9.826  0.00  0.00     0.401 P 
HETATM    3  O   UNK N   1      35.131  17.573   9.677  0.00  0.00    -0.631 OA
BRANCH   2   4
HETATM    4  O   UNK N   1      33.179  15.885  10.109  0.00  0.00    -0.307 OA
HETATM    5  H   UNK N   1      32.320  16.039  10.531  0.00  0.00     0.222 HD
ENDBRANCH   2   4
BRANCH   2   6
HETATM    6  O   UNK N   1      35.795  15.527  11.216  0.00  0.00    -0.294 OA
BRANCH   6   7
HETATM    7  C   UNK N   1      34.972  14.662  11.948  0.00  0.00     0.215 C 
BRANCH   7   8
HETATM    8  C   UNK N   1      35.780  13.836  12.959  0.00  0.00     0.180 C 
HETATM    9  C   UNK N   1      36.464  12.608  12.339  0.00  0.00     0.197 C 
HETATM   10  C   UNK N   1      36.713  11.815  13.584  0.00  0.00     0.199 C 
HETATM   11  C   UNK N   1      35.339  12.007  14.239  0.00  0.00     0.262 C 
HETATM   12  O   UNK N   1      34.973  13.364  14.027  0.00  0.00    -0.353 OA
BRANCH   9  13
HETATM   13  O   UNK N   1      37.669  12.898  11.663  0.00  0.00    -0.286 OA
BRANCH  13  14
HETATM   14  P   UNK N   1      37.515  12.476   9.972  0.00  0.00     0.391 P 
HETATM   15  O   UNK N   1      36.033  12.095   9.717  0.00  0.00    -0.632 OA
BRANCH  14  16
HETATM   16  O   UNK N   1      38.506  11.125   9.509  0.00  0.00    -0.307 OA
HETATM   17  H   UNK N   1      38.927  10.256   9.602  0.00  0.00     0.222 HD
ENDBRANCH  14  16
BRANCH  14  18
HETATM   18  O   UNK N   1      37.857  13.841   8.958  0.00  0.00    -0.307 OA
HETATM   19  H   UNK N   1      38.407  14.567   9.290  0.00  0.00     0.222 HD
ENDBRANCH  14  18
ENDBRANCH  13  14
ENDBRANCH   9  13
BRANCH  10  20
HETATM   20  O   UNK N   1      37.716  12.441  14.341  0.00  0.00    -0.388 OA
HETATM   21  H   UNK N   1      38.593  12.480  14.750  0.00  0.00     0.210 HD
ENDBRANCH  10  20
BRANCH  11  22
HETATM   22  N   UNK N   1      35.284  11.653  15.668  0.00  0.00    -0.297 N 
HETATM   23  C   UNK N   1      35.246  10.378  16.139  0.00  0.00     0.188 A 
HETATM   24  N   UNK N   1      35.214  10.347  17.500  0.00  0.00    -0.346 N 
HETATM   25  C   UNK N   1      35.254  11.638  17.866  0.00  0.00     0.122 A 
ATOM     26  HN  UNK N   1      35.170   9.526  18.105  1.00  0.00     0.167 HD
HETATM   27  C   UNK N   1      35.268  12.201  19.133  0.00  0.00     0.131 A 
HETATM   28  C   UNK N   1      35.299  12.425  16.773  0.00  0.00     0.142 A 
HETATM   29  N   UNK N   1      35.338  13.561  19.230  0.00  0.00    -0.337 N 
HETATM   30  C   UNK N   1      35.397  14.346  18.104  0.00  0.00     0.183 A 
ATOM     31  HN  UNK N   1      35.349  14.001  20.150  1.00  0.00     0.168 HD
HETATM   32  N   UNK N   1      35.378  13.776  16.859  0.00  0.00    -0.336 N 
ATOM     33  HN  UNK N   1      35.424  14.352  16.018  1.00  0.00     0.168 HD
BRANCH  27  34
HETATM   34  N   UNK N   1      35.217  11.400  20.291  0.00  0.00    -0.383 N 
HETATM   35  H   UNK N   1      35.759  10.580  20.348  0.00  0.00     0.157 HD
HETATM   36  H   UNK N   1      34.640  11.660  21.045  0.00  0.00     0.157 HD
ENDBRANCH  27  34
ENDBRANCH  11  22
ENDBRANCH   7   8
ENDBRANCH   6   7
ENDBRANCH   2   6
ENDBRANCH   1   2
BRANCH   1  37
HETATM   37  P   UNK N   1      33.934  14.736   7.525  0.00  0.00     0.401 P 
HETATM   38  O   UNK N   1      33.333  13.665   8.476  0.00  0.00    -0.631 OA
BRANCH  37  39
HETATM   39  O   UNK N   1      34.299  13.938   6.028  0.00  0.00    -0.307 OA
HETATM   40  H   UNK N   1      34.591  13.954   5.103  0.00  0.00     0.222 HD
ENDBRANCH  37  39
BRANCH  37  41
HETATM   41  O   UNK N   1      32.752  16.004   7.344  0.00  0.00    -0.296 OA
BRANCH  41  42
HETATM   42  C   UNK N   1      31.522  15.413   7.000  0.00  0.00     0.192 C 
BRANCH  42  43
HETATM   43  C   UNK N   1      30.513  16.449   6.466  0.00  0.00     0.008 C 
HETATM   44  C   UNK N   1      31.142  17.251   5.340  0.00  0.00     0.020 C 
HETATM   45  C   UNK N   1      29.303  15.740   5.880  0.00  0.00     0.020 C 
BRANCH  43  46
HETATM   46  C   UNK N   1      30.076  17.462   7.558  0.00  0.00     0.202 C 
BRANCH  46  47
HETATM   47  C   UNK N   1      28.623  17.872   7.580  0.00  0.00     0.141 C 
BRANCH  47  48
HETATM   48  N   UNK N   1      28.135  18.673   6.697  0.00  0.00    -0.372 N 
ATOM     49  HN  UNK N   1      28.221  18.440   5.708  1.00  0.00     0.161 HD
BRANCH  48  50
HETATM   50  C   UNK N   1      27.469  19.895   7.082  0.00  0.00     0.129 C 
BRANCH  50  51
HETATM   51  C   UNK N   1      27.581  20.948   5.991  0.00  0.00     0.103 C 
BRANCH  51  52
HETATM   52  C   UNK N   1      27.487  20.346   4.630  0.00  0.00     0.112 C 
BRANCH  52  53
HETATM   53  N   UNK N   1      26.394  20.473   3.961  0.00  0.00    -0.374 N 
ATOM     54  HN  UNK N   1      26.026  21.410   3.793  1.00  0.00     0.161 HD
BRANCH  53  55
HETATM   55  C   UNK N   1      25.673  19.337   3.445  0.00  0.00     0.131 C 
BRANCH  55  56
HETATM   56  C   UNK N   1      24.186  19.504   3.686  0.00  0.00     0.094 C 
BRANCH  56  57
HETATM   57  S   UNK N   1      23.616  18.147   4.744  0.00  0.00    -0.160 SA
BRANCH  57  58
HETATM   58  C   UNK N   1      22.059  17.932   3.832  0.00  0.00     0.162 C 
BRANCH  58  59
HETATM   59  C   UNK N   1      21.164  19.106   4.080  0.00  0.00     0.241 C 
HETATM   60  O   UNK N   1      20.994  19.485   5.228  0.00  0.00    -0.287 OA
BRANCH  59  61
HETATM   61  C   UNK N   1      20.474  19.812   2.944  0.00  0.00     0.451 C 
HETATM   62  F   UNK N   1      19.143  19.442   2.909  0.00  0.00    -0.163 F 
HETATM   63  F   UNK N   1      20.553  21.184   3.111  0.00  0.00    -0.163 F 
HETATM   64  F   UNK N   1      21.067  19.483   1.740  0.00  0.00    -0.163 F 
ENDBRANCH  59  61
ENDBRANCH  58  59
ENDBRANCH  57  58
ENDBRANCH  56  57
ENDBRANCH  55  56
ENDBRANCH  53  55
ENDBRANCH  52  53
BRANCH  52  65
HETATM   65  O   UNK N   1      28.547  19.690   4.109  0.00  0.00    -0.350 OA
HETATM   66  H   UNK N   1      29.459  19.630   3.906  0.00  0.00     0.219 HD
ENDBRANCH  52  65
ENDBRANCH  51  52
ENDBRANCH  50  51
ENDBRANCH  48  50
ENDBRANCH  47  48
BRANCH  47  67
HETATM   67  O   UNK N   1      27.834  17.384   8.563  0.00  0.00    -0.348 OA
HETATM   68  H   UNK N   1      27.048  17.829   8.813  0.00  0.00     0.219 HD
ENDBRANCH  47  67
ENDBRANCH  46  47
BRANCH  46  69
HETATM   69  O   UNK N   1      30.414  16.968   8.822  0.00  0.00    -0.387 OA
HETATM   70  H   UNK N   1      29.998  16.911   9.696  0.00  0.00     0.210 HD
ENDBRANCH  46  69
ENDBRANCH  43  46
ENDBRANCH  42  43
ENDBRANCH  41  42
ENDBRANCH  37  41
ENDBRANCH   1  37
TORSDOF 33
ENDMDL
MODEL 8
REMARK VINA RESULT:      -6.1      2.086      3.009
REMARK WARNING: 32 MAX_TORS EXCEEDED!!!
REMARK  33 active torsions:
REMARK  status: ('A' for Active; 'I' for Inactive)
REMARK    1  A    between atoms: C_4  and  C_3 
REMARK    2  A    between atoms: C_14  and  C_3 
REMARK    3  A    between atoms: N_31  and  C_4 
REMARK    4  A    between atoms: C_6  and  C_5 
REMARK    5  A    between atoms: N_29  and  C_5 
REMARK    6  A    between atoms: S_60  and  C_6 
REMARK    7  A    between atoms: C_12  and  C_7 
REMARK    8  A    between atoms: O_52  and  C_7 
REMARK    9  A    between atoms: C_13  and  C_8 
REMARK   10  A    between atoms: S_60  and  C_8 
REMARK   11  A    between atoms: C_23  and  C_9 
REMARK   12  A    between atoms: O_53  and  C_9 
REMARK   13  A    between atoms: C_24  and  C_13 
REMARK   14  A    between atoms: N_29  and  C_14 
REMARK   15  A    between atoms: O_41  and  C_14 
REMARK   16  A    between atoms: C_16  and  O_42 
REMARK   17  A    between atoms: C_17  and  O_55 
REMARK   18  A    between atoms: C_21  and  C_18 
REMARK   19  A    between atoms: C_23  and  C_18 
REMARK   20  A    between atoms: C_18  and  O_43 
REMARK   21  A    between atoms: N_28  and  C_19 
REMARK   22  A    between atoms: N_31  and  C_21 
REMARK   23  A    between atoms: O_44  and  C_21 
REMARK   24  A    between atoms: C_22  and  N_39 
REMARK   25  A    between atoms: P_57  and  O_45 
REMARK   26  A    between atoms: P_57  and  O_46 
REMARK   27  A    between atoms: P_58  and  O_48 
REMARK   28  A    between atoms: P_59  and  O_50 
REMARK   29  A    between atoms: P_58  and  O_52 
REMARK   30  A    between atoms: P_59  and  O_53 
REMARK   31  A    between atoms: P_57  and  O_55 
REMARK   32  A    between atoms: P_58  and  O_56 
REMARK   33  A    between atoms: P_59  and  O_56 
ROOT
HETATM    1  O   UNK N   1      19.996  16.962   5.204  0.00  0.00    -0.195 OA
ENDROOT
BRANCH   1   2
HETATM    2  P   UNK N   1      21.380  16.737   6.247  0.00  0.00     0.401 P 
HETATM    3  O   UNK N   1      22.042  18.131   6.418  0.00  0.00    -0.631 OA
BRANCH   2   4
HETATM    4  O   UNK N   1      20.922  16.249   7.849  0.00  0.00    -0.307 OA
HETATM    5  H   UNK N   1      20.342  16.104   8.613  0.00  0.00     0.222 HD
ENDBRANCH   2   4
BRANCH   2   6
HETATM    6  O   UNK N   1      22.601  15.678   5.602  0.00  0.00    -0.294 OA
BRANCH   6   7
HETATM    7  C   UNK N   1      23.825  16.349   5.702  0.00  0.00     0.215 C 
BRANCH   7   8
HETATM    8  C   UNK N   1      24.952  15.573   5.003  0.00  0.00     0.180 C 
HETATM    9  C   UNK N   1      25.323  14.261   5.712  0.00  0.00     0.197 C 
HETATM   10  C   UNK N   1      26.678  14.040   5.116  0.00  0.00     0.199 C 
HETATM   11  C   UNK N   1      27.211  15.471   5.255  0.00  0.00     0.262 C 
HETATM   12  O   UNK N   1      26.143  16.340   4.903  0.00  0.00    -0.353 OA
BRANCH   9  13
HETATM   13  O   UNK N   1      24.452  13.187   5.429  0.00  0.00    -0.286 OA
BRANCH  13  14
HETATM   14  P   UNK N   1      23.845  12.508   6.923  0.00  0.00     0.391 P 
HETATM   15  O   UNK N   1      24.790  12.966   8.063  0.00  0.00    -0.632 OA
BRANCH  14  16
HETATM   16  O   UNK N   1      23.804  10.770   6.920  0.00  0.00    -0.307 OA
HETATM   17  H   UNK N   1      23.401   9.889   6.945  0.00  0.00     0.222 HD
ENDBRANCH  14  16
BRANCH  14  18
HETATM   18  O   UNK N   1      22.274  13.141   7.298  0.00  0.00    -0.307 OA
HETATM   19  H   UNK N   1      22.069  14.072   7.117  0.00  0.00     0.222 HD
ENDBRANCH  14  18
ENDBRANCH  13  14
ENDBRANCH   9  13
BRANCH  10  20
HETATM   20  O   UNK N   1      26.539  13.690   3.764  0.00  0.00    -0.388 OA
HETATM   21  H   UNK N   1      26.484  13.053   3.036  0.00  0.00     0.210 HD
ENDBRANCH  10  20
BRANCH  11  22
HETATM   22  N   UNK N   1      28.420  15.757   4.463  0.00  0.00    -0.297 N 
HETATM   23  C   UNK N   1      28.443  16.556   3.364  0.00  0.00     0.188 A 
HETATM   24  N   UNK N   1      29.697  16.654   2.840  0.00  0.00    -0.346 N 
HETATM   25  C   UNK N   1      30.459  15.909   3.657  0.00  0.00     0.122 A 
ATOM     26  HN  UNK N   1      29.989  17.176   2.014  1.00  0.00     0.167 HD
HETATM   27  C   UNK N   1      31.823  15.665   3.618  0.00  0.00     0.131 A 
HETATM   28  C   UNK N   1      29.700  15.371   4.632  0.00  0.00     0.142 A 
HETATM   29  N   UNK N   1      32.362  14.881   4.597  0.00  0.00    -0.337 N 
HETATM   30  C   UNK N   1      31.575  14.352   5.591  0.00  0.00     0.183 A 
ATOM     31  HN  UNK N   1      33.364  14.685   4.591  1.00  0.00     0.168 HD
HETATM   32  N   UNK N   1      30.228  14.598   5.613  0.00  0.00    -0.336 N 
ATOM     33  HN  UNK N   1      29.637  14.211   6.350  1.00  0.00     0.168 HD
BRANCH  27  34
HETATM   34  N   UNK N   1      32.637  16.212   2.606  0.00  0.00    -0.383 N 
HETATM   35  H   UNK N   1      32.646  15.809   1.708  0.00  0.00     0.157 HD
HETATM   36  H   UNK N   1      33.198  16.998   2.797  0.00  0.00     0.157 HD
ENDBRANCH  27  34
ENDBRANCH  11  22
ENDBRANCH   7   8
ENDBRANCH   6   7
ENDBRANCH   2   6
ENDBRANCH   1   2
BRANCH   1  37
HETATM   37  P   UNK N   1      19.151  15.436   5.125  0.00  0.00     0.401 P 
HETATM   38  O   UNK N   1      17.743  15.711   5.723  0.00  0.00    -0.631 OA
BRANCH  37  39
HETATM   39  O   UNK N   1      19.901  14.234   6.127  0.00  0.00    -0.307 OA
HETATM   40  H   UNK N   1      19.855  13.534   6.797  0.00  0.00     0.222 HD
ENDBRANCH  37  39
BRANCH  37  41
HETATM   41  O   UNK N   1      18.931  14.904   3.480  0.00  0.00    -0.296 OA
BRANCH  41  42
HETATM   42  C   UNK N   1      20.115  14.271   3.060  0.00  0.00     0.192 C 
BRANCH  42  43
HETATM   43  C   UNK N   1      20.506  14.672   1.624  0.00  0.00     0.008 C 
HETATM   44  C   UNK N   1      21.536  13.699   1.078  0.00  0.00     0.020 C 
HETATM   45  C   UNK N   1      19.293  14.588   0.712  0.00  0.00     0.020 C 
BRANCH  43  46
HETATM   46  C   UNK N   1      21.139  16.088   1.561  0.00  0.00     0.202 C 
BRANCH  46  47
HETATM   47  C   UNK N   1      20.227  17.240   1.211  0.00  0.00     0.141 C 
BRANCH  47  48
HETATM   48  N   UNK N   1      19.476  17.797   2.097  0.00  0.00    -0.372 N 
ATOM     49  HN  UNK N   1      18.855  17.219   2.663  1.00  0.00     0.161 HD
BRANCH  48  50
HETATM   50  C   UNK N   1      19.497  19.226   2.302  0.00  0.00     0.129 C 
BRANCH  50  51
HETATM   51  C   UNK N   1      20.378  19.598   3.484  0.00  0.00     0.103 C 
BRANCH  51  52
HETATM   52  C   UNK N   1      21.785  19.862   3.064  0.00  0.00     0.112 C 
BRANCH  52  53
HETATM   53  N   UNK N   1      22.751  19.404   3.781  0.00  0.00    -0.374 N 
ATOM     54  HN  UNK N   1      22.569  19.162   4.755  1.00  0.00     0.161 HD
BRANCH  53  55
HETATM   55  C   UNK N   1      24.080  19.224   3.253  0.00  0.00     0.131 C 
BRANCH  55  56
HETATM   56  C   UNK N   1      24.895  20.489   3.440  0.00  0.00     0.094 C 
BRANCH  56  57
HETATM   57  S   UNK N   1      26.618  20.023   3.758  0.00  0.00    -0.160 SA
BRANCH  57  58
HETATM   58  C   UNK N   1      26.293  19.541   5.480  0.00  0.00     0.162 C 
BRANCH  58  59
HETATM   59  C   UNK N   1      27.479  19.879   6.329  0.00  0.00     0.241 C 
HETATM   60  O   UNK N   1      27.796  21.050   6.460  0.00  0.00    -0.287 OA
BRANCH  59  61
HETATM   61  C   UNK N   1      28.281  18.802   7.011  0.00  0.00     0.451 C 
HETATM   62  F   UNK N   1      27.438  17.786   7.421  0.00  0.00    -0.163 F 
HETATM   63  F   UNK N   1      29.222  18.280   6.141  0.00  0.00    -0.163 F 
HETATM   64  F   UNK N   1      28.939  19.316   8.113  0.00  0.00    -0.163 F 
ENDBRANCH  59  61
ENDBRANCH  58  59
ENDBRANCH  57  58
ENDBRANCH  56  57
ENDBRANCH  55  56
ENDBRANCH  53  55
ENDBRANCH  52  53
BRANCH  52  65
HETATM   65  O   UNK N   1      22.029  20.562   1.935  0.00  0.00    -0.350 OA
HETATM   66  H   UNK N   1      21.781  20.867   1.085  0.00  0.00     0.219 HD
ENDBRANCH  52  65
ENDBRANCH  51  52
ENDBRANCH  50  51
ENDBRANCH  48  50
ENDBRANCH  47  48
BRANCH  47  67
HETATM   67  O   UNK N   1      20.207  17.677  -0.067  0.00  0.00    -0.348 OA
HETATM   68  H   UNK N   1      19.440  18.080  -0.424  0.00  0.00     0.219 HD
ENDBRANCH  47  67
ENDBRANCH  46  47
BRANCH  46  69
HETATM   69  O   UNK N   1      21.769  16.378   2.775  0.00  0.00    -0.387 OA
HETATM   70  H   UNK N   1      21.663  17.020   3.495  0.00  0.00     0.210 HD
ENDBRANCH  46  69
ENDBRANCH  43  46
ENDBRANCH  42  43
ENDBRANCH  41  42
ENDBRANCH  37  41
ENDBRANCH   1  37
TORSDOF 33
ENDMDL
MODEL 9
REMARK VINA RESULT:      -6.0      5.052      8.224
REMARK WARNING: 32 MAX_TORS EXCEEDED!!!
REMARK  33 active torsions:
REMARK  status: ('A' for Active; 'I' for Inactive)
REMARK    1  A    between atoms: C_4  and  C_3 
REMARK    2  A    between atoms: C_14  and  C_3 
REMARK    3  A    between atoms: N_31  and  C_4 
REMARK    4  A    between atoms: C_6  and  C_5 
REMARK    5  A    between atoms: N_29  and  C_5 
REMARK    6  A    between atoms: S_60  and  C_6 
REMARK    7  A    between atoms: C_12  and  C_7 
REMARK    8  A    between atoms: O_52  and  C_7 
REMARK    9  A    between atoms: C_13  and  C_8 
REMARK   10  A    between atoms: S_60  and  C_8 
REMARK   11  A    between atoms: C_23  and  C_9 
REMARK   12  A    between atoms: O_53  and  C_9 
REMARK   13  A    between atoms: C_24  and  C_13 
REMARK   14  A    between atoms: N_29  and  C_14 
REMARK   15  A    between atoms: O_41  and  C_14 
REMARK   16  A    between atoms: C_16  and  O_42 
REMARK   17  A    between atoms: C_17  and  O_55 
REMARK   18  A    between atoms: C_21  and  C_18 
REMARK   19  A    between atoms: C_23  and  C_18 
REMARK   20  A    between atoms: C_18  and  O_43 
REMARK   21  A    between atoms: N_28  and  C_19 
REMARK   22  A    between atoms: N_31  and  C_21 
REMARK   23  A    between atoms: O_44  and  C_21 
REMARK   24  A    between atoms: C_22  and  N_39 
REMARK   25  A    between atoms: P_57  and  O_45 
REMARK   26  A    between atoms: P_57  and  O_46 
REMARK   27  A    between atoms: P_58  and  O_48 
REMARK   28  A    between atoms: P_59  and  O_50 
REMARK   29  A    between atoms: P_58  and  O_52 
REMARK   30  A    between atoms: P_59  and  O_53 
REMARK   31  A    between atoms: P_57  and  O_55 
REMARK   32  A    between atoms: P_58  and  O_56 
REMARK   33  A    between atoms: P_59  and  O_56 
ROOT
HETATM    1  O   UNK N   1      30.935  12.648   5.298  0.00  0.00    -0.195 OA
ENDROOT
BRANCH   1   2
HETATM    2  P   UNK N   1      31.741  13.997   4.533  0.00  0.00     0.401 P 
HETATM    3  O   UNK N   1      32.402  13.448   3.240  0.00  0.00    -0.631 OA
BRANCH   2   4
HETATM    4  O   UNK N   1      30.621  15.210   3.993  0.00  0.00    -0.307 OA
HETATM    5  H   UNK N   1      29.953  15.909   4.061  0.00  0.00     0.222 HD
ENDBRANCH   2   4
BRANCH   2   6
HETATM    6  O   UNK N   1      33.013  14.708   5.484  0.00  0.00    -0.294 OA
BRANCH   6   7
HETATM    7  C   UNK N   1      32.959  16.092   5.277  0.00  0.00     0.215 C 
BRANCH   7   8
HETATM    8  C   UNK N   1      32.287  16.812   6.455  0.00  0.00     0.180 C 
HETATM    9  C   UNK N   1      32.238  15.970   7.740  0.00  0.00     0.197 C 
HETATM   10  C   UNK N   1      31.156  16.705   8.469  0.00  0.00     0.199 C 
HETATM   11  C   UNK N   1      30.175  16.858   7.301  0.00  0.00     0.262 C 
HETATM   12  O   UNK N   1      30.951  17.188   6.157  0.00  0.00    -0.353 OA
BRANCH   9  13
HETATM   13  O   UNK N   1      33.444  15.966   8.474  0.00  0.00    -0.286 OA
BRANCH  13  14
HETATM   14  P   UNK N   1      33.512  14.544   9.492  0.00  0.00     0.391 P 
HETATM   15  O   UNK N   1      34.906  13.896   9.297  0.00  0.00    -0.632 OA
BRANCH  14  16
HETATM   16  O   UNK N   1      32.304  13.358   9.094  0.00  0.00    -0.307 OA
HETATM   17  H   UNK N   1      31.434  12.930   9.119  0.00  0.00     0.222 HD
ENDBRANCH  14  16
BRANCH  14  18
HETATM   18  O   UNK N   1      33.395  14.975  11.168  0.00  0.00    -0.307 OA
HETATM   19  H   UNK N   1      33.711  15.841  11.470  0.00  0.00     0.222 HD
ENDBRANCH  14  18
ENDBRANCH  13  14
ENDBRANCH   9  13
BRANCH  10  20
HETATM   20  O   UNK N   1      31.640  17.957   8.879  0.00  0.00    -0.388 OA
HETATM   21  H   UNK N   1      32.124  18.786   8.739  0.00  0.00     0.210 HD
ENDBRANCH  10  20
BRANCH  11  22
HETATM   22  N   UNK N   1      29.101  17.842   7.524  0.00  0.00    -0.297 N 
HETATM   23  C   UNK N   1      28.519  18.078   8.729  0.00  0.00     0.188 A 
HETATM   24  N   UNK N   1      27.567  19.049   8.645  0.00  0.00    -0.346 N 
HETATM   25  C   UNK N   1      27.587  19.426   7.356  0.00  0.00     0.122 A 
ATOM     26  HN  UNK N   1      26.974  19.409   9.393  1.00  0.00     0.167 HD
HETATM   27  C   UNK N   1      26.841  20.397   6.705  0.00  0.00     0.131 A 
HETATM   28  C   UNK N   1      28.505  18.708   6.681  0.00  0.00     0.142 A 
HETATM   29  N   UNK N   1      27.077  20.602   5.376  0.00  0.00    -0.337 N 
HETATM   30  C   UNK N   1      28.027  19.869   4.707  0.00  0.00     0.183 A 
ATOM     31  HN  UNK N   1      26.541  21.310   4.872  1.00  0.00     0.168 HD
HETATM   32  N   UNK N   1      28.753  18.910   5.363  0.00  0.00    -0.336 N 
ATOM     33  HN  UNK N   1      29.462  18.365   4.873  1.00  0.00     0.168 HD
BRANCH  27  34
HETATM   34  N   UNK N   1      25.872  21.157   7.388  0.00  0.00    -0.383 N 
HETATM   35  H   UNK N   1      25.841  22.134   7.275  0.00  0.00     0.157 HD
HETATM   36  H   UNK N   1      25.224  20.711   7.980  0.00  0.00     0.157 HD
ENDBRANCH  27  34
ENDBRANCH  11  22
ENDBRANCH   7   8
ENDBRANCH   6   7
ENDBRANCH   2   6
ENDBRANCH   1   2
BRANCH   1  37
HETATM   37  P   UNK N   1      29.762  12.030   4.162  0.00  0.00     0.401 P 
HETATM   38  O   UNK N   1      28.917  10.998   4.960  0.00  0.00    -0.631 OA
BRANCH  37  39
HETATM   39  O   UNK N   1      30.521  11.166   2.862  0.00  0.00    -0.307 OA
HETATM   40  H   UNK N   1      31.277  10.691   2.481  0.00  0.00     0.222 HD
ENDBRANCH  37  39
BRANCH  37  41
HETATM   41  O   UNK N   1      28.682  13.278   3.605  0.00  0.00    -0.296 OA
BRANCH  41  42
HETATM   42  C   UNK N   1      27.445  13.113   4.255  0.00  0.00     0.192 C 
BRANCH  42  43
HETATM   43  C   UNK N   1      26.263  13.552   3.370  0.00  0.00     0.008 C 
HETATM   44  C   UNK N   1      26.273  12.771   2.068  0.00  0.00     0.020 C 
HETATM   45  C   UNK N   1      24.948  13.236   4.064  0.00  0.00     0.020 C 
BRANCH  43  46
HETATM   46  C   UNK N   1      26.334  15.058   2.997  0.00  0.00     0.202 C 
BRANCH  46  47
HETATM   47  C   UNK N   1      26.696  16.027   4.096  0.00  0.00     0.141 C 
BRANCH  47  48
HETATM   48  N   UNK N   1      25.791  16.640   4.780  0.00  0.00    -0.372 N 
ATOM     49  HN  UNK N   1      25.589  16.333   5.731  1.00  0.00     0.161 HD
BRANCH  48  50
HETATM   50  C   UNK N   1      25.059  17.752   4.221  0.00  0.00     0.129 C 
BRANCH  50  51
HETATM   51  C   UNK N   1      23.730  17.947   4.936  0.00  0.00     0.103 C 
BRANCH  51  52
HETATM   52  C   UNK N   1      22.703  16.971   4.469  0.00  0.00     0.112 C 
BRANCH  52  53
HETATM   53  N   UNK N   1      21.530  16.992   4.999  0.00  0.00    -0.374 N 
ATOM     54  HN  UNK N   1      20.750  17.361   4.455  1.00  0.00     0.161 HD
BRANCH  53  55
HETATM   55  C   UNK N   1      21.284  16.513   6.336  0.00  0.00     0.131 C 
BRANCH  55  56
HETATM   56  C   UNK N   1      20.644  17.602   7.175  0.00  0.00     0.094 C 
BRANCH  56  57
HETATM   57  S   UNK N   1      19.758  16.824   8.552  0.00  0.00    -0.160 SA
BRANCH  57  58
HETATM   58  C   UNK N   1      20.982  15.493   8.742  0.00  0.00     0.162 C 
BRANCH  58  59
HETATM   59  C   UNK N   1      20.375  14.357   9.506  0.00  0.00     0.241 C 
HETATM   60  O   UNK N   1      19.177  14.379   9.741  0.00  0.00    -0.287 OA
BRANCH  59  61
HETATM   61  C   UNK N   1      21.216  13.205   9.987  0.00  0.00     0.451 C 
HETATM   62  F   UNK N   1      22.480  13.659  10.312  0.00  0.00    -0.163 F 
HETATM   63  F   UNK N   1      20.644  12.628  11.108  0.00  0.00    -0.163 F 
HETATM   64  F   UNK N   1      21.321  12.241   9.002  0.00  0.00    -0.163 F 
ENDBRANCH  59  61
ENDBRANCH  58  59
ENDBRANCH  57  58
ENDBRANCH  56  57
ENDBRANCH  55  56
ENDBRANCH  53  55
ENDBRANCH  52  53
BRANCH  52  65
HETATM   65  O   UNK N   1      23.007  16.090   3.490  0.00  0.00    -0.350 OA
HETATM   66  H   UNK N   1      23.608  15.714   2.879  0.00  0.00     0.219 HD
ENDBRANCH  52  65
ENDBRANCH  51  52
ENDBRANCH  50  51
ENDBRANCH  48  50
ENDBRANCH  47  48
BRANCH  47  67
HETATM   67  O   UNK N   1      28.005  16.251   4.350  0.00  0.00    -0.348 OA
HETATM   68  H   UNK N   1      28.489  16.881   3.853  0.00  0.00     0.219 HD
ENDBRANCH  47  67
ENDBRANCH  46  47
BRANCH  46  69
HETATM   69  O   UNK N   1      27.230  15.239   1.938  0.00  0.00    -0.387 OA
HETATM   70  H   UNK N   1      27.518  14.740   1.157  0.00  0.00     0.210 HD
ENDBRANCH  46  69
ENDBRANCH  43  46
ENDBRANCH  42  43
ENDBRANCH  41  42
ENDBRANCH  37  41
ENDBRANCH   1  37
TORSDOF 33
ENDMDL
