REMARK  8 active torsions:
REMARK  status: ('A' for Active; 'I' for Inactive)
REMARK    1  A    between atoms: C_2  and  N_1 
REMARK    2  A    between atoms: C_2  and  C_3 
REMARK    3  A    between atoms: C_2  and  C_15 
REMARK    4  A    between atoms: C_3  and  O_4 
REMARK    5  A    between atoms: O_4  and  S_5 
REMARK    6  A    between atoms: S_5  and  C_8 
REMARK    7  A    between atoms: C_8  and  C_9 
REMARK    8  A    between atoms: C_15  and  O_16 
ROOT
HETATM    1  O   UNK N   1       0.496  -0.846  -0.196  0.00  0.00    -0.273 OA
ENDROOT
BRANCH   1   2
HETATM    2  C   UNK N   1       1.704  -0.773   0.506  0.00  0.00     0.225 C 
BRANCH   2   3
HETATM    3  C   UNK N   1       2.824  -0.325  -0.410  0.00  0.00     0.198 C 
BRANCH   3   4
HETATM    4  N   UNK N   1       3.138   1.068  -0.136  0.00  0.00    -0.416 N 
HETATM    5  H   UNK N   1       4.094   1.365   0.056  0.00  0.00     0.150 HD
HETATM    6  H   UNK N   1       2.389   1.760  -0.136  0.00  0.00     0.150 HD
ENDBRANCH   3   4
BRANCH   3   7
HETATM    7  C   UNK N   1       4.017  -1.204  -0.181  0.00  0.00     0.165 C 
HETATM    8  O   UNK N   1       3.941  -2.397  -0.412  0.00  0.00    -0.648 OA
BRANCH   7   9
HETATM    9  O   UNK N   1       5.174  -0.686   0.281  0.00  0.00    -0.775 OA
HETATM   10  H   UNK N   1       5.887  -1.202   0.601  0.00  0.00     0.167 HD
ENDBRANCH   7   9
ENDBRANCH   3   7
ENDBRANCH   2   3
ENDBRANCH   1   2
BRANCH   1  11
HETATM   11  S   UNK N   1      -0.244  -2.312   0.330  0.00  0.00     0.269 S 
HETATM   12  O   UNK N   1      -0.861  -2.058  -1.052  0.00  0.00    -0.198 OA
HETATM   13  O   UNK N   1      -0.887  -1.267   1.256  0.00  0.00    -0.198 OA
BRANCH  11  14
HETATM   14  C   UNK N   1      -2.066  -2.755   0.424  0.00  0.00     0.209 C 
BRANCH  14  15
HETATM   15  C   UNK N   1      -3.224  -1.785   0.157  0.00  0.00    -0.042 A 
HETATM   16  C   UNK N   1      -4.533  -2.269   0.260  0.00  0.00     0.008 A 
HETATM   17  C   UNK N   1      -5.622  -1.419   0.037  0.00  0.00     0.001 A 
HETATM   18  C   UNK N   1      -5.408  -0.077  -0.288  0.00  0.00     0.000 A 
HETATM   19  C   UNK N   1      -4.105   0.416  -0.396  0.00  0.00     0.001 A 
HETATM   20  C   UNK N   1      -3.019  -0.434  -0.178  0.00  0.00     0.008 A 
ENDBRANCH  14  15
ENDBRANCH  11  14
ENDBRANCH   1  11
TORSDOF 8
