MODEL 1
REMARK VINA RESULT:      -7.5      0.000      0.000
REMARK  17 active torsions:
REMARK  status: ('A' for Active; 'I' for Inactive)
REMARK    1  A    between atoms: C_6  and  C_1 
REMARK    2  A    between atoms: O_34  and  C_1 
REMARK    3  A    between atoms: C_7  and  C_2 
REMARK    4  A    between atoms: O_35  and  C_2 
REMARK    5  A    between atoms: P_38  and  C_5 
REMARK    6  A    between atoms: P_39  and  C_5 
REMARK    7  A    between atoms: C_9  and  O_25 
REMARK    8  A    between atoms: C_10  and  O_26 
REMARK    9  A    between atoms: C_11  and  O_27 
REMARK   10  A    between atoms: C_12  and  O_28 
REMARK   11  A    between atoms: N_17  and  C_13 
REMARK   12  A    between atoms: C_15  and  N_24 
REMARK   13  A    between atoms: C_16  and  O_29 
REMARK   14  A    between atoms: P_38  and  O_30 
REMARK   15  A    between atoms: P_39  and  O_32 
REMARK   16  A    between atoms: P_38  and  O_34 
REMARK   17  A    between atoms: P_39  and  O_35 
ROOT
HETATM    1  C   UNK N   1      33.608  15.311  10.114  0.00  0.00     0.179 C 
HETATM    2  C   UNK N   1      34.880  16.175   9.914  0.00  0.00     0.182 C 
HETATM    3  C   UNK N   1      35.647  15.915  11.197  0.00  0.00     0.198 C 
HETATM    4  C   UNK N   1      35.174  14.504  11.458  0.00  0.00     0.262 C 
HETATM    5  O   UNK N   1      33.777  14.618  11.332  0.00  0.00    -0.353 OA
ENDROOT
BRANCH   1   6
HETATM    6  C   UNK N   1      33.434  14.200   9.077  0.00  0.00     0.213 C 
BRANCH   6   7
HETATM    7  O   UNK N   1      33.895  14.502   7.803  0.00  0.00    -0.316 OA
BRANCH   7   8
HETATM    8  P   UNK N   1      33.368  13.117   6.877  0.00  0.00     0.249 P 
HETATM    9  O   UNK N   1      34.517  12.477   6.050  0.00  0.00    -0.653 OA
BRANCH   8  10
HETATM   10  C   UNK N   1      33.554  14.362   5.483  0.00  0.00     0.250 C 
BRANCH  10  11
HETATM   11  P   UNK N   1      33.006  16.077   5.795  0.00  0.00     0.249 P 
HETATM   12  O   UNK N   1      32.659  16.554   4.352  0.00  0.00    -0.653 OA
BRANCH  11  13
HETATM   13  O   UNK N   1      34.506  16.724   6.390  0.00  0.00    -0.329 OA
HETATM   14  H   UNK N   1      34.736  16.647   7.330  0.00  0.00     0.220 HD
ENDBRANCH  11  13
BRANCH  11  15
HETATM   15  O   UNK N   1      31.626  15.847   6.863  0.00  0.00    -0.316 OA
BRANCH  15  16
HETATM   16  C   UNK N   1      30.513  16.480   6.325  0.00  0.00     0.213 C 
BRANCH  16  17
HETATM   17  C   UNK N   1      29.992  17.567   7.270  0.00  0.00     0.180 C 
HETATM   18  C   UNK N   1      30.568  17.531   8.687  0.00  0.00     0.182 C 
HETATM   19  C   UNK N   1      29.649  18.533   9.300  0.00  0.00     0.204 C 
HETATM   20  C   UNK N   1      28.332  18.004   8.747  0.00  0.00     0.288 C 
HETATM   21  O   UNK N   1      28.582  17.550   7.421  0.00  0.00    -0.349 OA
BRANCH  18  22
HETATM   22  O   UNK N   1      31.908  17.914   8.740  0.00  0.00    -0.390 OA
HETATM   23  H   UNK N   1      32.492  17.923   9.515  0.00  0.00     0.210 HD
ENDBRANCH  18  22
BRANCH  19  24
HETATM   24  O   UNK N   1      29.694  18.546  10.695  0.00  0.00    -0.388 OA
HETATM   25  H   UNK N   1      30.152  19.059  11.379  0.00  0.00     0.210 HD
ENDBRANCH  19  24
BRANCH  20  26
HETATM   26  O   UNK N   1      27.360  19.007   8.760  0.00  0.00    -0.369 OA
HETATM   27  H   UNK N   1      27.456  19.816   8.231  0.00  0.00     0.212 HD
ENDBRANCH  20  26
ENDBRANCH  16  17
ENDBRANCH  15  16
ENDBRANCH  11  15
ENDBRANCH  10  11
ENDBRANCH   8  10
BRANCH   8  28
HETATM   28  O   UNK N   1      31.940  13.339   5.915  0.00  0.00    -0.329 OA
HETATM   29  H   UNK N   1      31.855  12.889   5.060  0.00  0.00     0.220 HD
ENDBRANCH   8  28
ENDBRANCH   7   8
ENDBRANCH   6   7
ENDBRANCH   1   6
BRANCH   2  30
HETATM   30  O   UNK N   1      34.591  17.534   9.764  0.00  0.00    -0.390 OA
HETATM   31  H   UNK N   1      34.769  18.275   9.164  0.00  0.00     0.210 HD
ENDBRANCH   2  30
BRANCH   3  32
HETATM   32  O   UNK N   1      37.028  16.027  11.022  0.00  0.00    -0.388 OA
HETATM   33  H   UNK N   1      37.653  16.767  10.966  0.00  0.00     0.210 HD
ENDBRANCH   3  32
BRANCH   4  34
HETATM   34  N   UNK N   1      35.527  13.891  12.738  0.00  0.00    -0.297 N 
HETATM   35  C   UNK N   1      36.327  14.502  13.656  0.00  0.00     0.188 A 
HETATM   36  N   UNK N   1      36.463  13.754  14.781  0.00  0.00    -0.346 N 
HETATM   37  C   UNK N   1      35.716  12.658  14.543  0.00  0.00     0.122 A 
ATOM     38  HN  UNK N   1      37.006  13.972  15.616  1.00  0.00     0.167 HD
HETATM   39  C   UNK N   1      35.466  11.575  15.359  0.00  0.00     0.131 A 
HETATM   40  C   UNK N   1      35.163  12.739  13.317  0.00  0.00     0.142 A 
HETATM   41  N   UNK N   1      34.643  10.593  14.880  0.00  0.00    -0.337 N 
HETATM   42  C   UNK N   1      34.088  10.688  13.626  0.00  0.00     0.183 A 
ATOM     43  HN  UNK N   1      34.439   9.779  15.462  1.00  0.00     0.168 HD
HETATM   44  N   UNK N   1      34.343  11.772  12.830  0.00  0.00    -0.336 N 
ATOM     45  HN  UNK N   1      33.930  11.851  11.901  1.00  0.00     0.168 HD
BRANCH  39  46
HETATM   46  N   UNK N   1      36.021  11.483  16.651  0.00  0.00    -0.383 N 
HETATM   47  H   UNK N   1      35.468  11.555  17.462  0.00  0.00     0.157 HD
HETATM   48  H   UNK N   1      36.991  11.342  16.744  0.00  0.00     0.157 HD
ENDBRANCH  39  46
ENDBRANCH   4  34
TORSDOF 17
ENDMDL
MODEL 2
REMARK VINA RESULT:      -7.5     10.600     13.000
REMARK  17 active torsions:
REMARK  status: ('A' for Active; 'I' for Inactive)
REMARK    1  A    between atoms: C_6  and  C_1 
REMARK    2  A    between atoms: O_34  and  C_1 
REMARK    3  A    between atoms: C_7  and  C_2 
REMARK    4  A    between atoms: O_35  and  C_2 
REMARK    5  A    between atoms: P_38  and  C_5 
REMARK    6  A    between atoms: P_39  and  C_5 
REMARK    7  A    between atoms: C_9  and  O_25 
REMARK    8  A    between atoms: C_10  and  O_26 
REMARK    9  A    between atoms: C_11  and  O_27 
REMARK   10  A    between atoms: C_12  and  O_28 
REMARK   11  A    between atoms: N_17  and  C_13 
REMARK   12  A    between atoms: C_15  and  N_24 
REMARK   13  A    between atoms: C_16  and  O_29 
REMARK   14  A    between atoms: P_38  and  O_30 
REMARK   15  A    between atoms: P_39  and  O_32 
REMARK   16  A    between atoms: P_38  and  O_34 
REMARK   17  A    between atoms: P_39  and  O_35 
ROOT
HETATM    1  C   UNK N   1      21.172  12.939   9.493  0.00  0.00     0.179 C 
HETATM    2  C   UNK N   1      22.245  12.751  10.596  0.00  0.00     0.182 C 
HETATM    3  C   UNK N   1      23.523  12.646   9.784  0.00  0.00     0.198 C 
HETATM    4  C   UNK N   1      23.125  13.530   8.625  0.00  0.00     0.262 C 
HETATM    5  O   UNK N   1      21.865  13.018   8.265  0.00  0.00    -0.353 OA
ENDROOT
BRANCH   1   6
HETATM    6  C   UNK N   1      20.413  14.265   9.576  0.00  0.00     0.213 C 
BRANCH   6   7
HETATM    7  O   UNK N   1      19.912  14.736   8.370  0.00  0.00    -0.316 OA
BRANCH   7   8
HETATM    8  P   UNK N   1      20.351  16.427   8.418  0.00  0.00     0.249 P 
HETATM    9  O   UNK N   1      19.248  17.314   9.058  0.00  0.00    -0.653 OA
BRANCH   8  10
HETATM   10  C   UNK N   1      19.079  16.482   7.038  0.00  0.00     0.250 C 
BRANCH  10  11
HETATM   11  P   UNK N   1      19.509  15.684   5.452  0.00  0.00     0.249 P 
HETATM   12  O   UNK N   1      18.198  14.899   5.140  0.00  0.00    -0.653 OA
BRANCH  11  13
HETATM   13  O   UNK N   1      20.801  14.665   6.016  0.00  0.00    -0.329 OA
HETATM   14  H   UNK N   1      20.614  13.769   6.337  0.00  0.00     0.220 HD
ENDBRANCH  11  13
BRANCH  11  15
HETATM   15  O   UNK N   1      19.826  17.063   4.406  0.00  0.00    -0.316 OA
BRANCH  15  16
HETATM   16  C   UNK N   1      20.870  16.758   3.541  0.00  0.00     0.213 C 
BRANCH  16  17
HETATM   17  C   UNK N   1      21.289  17.990   2.734  0.00  0.00     0.180 C 
HETATM   18  C   UNK N   1      21.382  19.292   3.531  0.00  0.00     0.182 C 
HETATM   19  C   UNK N   1      21.552  20.221   2.376  0.00  0.00     0.204 C 
HETATM   20  C   UNK N   1      20.446  19.678   1.481  0.00  0.00     0.288 C 
HETATM   21  O   UNK N   1      20.431  18.263   1.639  0.00  0.00    -0.349 OA
BRANCH  18  22
HETATM   22  O   UNK N   1      22.462  19.315   4.415  0.00  0.00    -0.390 OA
HETATM   23  H   UNK N   1      22.905  18.557   4.828  0.00  0.00     0.210 HD
ENDBRANCH  18  22
BRANCH  19  24
HETATM   24  O   UNK N   1      21.376  21.564   2.713  0.00  0.00    -0.388 OA
HETATM   25  H   UNK N   1      21.602  22.423   2.322  0.00  0.00     0.210 HD
ENDBRANCH  19  24
BRANCH  20  26
HETATM   26  O   UNK N   1      20.677  20.032   0.151  0.00  0.00    -0.369 OA
HETATM   27  H   UNK N   1      20.349  19.491  -0.585  0.00  0.00     0.212 HD
ENDBRANCH  20  26
ENDBRANCH  16  17
ENDBRANCH  15  16
ENDBRANCH  11  15
ENDBRANCH  10  11
ENDBRANCH   8  10
BRANCH   8  28
HETATM   28  O   UNK N   1      20.932  17.108   6.931  0.00  0.00    -0.329 OA
HETATM   29  H   UNK N   1      21.301  18.006   6.920  0.00  0.00     0.220 HD
ENDBRANCH   8  28
ENDBRANCH   7   8
ENDBRANCH   6   7
ENDBRANCH   1   6
BRANCH   2  30
HETATM   30  O   UNK N   1      22.037  11.599  11.360  0.00  0.00    -0.390 OA
HETATM   31  H   UNK N   1      21.427  11.242  12.024  0.00  0.00     0.210 HD
ENDBRANCH   2  30
BRANCH   3  32
HETATM   32  O   UNK N   1      24.639  13.103  10.488  0.00  0.00    -0.388 OA
HETATM   33  H   UNK N   1      25.589  12.903  10.469  0.00  0.00     0.210 HD
ENDBRANCH   3  32
BRANCH   4  34
HETATM   34  N   UNK N   1      24.012  13.577   7.464  0.00  0.00    -0.297 N 
HETATM   35  C   UNK N   1      24.780  12.520   7.078  0.00  0.00     0.188 A 
HETATM   36  N   UNK N   1      25.476  12.794   5.944  0.00  0.00    -0.346 N 
HETATM   37  C   UNK N   1      25.113  14.052   5.627  0.00  0.00     0.122 A 
ATOM     38  HN  UNK N   1      26.125  12.186   5.445  1.00  0.00     0.167 HD
HETATM   39  C   UNK N   1      25.490  14.827   4.550  0.00  0.00     0.131 A 
HETATM   40  C   UNK N   1      24.243  14.520   6.543  0.00  0.00     0.142 A 
HETATM   41  N   UNK N   1      24.952  16.081   4.449  0.00  0.00    -0.337 N 
HETATM   42  C   UNK N   1      24.066  16.546   5.391  0.00  0.00     0.183 A 
ATOM     43  HN  UNK N   1      25.210  16.677   3.662  1.00  0.00     0.168 HD
HETATM   44  N   UNK N   1      23.700  15.763   6.452  0.00  0.00    -0.336 N 
ATOM     45  HN  UNK N   1      23.039  16.100   7.153  1.00  0.00     0.168 HD
BRANCH  39  46
HETATM   46  N   UNK N   1      26.385  14.346   3.574  0.00  0.00    -0.383 N 
HETATM   47  H   UNK N   1      27.321  14.130   3.788  0.00  0.00     0.157 HD
HETATM   48  H   UNK N   1      26.064  14.224   2.652  0.00  0.00     0.157 HD
ENDBRANCH  39  46
ENDBRANCH   4  34
TORSDOF 17
ENDMDL
MODEL 3
REMARK VINA RESULT:      -7.3     10.554     13.211
REMARK  17 active torsions:
REMARK  status: ('A' for Active; 'I' for Inactive)
REMARK    1  A    between atoms: C_6  and  C_1 
REMARK    2  A    between atoms: O_34  and  C_1 
REMARK    3  A    between atoms: C_7  and  C_2 
REMARK    4  A    between atoms: O_35  and  C_2 
REMARK    5  A    between atoms: P_38  and  C_5 
REMARK    6  A    between atoms: P_39  and  C_5 
REMARK    7  A    between atoms: C_9  and  O_25 
REMARK    8  A    between atoms: C_10  and  O_26 
REMARK    9  A    between atoms: C_11  and  O_27 
REMARK   10  A    between atoms: C_12  and  O_28 
REMARK   11  A    between atoms: N_17  and  C_13 
REMARK   12  A    between atoms: C_15  and  N_24 
REMARK   13  A    between atoms: C_16  and  O_29 
REMARK   14  A    between atoms: P_38  and  O_30 
REMARK   15  A    between atoms: P_39  and  O_32 
REMARK   16  A    between atoms: P_38  and  O_34 
REMARK   17  A    between atoms: P_39  and  O_35 
ROOT
HETATM    1  C   UNK N   1      21.484  19.304   3.364  0.00  0.00     0.179 C 
HETATM    2  C   UNK N   1      22.136  20.444   2.540  0.00  0.00     0.182 C 
HETATM    3  C   UNK N   1      23.564  20.435   3.054  0.00  0.00     0.198 C 
HETATM    4  C   UNK N   1      23.675  18.963   3.377  0.00  0.00     0.262 C 
HETATM    5  O   UNK N   1      22.514  18.725   4.137  0.00  0.00    -0.353 OA
ENDROOT
BRANCH   1   6
HETATM    6  C   UNK N   1      20.957  18.142   2.521  0.00  0.00     0.213 C 
BRANCH   6   7
HETATM    7  O   UNK N   1      21.085  16.886   3.097  0.00  0.00    -0.316 OA
BRANCH   7   8
HETATM    8  P   UNK N   1      21.348  15.861   1.707  0.00  0.00     0.249 P 
HETATM    9  O   UNK N   1      20.430  16.230   0.509  0.00  0.00    -0.653 OA
BRANCH   8  10
HETATM   10  C   UNK N   1      19.697  15.175   2.283  0.00  0.00     0.250 C 
BRANCH  10  11
HETATM   11  P   UNK N   1      19.506  14.798   4.061  0.00  0.00     0.249 P 
HETATM   12  O   UNK N   1      18.629  13.510   4.008  0.00  0.00    -0.653 OA
BRANCH  11  13
HETATM   13  O   UNK N   1      18.616  16.215   4.533  0.00  0.00    -0.329 OA
HETATM   14  H   UNK N   1      18.035  16.194   5.309  0.00  0.00     0.220 HD
ENDBRANCH  11  13
BRANCH  11  15
HETATM   15  O   UNK N   1      21.170  14.553   4.579  0.00  0.00    -0.316 OA
BRANCH  15  16
HETATM   16  C   UNK N   1      21.185  14.094   5.890  0.00  0.00     0.213 C 
BRANCH  16  17
HETATM   17  C   UNK N   1      20.333  14.990   6.793  0.00  0.00     0.180 C 
HETATM   18  C   UNK N   1      20.990  16.305   7.216  0.00  0.00     0.182 C 
HETATM   19  C   UNK N   1      19.979  16.714   8.234  0.00  0.00     0.204 C 
HETATM   20  C   UNK N   1      19.844  15.386   8.968  0.00  0.00     0.288 C 
HETATM   21  O   UNK N   1      19.925  14.353   7.992  0.00  0.00    -0.349 OA
BRANCH  18  22
HETATM   22  O   UNK N   1      21.110  17.217   6.167  0.00  0.00    -0.390 OA
HETATM   23  H   UNK N   1      21.926  17.556   5.768  0.00  0.00     0.210 HD
ENDBRANCH  18  22
BRANCH  19  24
HETATM   24  O   UNK N   1      20.410  17.755   9.057  0.00  0.00    -0.388 OA
HETATM   25  H   UNK N   1      20.819  17.836   9.933  0.00  0.00     0.210 HD
ENDBRANCH  19  24
BRANCH  20  26
HETATM   26  O   UNK N   1      18.630  15.332   9.657  0.00  0.00    -0.369 OA
HETATM   27  H   UNK N   1      18.588  15.091  10.597  0.00  0.00     0.212 HD
ENDBRANCH  20  26
ENDBRANCH  16  17
ENDBRANCH  15  16
ENDBRANCH  11  15
ENDBRANCH  10  11
ENDBRANCH   8  10
BRANCH   8  28
HETATM   28  O   UNK N   1      21.345  14.151   2.007  0.00  0.00    -0.329 OA
HETATM   29  H   UNK N   1      20.804  13.785   2.725  0.00  0.00     0.220 HD
ENDBRANCH   8  28
ENDBRANCH   7   8
ENDBRANCH   6   7
ENDBRANCH   1   6
BRANCH   2  30
HETATM   30  O   UNK N   1      21.528  21.684   2.759  0.00  0.00    -0.390 OA
HETATM   31  H   UNK N   1      21.543  22.424   3.386  0.00  0.00     0.210 HD
ENDBRANCH   2  30
BRANCH   3  32
HETATM   32  O   UNK N   1      24.477  20.875   2.094  0.00  0.00    -0.388 OA
HETATM   33  H   UNK N   1      24.801  20.526   1.248  0.00  0.00     0.210 HD
ENDBRANCH   3  32
BRANCH   4  34
HETATM   34  N   UNK N   1      24.863  18.509   4.098  0.00  0.00    -0.297 N 
HETATM   35  C   UNK N   1      26.063  19.151   4.023  0.00  0.00     0.188 A 
HETATM   36  N   UNK N   1      26.994  18.567   4.821  0.00  0.00    -0.346 N 
HETATM   37  C   UNK N   1      26.339  17.545   5.404  0.00  0.00     0.122 A 
ATOM     38  HN  UNK N   1      27.968  18.841   4.950  1.00  0.00     0.167 HD
HETATM   39  C   UNK N   1      26.790  16.633   6.335  0.00  0.00     0.131 A 
HETATM   40  C   UNK N   1      25.066  17.508   4.964  0.00  0.00     0.142 A 
HETATM   41  N   UNK N   1      25.903  15.695   6.789  0.00  0.00    -0.337 N 
HETATM   42  C   UNK N   1      24.608  15.668   6.330  0.00  0.00     0.183 A 
ATOM     43  HN  UNK N   1      26.208  15.007   7.479  1.00  0.00     0.168 HD
HETATM   44  N   UNK N   1      24.175  16.584   5.409  0.00  0.00    -0.336 N 
ATOM     45  HN  UNK N   1      23.214  16.573   5.067  1.00  0.00     0.168 HD
BRANCH  39  46
HETATM   46  N   UNK N   1      28.112  16.668   6.819  0.00  0.00    -0.383 N 
HETATM   47  H   UNK N   1      28.626  15.846   6.994  0.00  0.00     0.157 HD
HETATM   48  H   UNK N   1      28.535  17.541   6.989  0.00  0.00     0.157 HD
ENDBRANCH  39  46
ENDBRANCH   4  34
TORSDOF 17
ENDMDL
MODEL 4
REMARK VINA RESULT:      -7.2      5.017      9.447
REMARK  17 active torsions:
REMARK  status: ('A' for Active; 'I' for Inactive)
REMARK    1  A    between atoms: C_6  and  C_1 
REMARK    2  A    between atoms: O_34  and  C_1 
REMARK    3  A    between atoms: C_7  and  C_2 
REMARK    4  A    between atoms: O_35  and  C_2 
REMARK    5  A    between atoms: P_38  and  C_5 
REMARK    6  A    between atoms: P_39  and  C_5 
REMARK    7  A    between atoms: C_9  and  O_25 
REMARK    8  A    between atoms: C_10  and  O_26 
REMARK    9  A    between atoms: C_11  and  O_27 
REMARK   10  A    between atoms: C_12  and  O_28 
REMARK   11  A    between atoms: N_17  and  C_13 
REMARK   12  A    between atoms: C_15  and  N_24 
REMARK   13  A    between atoms: C_16  and  O_29 
REMARK   14  A    between atoms: P_38  and  O_30 
REMARK   15  A    between atoms: P_39  and  O_32 
REMARK   16  A    between atoms: P_38  and  O_34 
REMARK   17  A    between atoms: P_39  and  O_35 
ROOT
HETATM    1  C   UNK N   1      33.233  16.185   4.816  0.00  0.00     0.179 C 
HETATM    2  C   UNK N   1      32.988  16.512   3.321  0.00  0.00     0.182 C 
HETATM    3  C   UNK N   1      31.489  16.311   3.191  0.00  0.00     0.198 C 
HETATM    4  C   UNK N   1      31.089  16.703   4.595  0.00  0.00     0.262 C 
HETATM    5  O   UNK N   1      31.966  15.942   5.390  0.00  0.00    -0.353 OA
ENDROOT
BRANCH   1   6
HETATM    6  C   UNK N   1      33.791  17.354   5.631  0.00  0.00     0.213 C 
BRANCH   6   7
HETATM    7  O   UNK N   1      34.543  16.995   6.741  0.00  0.00    -0.316 OA
BRANCH   7   8
HETATM    8  P   UNK N   1      33.992  18.131   7.949  0.00  0.00     0.249 P 
HETATM    9  O   UNK N   1      35.134  19.038   8.484  0.00  0.00    -0.653 OA
BRANCH   8  10
HETATM   10  C   UNK N   1      34.921  16.935   9.059  0.00  0.00     0.250 C 
BRANCH  10  11
HETATM   11  P   UNK N   1      34.276  15.231   9.202  0.00  0.00     0.249 P 
HETATM   12  O   UNK N   1      35.439  14.410   8.566  0.00  0.00    -0.653 OA
BRANCH  11  13
HETATM   13  O   UNK N   1      32.895  15.388   8.157  0.00  0.00    -0.329 OA
HETATM   14  H   UNK N   1      32.938  15.953   7.369  0.00  0.00     0.220 HD
ENDBRANCH  11  13
BRANCH  11  15
HETATM   15  O   UNK N   1      34.085  15.042  10.941  0.00  0.00    -0.316 OA
BRANCH  15  16
HETATM   16  C   UNK N   1      35.191  15.575  11.590  0.00  0.00     0.213 C 
BRANCH  16  17
HETATM   17  C   UNK N   1      35.891  14.513  12.442  0.00  0.00     0.180 C 
HETATM   18  C   UNK N   1      35.012  13.338  12.872  0.00  0.00     0.182 C 
HETATM   19  C   UNK N   1      35.965  12.720  13.840  0.00  0.00     0.204 C 
HETATM   20  C   UNK N   1      36.379  13.980  14.588  0.00  0.00     0.288 C 
HETATM   21  O   UNK N   1      36.458  15.033  13.633  0.00  0.00    -0.349 OA
BRANCH  18  22
HETATM   22  O   UNK N   1      34.681  12.490  11.814  0.00  0.00    -0.390 OA
HETATM   23  H   UNK N   1      34.131  11.690  11.846  0.00  0.00     0.210 HD
ENDBRANCH  18  22
BRANCH  19  24
HETATM   24  O   UNK N   1      35.375  11.760  14.663  0.00  0.00    -0.388 OA
HETATM   25  H   UNK N   1      34.659  11.110  14.583  0.00  0.00     0.210 HD
ENDBRANCH  19  24
BRANCH  20  26
HETATM   26  O   UNK N   1      37.606  13.787  15.226  0.00  0.00    -0.369 OA
HETATM   27  H   UNK N   1      37.927  12.900  15.455  0.00  0.00     0.212 HD
ENDBRANCH  20  26
ENDBRANCH  16  17
ENDBRANCH  15  16
ENDBRANCH  11  15
ENDBRANCH  10  11
ENDBRANCH   8  10
BRANCH   8  28
HETATM   28  O   UNK N   1      33.045  17.470   9.245  0.00  0.00    -0.329 OA
HETATM   29  H   UNK N   1      32.080  17.563   9.238  0.00  0.00     0.220 HD
ENDBRANCH   8  28
ENDBRANCH   7   8
ENDBRANCH   6   7
ENDBRANCH   1   6
BRANCH   2  30
HETATM   30  O   UNK N   1      33.688  15.661   2.460  0.00  0.00    -0.390 OA
HETATM   31  H   UNK N   1      34.584  15.511   2.122  0.00  0.00     0.210 HD
ENDBRANCH   2  30
BRANCH   3  32
HETATM   32  O   UNK N   1      30.929  17.115   2.197  0.00  0.00    -0.388 OA
HETATM   33  H   UNK N   1      30.143  17.681   2.136  0.00  0.00     0.210 HD
ENDBRANCH   3  32
BRANCH   4  34
HETATM   34  N   UNK N   1      29.702  16.478   4.999  0.00  0.00    -0.297 N 
HETATM   35  C   UNK N   1      29.328  15.459   5.822  0.00  0.00     0.188 A 
HETATM   36  N   UNK N   1      27.996  15.493   6.089  0.00  0.00    -0.346 N 
HETATM   37  C   UNK N   1      27.550  16.569   5.414  0.00  0.00     0.122 A 
ATOM     38  HN  UNK N   1      27.458  14.849   6.668  1.00  0.00     0.167 HD
HETATM   39  C   UNK N   1      26.277  17.098   5.352  0.00  0.00     0.131 A 
HETATM   40  C   UNK N   1      28.571  17.153   4.756  0.00  0.00     0.142 A 
HETATM   41  N   UNK N   1      26.093  18.228   4.603  0.00  0.00    -0.337 N 
HETATM   42  C   UNK N   1      27.143  18.811   3.935  0.00  0.00     0.183 A 
ATOM     43  HN  UNK N   1      25.162  18.643   4.539  1.00  0.00     0.168 HD
HETATM   44  N   UNK N   1      28.401  18.276   4.011  0.00  0.00    -0.336 N 
ATOM     45  HN  UNK N   1      29.187  18.706   3.522  1.00  0.00     0.168 HD
BRANCH  39  46
HETATM   46  N   UNK N   1      25.202  16.511   6.048  0.00  0.00    -0.383 N 
HETATM   47  H   UNK N   1      24.280  16.539   5.702  0.00  0.00     0.157 HD
HETATM   48  H   UNK N   1      25.378  16.061   6.905  0.00  0.00     0.157 HD
ENDBRANCH  39  46
ENDBRANCH   4  34
TORSDOF 17
ENDMDL
MODEL 5
REMARK VINA RESULT:      -7.0      7.235     10.644
REMARK  17 active torsions:
REMARK  status: ('A' for Active; 'I' for Inactive)
REMARK    1  A    between atoms: C_6  and  C_1 
REMARK    2  A    between atoms: O_34  and  C_1 
REMARK    3  A    between atoms: C_7  and  C_2 
REMARK    4  A    between atoms: O_35  and  C_2 
REMARK    5  A    between atoms: P_38  and  C_5 
REMARK    6  A    between atoms: P_39  and  C_5 
REMARK    7  A    between atoms: C_9  and  O_25 
REMARK    8  A    between atoms: C_10  and  O_26 
REMARK    9  A    between atoms: C_11  and  O_27 
REMARK   10  A    between atoms: C_12  and  O_28 
REMARK   11  A    between atoms: N_17  and  C_13 
REMARK   12  A    between atoms: C_15  and  N_24 
REMARK   13  A    between atoms: C_16  and  O_29 
REMARK   14  A    between atoms: P_38  and  O_30 
REMARK   15  A    between atoms: P_39  and  O_32 
REMARK   16  A    between atoms: P_38  and  O_34 
REMARK   17  A    between atoms: P_39  and  O_35 
ROOT
HETATM    1  C   UNK N   1      25.517  17.954   4.372  0.00  0.00     0.179 C 
HETATM    2  C   UNK N   1      26.030  19.328   3.870  0.00  0.00     0.182 C 
HETATM    3  C   UNK N   1      27.299  19.511   4.683  0.00  0.00     0.198 C 
HETATM    4  C   UNK N   1      27.683  18.057   4.828  0.00  0.00     0.262 C 
HETATM    5  O   UNK N   1      26.488  17.464   5.273  0.00  0.00    -0.353 OA
ENDROOT
BRANCH   1   6
HETATM    6  C   UNK N   1      25.440  16.877   3.289  0.00  0.00     0.213 C 
BRANCH   6   7
HETATM    7  O   UNK N   1      24.310  16.073   3.333  0.00  0.00    -0.316 OA
BRANCH   7   8
HETATM    8  P   UNK N   1      24.941  14.576   3.975  0.00  0.00     0.249 P 
HETATM    9  O   UNK N   1      24.003  13.366   3.707  0.00  0.00    -0.653 OA
BRANCH   8  10
HETATM   10  C   UNK N   1      23.572  14.888   5.222  0.00  0.00     0.250 C 
BRANCH  10  11
HETATM   11  P   UNK N   1      21.957  15.460   4.587  0.00  0.00     0.249 P 
HETATM   12  O   UNK N   1      20.972  14.653   5.486  0.00  0.00    -0.653 OA
BRANCH  11  13
HETATM   13  O   UNK N   1      22.079  14.835   2.969  0.00  0.00    -0.329 OA
HETATM   14  H   UNK N   1      21.422  15.080   2.298  0.00  0.00     0.220 HD
ENDBRANCH  11  13
BRANCH  11  15
HETATM   15  O   UNK N   1      22.015  17.191   4.902  0.00  0.00    -0.316 OA
BRANCH  15  16
HETATM   16  C   UNK N   1      20.740  17.727   4.782  0.00  0.00     0.213 C 
BRANCH  16  17
HETATM   17  C   UNK N   1      20.755  18.988   3.914  0.00  0.00     0.180 C 
HETATM   18  C   UNK N   1      20.389  18.773   2.444  0.00  0.00     0.182 C 
HETATM   19  C   UNK N   1      20.764  20.128   1.946  0.00  0.00     0.204 C 
HETATM   20  C   UNK N   1      22.121  20.254   2.626  0.00  0.00     0.288 C 
HETATM   21  O   UNK N   1      22.008  19.653   3.911  0.00  0.00    -0.349 OA
BRANCH  18  22
HETATM   22  O   UNK N   1      19.039  18.477   2.257  0.00  0.00    -0.390 OA
HETATM   23  H   UNK N   1      18.654  17.646   1.933  0.00  0.00     0.210 HD
ENDBRANCH  18  22
BRANCH  19  24
HETATM   24  O   UNK N   1      20.837  20.207   0.555  0.00  0.00    -0.388 OA
HETATM   25  H   UNK N   1      20.274  20.542  -0.161  0.00  0.00     0.210 HD
ENDBRANCH  19  24
BRANCH  20  26
HETATM   26  O   UNK N   1      22.491  21.597   2.731  0.00  0.00    -0.369 OA
HETATM   27  H   UNK N   1      22.856  22.085   1.975  0.00  0.00     0.212 HD
ENDBRANCH  20  26
ENDBRANCH  16  17
ENDBRANCH  15  16
ENDBRANCH  11  15
ENDBRANCH  10  11
ENDBRANCH   8  10
BRANCH   8  28
HETATM   28  O   UNK N   1      25.470  14.616   5.628  0.00  0.00    -0.329 OA
HETATM   29  H   UNK N   1      25.221  15.360   6.199  0.00  0.00     0.220 HD
ENDBRANCH   8  28
ENDBRANCH   7   8
ENDBRANCH   6   7
ENDBRANCH   1   6
BRANCH   2  30
HETATM   30  O   UNK N   1      25.123  20.364   4.109  0.00  0.00    -0.390 OA
HETATM   31  H   UNK N   1      25.021  21.157   4.658  0.00  0.00     0.210 HD
ENDBRANCH   2  30
BRANCH   3  32
HETATM   32  O   UNK N   1      28.250  20.285   4.016  0.00  0.00    -0.388 OA
HETATM   33  H   UNK N   1      28.640  21.163   4.158  0.00  0.00     0.210 HD
ENDBRANCH   3  32
BRANCH   4  34
HETATM   34  N   UNK N   1      28.787  17.728   5.729  0.00  0.00    -0.297 N 
HETATM   35  C   UNK N   1      30.031  17.396   5.283  0.00  0.00     0.188 A 
HETATM   36  N   UNK N   1      30.893  17.185   6.312  0.00  0.00    -0.346 N 
HETATM   37  C   UNK N   1      30.151  17.403   7.415  0.00  0.00     0.122 A 
ATOM     38  HN  UNK N   1      31.876  16.922   6.260  1.00  0.00     0.167 HD
HETATM   39  C   UNK N   1      30.524  17.360   8.743  0.00  0.00     0.131 A 
HETATM   40  C   UNK N   1      28.890  17.720   7.063  0.00  0.00     0.142 A 
HETATM   41  N   UNK N   1      29.571  17.648   9.681  0.00  0.00    -0.337 N 
HETATM   42  C   UNK N   1      28.288  17.969   9.308  0.00  0.00     0.183 A 
ATOM     43  HN  UNK N   1      29.817  17.626  10.672  1.00  0.00     0.168 HD
HETATM   44  N   UNK N   1      27.936  18.011   7.986  0.00  0.00    -0.336 N 
ATOM     45  HN  UNK N   1      26.986  18.253   7.701  1.00  0.00     0.168 HD
BRANCH  39  46
HETATM   46  N   UNK N   1      31.843  17.048   9.127  0.00  0.00    -0.383 N 
HETATM   47  H   UNK N   1      32.546  17.735   9.185  0.00  0.00     0.157 HD
HETATM   48  H   UNK N   1      32.068  16.114   9.344  0.00  0.00     0.157 HD
ENDBRANCH  39  46
ENDBRANCH   4  34
TORSDOF 17
ENDMDL
MODEL 6
REMARK VINA RESULT:      -7.0      3.230      5.268
REMARK  17 active torsions:
REMARK  status: ('A' for Active; 'I' for Inactive)
REMARK    1  A    between atoms: C_6  and  C_1 
REMARK    2  A    between atoms: O_34  and  C_1 
REMARK    3  A    between atoms: C_7  and  C_2 
REMARK    4  A    between atoms: O_35  and  C_2 
REMARK    5  A    between atoms: P_38  and  C_5 
REMARK    6  A    between atoms: P_39  and  C_5 
REMARK    7  A    between atoms: C_9  and  O_25 
REMARK    8  A    between atoms: C_10  and  O_26 
REMARK    9  A    between atoms: C_11  and  O_27 
REMARK   10  A    between atoms: C_12  and  O_28 
REMARK   11  A    between atoms: N_17  and  C_13 
REMARK   12  A    between atoms: C_15  and  N_24 
REMARK   13  A    between atoms: C_16  and  O_29 
REMARK   14  A    between atoms: P_38  and  O_30 
REMARK   15  A    between atoms: P_39  and  O_32 
REMARK   16  A    between atoms: P_38  and  O_34 
REMARK   17  A    between atoms: P_39  and  O_35 
ROOT
HETATM    1  C   UNK N   1      35.115  13.529  13.369  0.00  0.00     0.179 C 
HETATM    2  C   UNK N   1      36.440  14.317  13.534  0.00  0.00     0.182 C 
HETATM    3  C   UNK N   1      36.581  14.392  15.044  0.00  0.00     0.198 C 
HETATM    4  C   UNK N   1      35.896  13.093  15.397  0.00  0.00     0.262 C 
HETATM    5  O   UNK N   1      34.695  13.167  14.668  0.00  0.00    -0.353 OA
ENDROOT
BRANCH   1   6
HETATM    6  C   UNK N   1      35.266  12.191  12.643  0.00  0.00     0.213 C 
BRANCH   6   7
HETATM    7  O   UNK N   1      35.593  12.282  11.297  0.00  0.00    -0.316 OA
BRANCH   7   8
HETATM    8  P   UNK N   1      36.785  11.018  11.116  0.00  0.00     0.249 P 
HETATM    9  O   UNK N   1      37.695  10.869  12.367  0.00  0.00    -0.653 OA
BRANCH   8  10
HETATM   10  C   UNK N   1      37.902  12.517  10.938  0.00  0.00     0.250 C 
BRANCH  10  11
HETATM   11  P   UNK N   1      37.596  13.643   9.531  0.00  0.00     0.249 P 
HETATM   12  O   UNK N   1      38.846  13.364   8.641  0.00  0.00    -0.653 OA
BRANCH  11  13
HETATM   13  O   UNK N   1      37.685  15.155  10.385  0.00  0.00    -0.329 OA
HETATM   14  H   UNK N   1      38.148  15.211  11.236  0.00  0.00     0.220 HD
ENDBRANCH  11  13
BRANCH  11  15
HETATM   15  O   UNK N   1      36.069  13.046   8.891  0.00  0.00    -0.316 OA
BRANCH  15  16
HETATM   16  C   UNK N   1      35.754  13.735   7.727  0.00  0.00     0.213 C 
BRANCH  16  17
HETATM   17  C   UNK N   1      35.330  15.173   8.040  0.00  0.00     0.180 C 
HETATM   18  C   UNK N   1      34.058  15.310   8.879  0.00  0.00     0.182 C 
HETATM   19  C   UNK N   1      33.880  16.784   8.730  0.00  0.00     0.204 C 
HETATM   20  C   UNK N   1      34.097  16.889   7.226  0.00  0.00     0.288 C 
HETATM   21  O   UNK N   1      35.120  15.961   6.880  0.00  0.00    -0.349 OA
BRANCH  18  22
HETATM   22  O   UNK N   1      34.234  14.912  10.205  0.00  0.00    -0.390 OA
HETATM   23  H   UNK N   1      33.577  14.923  10.919  0.00  0.00     0.210 HD
ENDBRANCH  18  22
BRANCH  19  24
HETATM   24  O   UNK N   1      32.624  17.235   9.137  0.00  0.00    -0.388 OA
HETATM   25  H   UNK N   1      31.712  16.903   9.102  0.00  0.00     0.210 HD
ENDBRANCH  19  24
BRANCH  20  26
HETATM   26  O   UNK N   1      34.462  18.191   6.877  0.00  0.00    -0.369 OA
HETATM   27  H   UNK N   1      33.825  18.811   6.485  0.00  0.00     0.212 HD
ENDBRANCH  20  26
ENDBRANCH  16  17
ENDBRANCH  15  16
ENDBRANCH  11  15
ENDBRANCH  10  11
ENDBRANCH   8  10
BRANCH   8  28
HETATM   28  O   UNK N   1      37.717  11.050   9.652  0.00  0.00    -0.329 OA
HETATM   29  H   UNK N   1      38.396  11.732   9.523  0.00  0.00     0.220 HD
ENDBRANCH   8  28
ENDBRANCH   7   8
ENDBRANCH   6   7
ENDBRANCH   1   6
BRANCH   2  30
HETATM   30  O   UNK N   1      36.383  15.594  12.968  0.00  0.00    -0.390 OA
HETATM   31  H   UNK N   1      35.783  16.159  12.457  0.00  0.00     0.210 HD
ENDBRANCH   2  30
BRANCH   3  32
HETATM   32  O   UNK N   1      37.915  14.459  15.450  0.00  0.00    -0.388 OA
HETATM   33  H   UNK N   1      38.393  14.244  16.266  0.00  0.00     0.210 HD
ENDBRANCH   3  32
BRANCH   4  34
HETATM   34  N   UNK N   1      35.626  12.824  16.809  0.00  0.00    -0.297 N 
HETATM   35  C   UNK N   1      35.343  13.808  17.707  0.00  0.00     0.188 A 
HETATM   36  N   UNK N   1      35.079  13.302  18.940  0.00  0.00    -0.346 N 
HETATM   37  C   UNK N   1      35.197  11.970  18.783  0.00  0.00     0.122 A 
ATOM     38  HN  UNK N   1      34.844  13.814  19.790  1.00  0.00     0.167 HD
HETATM   39  C   UNK N   1      35.006  10.959  19.703  0.00  0.00     0.131 A 
HETATM   40  C   UNK N   1      35.532  11.687  17.509  0.00  0.00     0.142 A 
HETATM   41  N   UNK N   1      35.170   9.670  19.276  0.00  0.00    -0.337 N 
HETATM   42  C   UNK N   1      35.514   9.397  17.974  0.00  0.00     0.183 A 
ATOM     43  HN  UNK N   1      35.035   8.901  19.933  1.00  0.00     0.168 HD
HETATM   44  N   UNK N   1      35.695  10.411  17.072  0.00  0.00    -0.336 N 
ATOM     45  HN  UNK N   1      35.946  10.215  16.103  1.00  0.00     0.168 HD
BRANCH  39  46
HETATM   46  N   UNK N   1      34.639  11.236  21.034  0.00  0.00    -0.383 N 
HETATM   47  H   UNK N   1      33.697  11.270  21.319  0.00  0.00     0.157 HD
HETATM   48  H   UNK N   1      35.345  11.402  21.699  0.00  0.00     0.157 HD
ENDBRANCH  39  46
ENDBRANCH   4  34
TORSDOF 17
ENDMDL
MODEL 7
REMARK VINA RESULT:      -6.9      4.608      9.206
REMARK  17 active torsions:
REMARK  status: ('A' for Active; 'I' for Inactive)
REMARK    1  A    between atoms: C_6  and  C_1 
REMARK    2  A    between atoms: O_34  and  C_1 
REMARK    3  A    between atoms: C_7  and  C_2 
REMARK    4  A    between atoms: O_35  and  C_2 
REMARK    5  A    between atoms: P_38  and  C_5 
REMARK    6  A    between atoms: P_39  and  C_5 
REMARK    7  A    between atoms: C_9  and  O_25 
REMARK    8  A    between atoms: C_10  and  O_26 
REMARK    9  A    between atoms: C_11  and  O_27 
REMARK   10  A    between atoms: C_12  and  O_28 
REMARK   11  A    between atoms: N_17  and  C_13 
REMARK   12  A    between atoms: C_15  and  N_24 
REMARK   13  A    between atoms: C_16  and  O_29 
REMARK   14  A    between atoms: P_38  and  O_30 
REMARK   15  A    between atoms: P_39  and  O_32 
REMARK   16  A    between atoms: P_38  and  O_34 
REMARK   17  A    between atoms: P_39  and  O_35 
ROOT
HETATM    1  C   UNK N   1      33.864  14.461   7.298  0.00  0.00     0.179 C 
HETATM    2  C   UNK N   1      34.806  15.662   7.028  0.00  0.00     0.182 C 
HETATM    3  C   UNK N   1      33.834  16.735   6.572  0.00  0.00     0.198 C 
HETATM    4  C   UNK N   1      32.630  16.301   7.375  0.00  0.00     0.262 C 
HETATM    5  O   UNK N   1      32.547  14.926   7.089  0.00  0.00    -0.353 OA
ENDROOT
BRANCH   1   6
HETATM    6  C   UNK N   1      33.861  13.979   8.749  0.00  0.00     0.213 C 
BRANCH   6   7
HETATM    7  O   UNK N   1      35.047  14.177   9.442  0.00  0.00    -0.316 OA
BRANCH   7   8
HETATM    8  P   UNK N   1      34.489  14.851  10.955  0.00  0.00     0.249 P 
HETATM    9  O   UNK N   1      34.998  16.300  11.189  0.00  0.00    -0.653 OA
BRANCH   8  10
HETATM   10  C   UNK N   1      36.286  14.541  11.404  0.00  0.00     0.250 C 
BRANCH  10  11
HETATM   11  P   UNK N   1      36.809  12.810  11.675  0.00  0.00     0.249 P 
HETATM   12  O   UNK N   1      38.159  12.774  10.896  0.00  0.00    -0.653 OA
BRANCH  11  13
HETATM   13  O   UNK N   1      35.511  12.013  10.837  0.00  0.00    -0.329 OA
HETATM   14  H   UNK N   1      35.698  11.437  10.078  0.00  0.00     0.220 HD
ENDBRANCH  11  13
BRANCH  11  15
HETATM   15  O   UNK N   1      36.950  12.726  13.427  0.00  0.00    -0.316 OA
BRANCH  15  16
HETATM   16  C   UNK N   1      36.966  11.395  13.827  0.00  0.00     0.213 C 
BRANCH  16  17
HETATM   17  C   UNK N   1      36.105  11.189  15.076  0.00  0.00     0.180 C 
HETATM   18  C   UNK N   1      35.704  12.469  15.812  0.00  0.00     0.182 C 
HETATM   19  C   UNK N   1      35.133  11.827  17.032  0.00  0.00     0.204 C 
HETATM   20  C   UNK N   1      36.249  10.828  17.307  0.00  0.00     0.288 C 
HETATM   21  O   UNK N   1      36.715  10.355  16.047  0.00  0.00    -0.349 OA
BRANCH  18  22
HETATM   22  O   UNK N   1      34.771  13.232  15.108  0.00  0.00    -0.390 OA
HETATM   23  H   UNK N   1      34.483  13.116  14.189  0.00  0.00     0.210 HD
ENDBRANCH  18  22
BRANCH  19  24
HETATM   24  O   UNK N   1      34.924  12.721  18.082  0.00  0.00    -0.388 OA
HETATM   25  H   UNK N   1      34.327  13.464  18.265  0.00  0.00     0.210 HD
ENDBRANCH  19  24
BRANCH  20  26
HETATM   26  O   UNK N   1      35.778   9.776  18.096  0.00  0.00    -0.369 OA
HETATM   27  H   UNK N   1      35.131   9.136  17.758  0.00  0.00     0.212 HD
ENDBRANCH  20  26
ENDBRANCH  16  17
ENDBRANCH  15  16
ENDBRANCH  11  15
ENDBRANCH  10  11
ENDBRANCH   8  10
BRANCH   8  28
HETATM   28  O   UNK N   1      34.718  13.861  12.362  0.00  0.00    -0.329 OA
HETATM   29  H   UNK N   1      34.257  14.077  13.188  0.00  0.00     0.220 HD
ENDBRANCH   8  28
ENDBRANCH   7   8
ENDBRANCH   6   7
ENDBRANCH   1   6
BRANCH   2  30
HETATM   30  O   UNK N   1      35.758  15.391   6.041  0.00  0.00    -0.390 OA
HETATM   31  H   UNK N   1      36.461  14.755   5.834  0.00  0.00     0.210 HD
ENDBRANCH   2  30
BRANCH   3  32
HETATM   32  O   UNK N   1      34.283  18.022   6.874  0.00  0.00    -0.388 OA
HETATM   33  H   UNK N   1      34.223  18.603   7.649  0.00  0.00     0.210 HD
ENDBRANCH   3  32
BRANCH   4  34
HETATM   34  N   UNK N   1      31.354  16.961   7.103  0.00  0.00    -0.297 N 
HETATM   35  C   UNK N   1      30.818  17.048   5.854  0.00  0.00     0.188 A 
HETATM   36  N   UNK N   1      29.605  17.660   5.870  0.00  0.00    -0.346 N 
HETATM   37  C   UNK N   1      29.395  17.946   7.170  0.00  0.00     0.122 A 
ATOM     38  HN  UNK N   1      28.993  17.858   5.079  1.00  0.00     0.167 HD
HETATM   39  C   UNK N   1      28.306  18.543   7.770  0.00  0.00     0.131 A 
HETATM   40  C   UNK N   1      30.447  17.533   7.904  0.00  0.00     0.142 A 
HETATM   41  N   UNK N   1      28.334  18.699   9.129  0.00  0.00    -0.337 N 
HETATM   42  C   UNK N   1      29.414  18.275   9.865  0.00  0.00     0.183 A 
ATOM     43  HN  UNK N   1      27.542  19.136   9.602  1.00  0.00     0.168 HD
HETATM   44  N   UNK N   1      30.485  17.681   9.254  0.00  0.00    -0.336 N 
ATOM     45  HN  UNK N   1      31.288  17.360   9.795  1.00  0.00     0.168 HD
BRANCH  39  46
HETATM   46  N   UNK N   1      27.190  18.964   7.019  0.00  0.00    -0.383 N 
HETATM   47  H   UNK N   1      27.218  19.028   6.037  0.00  0.00     0.157 HD
HETATM   48  H   UNK N   1      26.360  19.201   7.491  0.00  0.00     0.157 HD
ENDBRANCH  39  46
ENDBRANCH   4  34
TORSDOF 17
ENDMDL
MODEL 8
REMARK VINA RESULT:      -6.9      1.555      2.359
REMARK  17 active torsions:
REMARK  status: ('A' for Active; 'I' for Inactive)
REMARK    1  A    between atoms: C_6  and  C_1 
REMARK    2  A    between atoms: O_34  and  C_1 
REMARK    3  A    between atoms: C_7  and  C_2 
REMARK    4  A    between atoms: O_35  and  C_2 
REMARK    5  A    between atoms: P_38  and  C_5 
REMARK    6  A    between atoms: P_39  and  C_5 
REMARK    7  A    between atoms: C_9  and  O_25 
REMARK    8  A    between atoms: C_10  and  O_26 
REMARK    9  A    between atoms: C_11  and  O_27 
REMARK   10  A    between atoms: C_12  and  O_28 
REMARK   11  A    between atoms: N_17  and  C_13 
REMARK   12  A    between atoms: C_15  and  N_24 
REMARK   13  A    between atoms: C_16  and  O_29 
REMARK   14  A    between atoms: P_38  and  O_30 
REMARK   15  A    between atoms: P_39  and  O_32 
REMARK   16  A    between atoms: P_38  and  O_34 
REMARK   17  A    between atoms: P_39  and  O_35 
ROOT
HETATM    1  C   UNK N   1      33.790  15.211   9.141  0.00  0.00     0.179 C 
HETATM    2  C   UNK N   1      34.790  16.352   9.457  0.00  0.00     0.182 C 
HETATM    3  C   UNK N   1      35.504  15.820  10.687  0.00  0.00     0.198 C 
HETATM    4  C   UNK N   1      35.415  14.344  10.375  0.00  0.00     0.262 C 
HETATM    5  O   UNK N   1      34.053  14.175  10.065  0.00  0.00    -0.353 OA
ENDROOT
BRANCH   1   6
HETATM    6  C   UNK N   1      34.000  14.552   7.777  0.00  0.00     0.213 C 
BRANCH   6   7
HETATM    7  O   UNK N   1      33.160  15.000   6.767  0.00  0.00    -0.316 OA
BRANCH   7   8
HETATM    8  P   UNK N   1      34.261  15.863   5.720  0.00  0.00     0.249 P 
HETATM    9  O   UNK N   1      34.336  17.380   6.051  0.00  0.00    -0.653 OA
BRANCH   8  10
HETATM   10  C   UNK N   1      32.631  16.474   5.016  0.00  0.00     0.250 C 
BRANCH  10  11
HETATM   11  P   UNK N   1      31.368  15.224   4.588  0.00  0.00     0.249 P 
HETATM   12  O   UNK N   1      32.172  13.901   4.776  0.00  0.00    -0.653 OA
BRANCH  11  13
HETATM   13  O   UNK N   1      31.132  15.654   2.920  0.00  0.00    -0.329 OA
HETATM   14  H   UNK N   1      30.687  16.484   2.685  0.00  0.00     0.220 HD
ENDBRANCH  11  13
BRANCH  11  15
HETATM   15  O   UNK N   1      30.117  15.520   5.791  0.00  0.00    -0.316 OA
BRANCH  15  16
HETATM   16  C   UNK N   1      29.547  16.767   5.569  0.00  0.00     0.213 C 
BRANCH  16  17
HETATM   17  C   UNK N   1      29.347  17.519   6.888  0.00  0.00     0.180 C 
HETATM   18  C   UNK N   1      30.215  17.038   8.052  0.00  0.00     0.182 C 
HETATM   19  C   UNK N   1      29.548  17.819   9.134  0.00  0.00     0.204 C 
HETATM   20  C   UNK N   1      28.099  17.511   8.778  0.00  0.00     0.288 C 
HETATM   21  O   UNK N   1      28.009  17.483   7.358  0.00  0.00    -0.349 OA
BRANCH  18  22
HETATM   22  O   UNK N   1      31.563  17.361   7.896  0.00  0.00    -0.390 OA
HETATM   23  H   UNK N   1      32.269  17.293   8.559  0.00  0.00     0.210 HD
ENDBRANCH  18  22
BRANCH  19  24
HETATM   24  O   UNK N   1      29.900  17.401  10.418  0.00  0.00    -0.388 OA
HETATM   25  H   UNK N   1      30.245  17.818  11.223  0.00  0.00     0.210 HD
ENDBRANCH  19  24
BRANCH  20  26
HETATM   26  O   UNK N   1      27.249  18.479   9.316  0.00  0.00    -0.369 OA
HETATM   27  H   UNK N   1      26.356  18.625   8.964  0.00  0.00     0.212 HD
ENDBRANCH  20  26
ENDBRANCH  16  17
ENDBRANCH  15  16
ENDBRANCH  11  15
ENDBRANCH  10  11
ENDBRANCH   8  10
BRANCH   8  28
HETATM   28  O   UNK N   1      34.067  15.592   4.017  0.00  0.00    -0.329 OA
HETATM   29  H   UNK N   1      33.349  15.026   3.694  0.00  0.00     0.220 HD
ENDBRANCH   8  28
ENDBRANCH   7   8
ENDBRANCH   6   7
ENDBRANCH   1   6
BRANCH   2  30
HETATM   30  O   UNK N   1      34.155  17.567   9.729  0.00  0.00    -0.390 OA
HETATM   31  H   UNK N   1      34.358  18.508   9.843  0.00  0.00     0.210 HD
ENDBRANCH   2  30
BRANCH   3  32
HETATM   32  O   UNK N   1      36.812  16.299  10.791  0.00  0.00    -0.388 OA
HETATM   33  H   UNK N   1      37.694  15.899  10.729  0.00  0.00     0.210 HD
ENDBRANCH   3  32
BRANCH   4  34
HETATM   34  N   UNK N   1      35.827  13.400  11.413  0.00  0.00    -0.297 N 
HETATM   35  C   UNK N   1      35.924  12.059  11.195  0.00  0.00     0.188 A 
HETATM   36  N   UNK N   1      36.375  11.403  12.296  0.00  0.00    -0.346 N 
HETATM   37  C   UNK N   1      36.564  12.377  13.207  0.00  0.00     0.122 A 
ATOM     38  HN  UNK N   1      36.533  10.402  12.408  1.00  0.00     0.167 HD
HETATM   39  C   UNK N   1      37.043  12.287  14.498  0.00  0.00     0.131 A 
HETATM   40  C   UNK N   1      36.228  13.570  12.679  0.00  0.00     0.142 A 
HETATM   41  N   UNK N   1      37.162  13.446  15.215  0.00  0.00    -0.337 N 
HETATM   42  C   UNK N   1      36.814  14.656  14.664  0.00  0.00     0.183 A 
ATOM     43  HN  UNK N   1      37.515  13.411  16.172  1.00  0.00     0.168 HD
HETATM   44  N   UNK N   1      36.344  14.728  13.380  0.00  0.00    -0.336 N 
ATOM     45  HN  UNK N   1      36.088  15.623  12.962  1.00  0.00     0.168 HD
BRANCH  39  46
HETATM   46  N   UNK N   1      37.416  11.050  15.061  0.00  0.00    -0.383 N 
HETATM   47  H   UNK N   1      37.102  10.194  14.690  0.00  0.00     0.157 HD
HETATM   48  H   UNK N   1      38.006  11.043  15.848  0.00  0.00     0.157 HD
ENDBRANCH  39  46
ENDBRANCH   4  34
TORSDOF 17
ENDMDL
MODEL 9
REMARK VINA RESULT:      -6.9      9.954     12.937
REMARK  17 active torsions:
REMARK  status: ('A' for Active; 'I' for Inactive)
REMARK    1  A    between atoms: C_6  and  C_1 
REMARK    2  A    between atoms: O_34  and  C_1 
REMARK    3  A    between atoms: C_7  and  C_2 
REMARK    4  A    between atoms: O_35  and  C_2 
REMARK    5  A    between atoms: P_38  and  C_5 
REMARK    6  A    between atoms: P_39  and  C_5 
REMARK    7  A    between atoms: C_9  and  O_25 
REMARK    8  A    between atoms: C_10  and  O_26 
REMARK    9  A    between atoms: C_11  and  O_27 
REMARK   10  A    between atoms: C_12  and  O_28 
REMARK   11  A    between atoms: N_17  and  C_13 
REMARK   12  A    between atoms: C_15  and  N_24 
REMARK   13  A    between atoms: C_16  and  O_29 
REMARK   14  A    between atoms: P_38  and  O_30 
REMARK   15  A    between atoms: P_39  and  O_32 
REMARK   16  A    between atoms: P_38  and  O_34 
REMARK   17  A    between atoms: P_39  and  O_35 
ROOT
HETATM    1  C   UNK N   1      22.845  14.916   3.347  0.00  0.00     0.179 C 
HETATM    2  C   UNK N   1      23.984  14.285   2.505  0.00  0.00     0.182 C 
HETATM    3  C   UNK N   1      25.165  15.177   2.846  0.00  0.00     0.198 C 
HETATM    4  C   UNK N   1      24.767  15.545   4.256  0.00  0.00     0.262 C 
HETATM    5  O   UNK N   1      23.430  15.956   4.103  0.00  0.00    -0.353 OA
ENDROOT
BRANCH   1   6
HETATM    6  C   UNK N   1      22.251  13.981   4.401  0.00  0.00     0.213 C 
BRANCH   6   7
HETATM    7  O   UNK N   1      21.223  14.522   5.161  0.00  0.00    -0.316 OA
BRANCH   7   8
HETATM    8  P   UNK N   1      21.473  13.770   6.718  0.00  0.00     0.249 P 
HETATM    9  O   UNK N   1      20.326  14.074   7.721  0.00  0.00    -0.653 OA
BRANCH   8  10
HETATM   10  C   UNK N   1      21.848  15.552   7.177  0.00  0.00     0.250 C 
BRANCH  10  11
HETATM   11  P   UNK N   1      20.504  16.777   6.998  0.00  0.00     0.249 P 
HETATM   12  O   UNK N   1      20.368  17.297   8.462  0.00  0.00    -0.653 OA
BRANCH  11  13
HETATM   13  O   UNK N   1      19.226  15.694   6.532  0.00  0.00    -0.329 OA
HETATM   14  H   UNK N   1      19.070  15.495   5.596  0.00  0.00     0.220 HD
ENDBRANCH  11  13
BRANCH  11  15
HETATM   15  O   UNK N   1      21.187  17.927   5.854  0.00  0.00    -0.316 OA
BRANCH  15  16
HETATM   16  C   UNK N   1      20.674  17.679   4.587  0.00  0.00     0.213 C 
BRANCH  16  17
HETATM   17  C   UNK N   1      20.612  18.968   3.760  0.00  0.00     0.180 C 
HETATM   18  C   UNK N   1      20.310  18.775   2.273  0.00  0.00     0.182 C 
HETATM   19  C   UNK N   1      20.587  20.173   1.832  0.00  0.00     0.204 C 
HETATM   20  C   UNK N   1      21.907  20.385   2.561  0.00  0.00     0.288 C 
HETATM   21  O   UNK N   1      21.804  19.732   3.821  0.00  0.00    -0.349 OA
BRANCH  18  22
HETATM   22  O   UNK N   1      18.995  18.376   2.031  0.00  0.00    -0.390 OA
HETATM   23  H   UNK N   1      18.291  18.229   2.683  0.00  0.00     0.210 HD
ENDBRANCH  18  22
BRANCH  19  24
HETATM   24  O   UNK N   1      20.696  20.306   0.447  0.00  0.00    -0.388 OA
HETATM   25  H   UNK N   1      21.417  20.351  -0.201  0.00  0.00     0.210 HD
ENDBRANCH  19  24
BRANCH  20  26
HETATM   26  O   UNK N   1      22.161  21.749   2.721  0.00  0.00    -0.369 OA
HETATM   27  H   UNK N   1      23.029  22.075   3.007  0.00  0.00     0.212 HD
ENDBRANCH  20  26
ENDBRANCH  16  17
ENDBRANCH  15  16
ENDBRANCH  11  15
ENDBRANCH  10  11
ENDBRANCH   8  10
BRANCH   8  28
HETATM   28  O   UNK N   1      23.032  14.013   7.443  0.00  0.00    -0.329 OA
HETATM   29  H   UNK N   1      23.295  13.489   8.216  0.00  0.00     0.220 HD
ENDBRANCH   8  28
ENDBRANCH   7   8
ENDBRANCH   6   7
ENDBRANCH   1   6
BRANCH   2  30
HETATM   30  O   UNK N   1      23.716  14.305   1.133  0.00  0.00    -0.390 OA
HETATM   31  H   UNK N   1      23.213  14.811   0.477  0.00  0.00     0.210 HD
ENDBRANCH   2  30
BRANCH   3  32
HETATM   32  O   UNK N   1      26.383  14.501   2.759  0.00  0.00    -0.388 OA
HETATM   33  H   UNK N   1      27.190  14.610   2.230  0.00  0.00     0.210 HD
ENDBRANCH   3  32
BRANCH   4  34
HETATM   34  N   UNK N   1      25.547  16.576   4.940  0.00  0.00    -0.297 N 
HETATM   35  C   UNK N   1      26.437  16.293   5.931  0.00  0.00     0.188 A 
HETATM   36  N   UNK N   1      27.071  17.411   6.369  0.00  0.00    -0.346 N 
HETATM   37  C   UNK N   1      26.556  18.402   5.616  0.00  0.00     0.122 A 
ATOM     38  HN  UNK N   1      27.777  17.484   7.102  1.00  0.00     0.167 HD
HETATM   39  C   UNK N   1      26.860  19.747   5.612  0.00  0.00     0.131 A 
HETATM   40  C   UNK N   1      25.638  17.900   4.767  0.00  0.00     0.142 A 
HETATM   41  N   UNK N   1      26.199  20.547   4.720  0.00  0.00    -0.337 N 
HETATM   42  C   UNK N   1      25.264  20.022   3.861  0.00  0.00     0.183 A 
ATOM     43  HN  UNK N   1      26.404  21.546   4.692  1.00  0.00     0.168 HD
HETATM   44  N   UNK N   1      24.977  18.683   3.875  0.00  0.00    -0.336 N 
ATOM     45  HN  UNK N   1      24.287  18.286   3.237  1.00  0.00     0.168 HD
BRANCH  39  46
HETATM   46  N   UNK N   1      27.830  20.286   6.481  0.00  0.00    -0.383 N 
HETATM   47  H   UNK N   1      27.583  20.749   7.314  0.00  0.00     0.157 HD
HETATM   48  H   UNK N   1      28.782  20.196   6.247  0.00  0.00     0.157 HD
ENDBRANCH  39  46
ENDBRANCH   4  34
TORSDOF 17
ENDMDL
