MODEL 1
REMARK VINA RESULT:      -8.7      0.000      0.000
REMARK  10 active torsions:
REMARK  status: ('A' for Active; 'I' for Inactive)
REMARK    1  A    between atoms: C_2  and  C_3 
REMARK    2  A    between atoms: C_9  and  C_10 
REMARK    3  A    between atoms: C_30  and  C_31 
REMARK    4  A    between atoms: C_31  and  C_32 
REMARK    5  A    between atoms: C_32  and  C_33 
REMARK    6  A    between atoms: C_33  and  O_34 
REMARK    7  A    between atoms: C_36  and  C_37 
REMARK    8  A    between atoms: C_37  and  C_38 
REMARK    9  A    between atoms: C_38  and  C_39 
REMARK   10  A    between atoms: C_39  and  O_40 
ROOT
HETATM    1  C   UNK N   1      26.429  19.132   5.440  0.00  0.00    -0.024 A 
HETATM    2  C   UNK N   1      25.640  18.684   4.461  0.00  0.00    -0.027 A 
HETATM    3  C   UNK N   1      24.463  19.392   3.872  0.00  0.00     0.051 C 
HETATM    4  C   UNK N   1      26.176  17.384   4.068  0.00  0.00     0.041 A 
HETATM    5  C   UNK N   1      25.688  16.574   3.110  0.00  0.00     0.060 C 
HETATM    6  C   UNK N   1      26.303  15.283   2.707  0.00  0.00     0.043 A 
HETATM    7  C   UNK N   1      25.592  14.182   2.249  0.00  0.00    -0.023 A 
HETATM    8  C   UNK N   1      26.517  13.184   2.002  0.00  0.00    -0.026 A 
HETATM    9  C   UNK N   1      26.227  11.811   1.496  0.00  0.00     0.051 C 
HETATM   10  C   UNK N   1      27.762  13.704   2.309  0.00  0.00     0.043 A 
HETATM   11  C   UNK N   1      29.050  12.983   2.180  0.00  0.00     0.060 C 
HETATM   12  C   UNK N   1      30.074  13.147   3.037  0.00  0.00     0.041 A 
HETATM   13  N   UNK N   1      30.038  13.927   4.215  0.00  0.00    -0.355 N 
ATOM     14  HN  UNK N   1      29.222  14.406   4.594  1.00  0.00     0.166 HD
HETATM   15  C   UNK N   1      31.216  13.923   4.721  0.00  0.00     0.041 A 
HETATM   16  C   UNK N   1      31.626  14.695   5.908  0.00  0.00     0.060 C 
HETATM   17  C   UNK N   1      30.977  15.733   6.457  0.00  0.00     0.041 A 
HETATM   18  N   UNK N   1      29.821  16.276   6.004  0.00  0.00    -0.355 N 
HETATM   19  C   UNK N   1      29.578  17.344   6.805  0.00  0.00     0.041 A 
HETATM   20  C   UNK N   1      28.543  18.193   6.680  0.00  0.00     0.060 C 
HETATM   21  C   UNK N   1      27.460  18.101   5.676  0.00  0.00     0.041 A 
HETATM   22  N   UNK N   1      27.289  17.104   4.889  0.00  0.00    -0.355 N 
ATOM     23  HN  UNK N   1      27.857  16.259   4.861  1.00  0.00     0.166 HD
HETATM   24  C   UNK N   1      30.570  17.471   7.759  0.00  0.00    -0.027 A 
HETATM   25  C   UNK N   1      30.683  18.529   8.806  0.00  0.00     0.051 C 
HETATM   26  C   UNK N   1      31.458  16.445   7.540  0.00  0.00    -0.023 A 
HETATM   27  C   UNK N   1      32.139  13.127   3.892  0.00  0.00    -0.023 A 
HETATM   28  C   UNK N   1      31.432  12.636   2.870  0.00  0.00    -0.027 A 
HETATM   29  C   UNK N   1      31.954  11.825   1.730  0.00  0.00     0.051 C 
HETATM   30  N   UNK N   1      27.624  14.994   2.699  0.00  0.00    -0.350 N 
HETATM   31  C   UNK N   1      28.717  15.931   2.939  0.00  0.00     0.156 C 
HETATM   32  H   UNK N   1      29.272  15.961   5.250  0.00  0.00     0.166 HD
ENDROOT
BRANCH  26  33
HETATM   33  C   UNK N   1      32.716  16.173   8.305  0.00  0.00     0.052 C 
BRANCH  33  34
HETATM   34  C   UNK N   1      33.885  16.914   7.676  0.00  0.00     0.115 C 
BRANCH  34  35
HETATM   35  C   UNK N   1      34.517  17.822   8.677  0.00  0.00     0.139 C 
HETATM   36  O   UNK N   1      34.924  18.918   8.331  0.00  0.00    -0.650 OA
BRANCH  35  37
HETATM   37  O   UNK N   1      34.659  17.426   9.956  0.00  0.00    -0.776 OA
HETATM   38  H   UNK N   1      35.088  17.869  10.662  0.00  0.00     0.167 HD
ENDBRANCH  35  37
ENDBRANCH  34  35
ENDBRANCH  33  34
ENDBRANCH  26  33
BRANCH  27  39
HETATM   39  C   UNK N   1      33.626  13.020   4.113  0.00  0.00     0.052 C 
BRANCH  39  40
HETATM   40  C   UNK N   1      34.397  14.312   3.879  0.00  0.00     0.115 C 
BRANCH  40  41
HETATM   41  C   UNK N   1      34.092  14.917   2.553  0.00  0.00     0.139 C 
HETATM   42  O   UNK N   1      34.468  14.362   1.535  0.00  0.00    -0.650 OA
BRANCH  41  43
HETATM   43  O   UNK N   1      33.378  16.056   2.473  0.00  0.00    -0.776 OA
HETATM   44  H   UNK N   1      33.668  16.914   2.713  0.00  0.00     0.167 HD
ENDBRANCH  41  43
ENDBRANCH  40  41
ENDBRANCH  39  40
ENDBRANCH  27  39
BRANCH   1  45
HETATM   45  C   UNK N   1      26.304  20.451   6.141  0.00  0.00     0.037 C 
HETATM   46  C   UNK N   1      27.424  21.387   5.733  0.00  0.00     0.010 C 
ENDBRANCH   1  45
BRANCH   7  47
HETATM   47  C   UNK N   1      24.112  14.083   2.057  0.00  0.00     0.037 C 
HETATM   48  C   UNK N   1      23.762  14.197   0.584  0.00  0.00     0.010 C 
ENDBRANCH   7  47
TORSDOF 10
ENDMDL
MODEL 2
REMARK VINA RESULT:      -8.6      1.180      1.411
REMARK  10 active torsions:
REMARK  status: ('A' for Active; 'I' for Inactive)
REMARK    1  A    between atoms: C_2  and  C_3 
REMARK    2  A    between atoms: C_9  and  C_10 
REMARK    3  A    between atoms: C_30  and  C_31 
REMARK    4  A    between atoms: C_31  and  C_32 
REMARK    5  A    between atoms: C_32  and  C_33 
REMARK    6  A    between atoms: C_33  and  O_34 
REMARK    7  A    between atoms: C_36  and  C_37 
REMARK    8  A    between atoms: C_37  and  C_38 
REMARK    9  A    between atoms: C_38  and  C_39 
REMARK   10  A    between atoms: C_39  and  O_40 
ROOT
HETATM    1  C   UNK N   1      26.424  19.463   5.487  0.00  0.00    -0.024 A 
HETATM    2  C   UNK N   1      25.735  19.031   4.429  0.00  0.00    -0.027 A 
HETATM    3  C   UNK N   1      24.634  19.757   3.727  0.00  0.00     0.051 C 
HETATM    4  C   UNK N   1      26.292  17.726   4.084  0.00  0.00     0.041 A 
HETATM    5  C   UNK N   1      25.896  16.929   3.075  0.00  0.00     0.060 C 
HETATM    6  C   UNK N   1      26.534  15.632   2.727  0.00  0.00     0.043 A 
HETATM    7  C   UNK N   1      25.861  14.543   2.190  0.00  0.00    -0.023 A 
HETATM    8  C   UNK N   1      26.794  13.535   2.033  0.00  0.00    -0.026 A 
HETATM    9  C   UNK N   1      26.541  12.169   1.489  0.00  0.00     0.051 C 
HETATM   10  C   UNK N   1      28.007  14.037   2.470  0.00  0.00     0.043 A 
HETATM   11  C   UNK N   1      29.293  13.300   2.470  0.00  0.00     0.060 C 
HETATM   12  C   UNK N   1      30.225  13.446   3.429  0.00  0.00     0.041 A 
HETATM   13  N   UNK N   1      30.077  14.219   4.603  0.00  0.00    -0.355 N 
ATOM     14  HN  UNK N   1      29.231  14.706   4.899  1.00  0.00     0.166 HD
HETATM   15  C   UNK N   1      31.196  14.196   5.228  0.00  0.00     0.041 A 
HETATM   16  C   UNK N   1      31.491  14.956   6.457  0.00  0.00     0.060 C 
HETATM   17  C   UNK N   1      30.801  15.999   6.943  0.00  0.00     0.041 A 
HETATM   18  N   UNK N   1      29.704  16.560   6.377  0.00  0.00    -0.355 N 
HETATM   19  C   UNK N   1      29.393  17.626   7.156  0.00  0.00     0.041 A 
HETATM   20  C   UNK N   1      28.387  18.488   6.932  0.00  0.00     0.060 C 
HETATM   21  C   UNK N   1      27.413  18.417   5.821  0.00  0.00     0.041 A 
HETATM   22  N   UNK N   1      27.311  17.427   5.013  0.00  0.00    -0.355 N 
ATOM     23  HN  UNK N   1      27.869  16.574   5.038  1.00  0.00     0.166 HD
HETATM   24  C   UNK N   1      30.282  17.733   8.210  0.00  0.00    -0.027 A 
HETATM   25  C   UNK N   1      30.300  18.784   9.270  0.00  0.00     0.051 C 
HETATM   26  C   UNK N   1      31.176  16.697   8.075  0.00  0.00    -0.023 A 
HETATM   27  C   UNK N   1      32.190  13.394   4.493  0.00  0.00    -0.023 A 
HETATM   28  C   UNK N   1      31.586  12.918   3.400  0.00  0.00    -0.027 A 
HETATM   29  C   UNK N   1      32.213  12.108   2.313  0.00  0.00     0.051 C 
HETATM   30  N   UNK N   1      27.845  15.326   2.854  0.00  0.00    -0.350 N 
HETATM   31  C   UNK N   1      28.918  16.247   3.213  0.00  0.00     0.156 C 
HETATM   32  H   UNK N   1      29.232  16.256   5.568  0.00  0.00     0.166 HD
ENDROOT
BRANCH  26  33
HETATM   33  C   UNK N   1      32.345  16.405   8.964  0.00  0.00     0.052 C 
BRANCH  33  34
HETATM   34  C   UNK N   1      33.482  17.370   8.673  0.00  0.00     0.115 C 
BRANCH  34  35
HETATM   35  C   UNK N   1      34.752  16.865   9.272  0.00  0.00     0.139 C 
HETATM   36  O   UNK N   1      35.350  17.546  10.088  0.00  0.00    -0.650 OA
BRANCH  35  37
HETATM   37  O   UNK N   1      35.249  15.671   8.900  0.00  0.00    -0.776 OA
HETATM   38  H   UNK N   1      35.866  15.479   8.222  0.00  0.00     0.167 HD
ENDBRANCH  35  37
ENDBRANCH  34  35
ENDBRANCH  33  34
ENDBRANCH  26  33
BRANCH  27  39
HETATM   39  C   UNK N   1      33.645  13.266   4.865  0.00  0.00     0.052 C 
BRANCH  39  40
HETATM   40  C   UNK N   1      34.516  14.436   4.429  0.00  0.00     0.115 C 
BRANCH  40  41
HETATM   41  C   UNK N   1      35.184  15.102   5.581  0.00  0.00     0.139 C 
HETATM   42  O   UNK N   1      34.920  16.263   5.842  0.00  0.00    -0.650 OA
BRANCH  41  43
HETATM   43  O   UNK N   1      36.050  14.419   6.353  0.00  0.00    -0.776 OA
HETATM   44  H   UNK N   1      36.899  14.112   6.101  0.00  0.00     0.167 HD
ENDBRANCH  41  43
ENDBRANCH  40  41
ENDBRANCH  39  40
ENDBRANCH  27  39
BRANCH   1  45
HETATM   45  C   UNK N   1      26.243  20.778   6.182  0.00  0.00     0.037 C 
HETATM   46  C   UNK N   1      27.449  21.671   5.967  0.00  0.00     0.010 C 
ENDBRANCH   1  45
BRANCH   7  47
HETATM   47  C   UNK N   1      24.408  14.465   1.846  0.00  0.00     0.037 C 
HETATM   48  C   UNK N   1      23.610  13.963   3.037  0.00  0.00     0.010 C 
ENDBRANCH   7  47
TORSDOF 10
ENDMDL
MODEL 3
REMARK VINA RESULT:      -8.4      1.174      5.993
REMARK  10 active torsions:
REMARK  status: ('A' for Active; 'I' for Inactive)
REMARK    1  A    between atoms: C_2  and  C_3 
REMARK    2  A    between atoms: C_9  and  C_10 
REMARK    3  A    between atoms: C_30  and  C_31 
REMARK    4  A    between atoms: C_31  and  C_32 
REMARK    5  A    between atoms: C_32  and  C_33 
REMARK    6  A    between atoms: C_33  and  O_34 
REMARK    7  A    between atoms: C_36  and  C_37 
REMARK    8  A    between atoms: C_37  and  C_38 
REMARK    9  A    between atoms: C_38  and  C_39 
REMARK   10  A    between atoms: C_39  and  O_40 
ROOT
HETATM    1  C   UNK N   1      25.555  13.789   2.193  0.00  0.00    -0.024 A 
HETATM    2  C   UNK N   1      24.683  14.770   2.438  0.00  0.00    -0.027 A 
HETATM    3  C   UNK N   1      23.253  14.816   2.009  0.00  0.00     0.051 C 
HETATM    4  C   UNK N   1      25.401  15.765   3.229  0.00  0.00     0.041 A 
HETATM    5  C   UNK N   1      24.902  16.923   3.700  0.00  0.00     0.060 C 
HETATM    6  C   UNK N   1      25.658  17.880   4.551  0.00  0.00     0.043 A 
HETATM    7  C   UNK N   1      25.477  19.256   4.536  0.00  0.00    -0.023 A 
HETATM    8  C   UNK N   1      26.375  19.786   5.446  0.00  0.00    -0.026 A 
HETATM    9  C   UNK N   1      26.555  21.229   5.777  0.00  0.00     0.051 C 
HETATM   10  C   UNK N   1      27.070  18.721   5.992  0.00  0.00     0.043 A 
HETATM   11  C   UNK N   1      28.127  18.824   7.026  0.00  0.00     0.060 C 
HETATM   12  C   UNK N   1      29.205  18.019   7.058  0.00  0.00     0.041 A 
HETATM   13  N   UNK N   1      29.536  17.056   6.079  0.00  0.00    -0.355 N 
ATOM     14  HN  UNK N   1      29.041  16.894   5.202  1.00  0.00     0.166 HD
HETATM   15  C   UNK N   1      30.572  16.421   6.492  0.00  0.00     0.041 A 
HETATM   16  C   UNK N   1      31.184  15.270   5.805  0.00  0.00     0.060 C 
HETATM   17  C   UNK N   1      30.623  14.509   4.852  0.00  0.00     0.041 A 
HETATM   18  N   UNK N   1      29.371  14.654   4.355  0.00  0.00    -0.355 N 
HETATM   19  C   UNK N   1      29.199  13.628   3.484  0.00  0.00     0.041 A 
HETATM   20  C   UNK N   1      28.076  13.371   2.793  0.00  0.00     0.060 C 
HETATM   21  C   UNK N   1      26.835  14.176   2.820  0.00  0.00     0.041 A 
HETATM   22  N   UNK N   1      26.728  15.316   3.397  0.00  0.00    -0.355 N 
ATOM     23  HN  UNK N   1      27.470  15.810   3.891  1.00  0.00     0.166 HD
HETATM   24  C   UNK N   1      30.338  12.844   3.428  0.00  0.00    -0.027 A 
HETATM   25  C   UNK N   1      30.541  11.609   2.615  0.00  0.00     0.051 C 
HETATM   26  C   UNK N   1      31.243  13.407   4.295  0.00  0.00    -0.023 A 
HETATM   27  C   UNK N   1      31.006  16.927   7.806  0.00  0.00    -0.023 A 
HETATM   28  C   UNK N   1      30.178  17.920   8.143  0.00  0.00    -0.027 A 
HETATM   29  C   UNK N   1      30.180  18.692   9.421  0.00  0.00     0.051 C 
HETATM   30  N   UNK N   1      26.598  17.564   5.469  0.00  0.00    -0.350 N 
HETATM   31  C   UNK N   1      26.954  16.221   5.916  0.00  0.00     0.156 C 
HETATM   32  H   UNK N   1      28.720  15.358   4.580  0.00  0.00     0.166 HD
ENDROOT
BRANCH  26  33
HETATM   33  C   UNK N   1      32.620  12.902   4.600  0.00  0.00     0.052 C 
BRANCH  33  34
HETATM   34  C   UNK N   1      33.561  13.208   3.447  0.00  0.00     0.115 C 
BRANCH  34  35
HETATM   35  C   UNK N   1      33.869  14.667   3.407  0.00  0.00     0.139 C 
HETATM   36  O   UNK N   1      33.654  15.305   2.390  0.00  0.00    -0.650 OA
BRANCH  35  37
HETATM   37  O   UNK N   1      34.402  15.277   4.483  0.00  0.00    -0.776 OA
HETATM   38  H   UNK N   1      34.135  16.074   4.896  0.00  0.00     0.167 HD
ENDBRANCH  35  37
ENDBRANCH  34  35
ENDBRANCH  33  34
ENDBRANCH  26  33
BRANCH  27  39
HETATM   39  C   UNK N   1      32.101  16.322   8.647  0.00  0.00     0.052 C 
BRANCH  39  40
HETATM   40  C   UNK N   1      33.407  17.104   8.645  0.00  0.00     0.115 C 
BRANCH  40  41
HETATM   41  C   UNK N   1      34.226  16.830   7.431  0.00  0.00     0.139 C 
HETATM   42  O   UNK N   1      34.803  15.762   7.321  0.00  0.00    -0.650 OA
BRANCH  41  43
HETATM   43  O   UNK N   1      34.304  17.741   6.443  0.00  0.00    -0.776 OA
HETATM   44  H   UNK N   1      33.666  18.396   6.238  0.00  0.00     0.167 HD
ENDBRANCH  41  43
ENDBRANCH  40  41
ENDBRANCH  39  40
ENDBRANCH  27  39
BRANCH   1  45
HETATM   45  C   UNK N   1      25.271  12.521   1.446  0.00  0.00     0.037 C 
HETATM   46  C   UNK N   1      24.863  11.415   2.399  0.00  0.00     0.010 C 
ENDBRANCH   1  45
BRANCH   7  47
HETATM   47  C   UNK N   1      24.506  20.028   3.702  0.00  0.00     0.037 C 
HETATM   48  C   UNK N   1      25.160  20.474   2.407  0.00  0.00     0.010 C 
ENDBRANCH   7  47
TORSDOF 10
ENDMDL
MODEL 4
REMARK VINA RESULT:      -8.0      3.871      7.656
REMARK  10 active torsions:
REMARK  status: ('A' for Active; 'I' for Inactive)
REMARK    1  A    between atoms: C_2  and  C_3 
REMARK    2  A    between atoms: C_9  and  C_10 
REMARK    3  A    between atoms: C_30  and  C_31 
REMARK    4  A    between atoms: C_31  and  C_32 
REMARK    5  A    between atoms: C_32  and  C_33 
REMARK    6  A    between atoms: C_33  and  O_34 
REMARK    7  A    between atoms: C_36  and  C_37 
REMARK    8  A    between atoms: C_37  and  C_38 
REMARK    9  A    between atoms: C_38  and  C_39 
REMARK   10  A    between atoms: C_39  and  O_40 
ROOT
HETATM    1  C   UNK N   1      30.502  17.524   7.781  0.00  0.00    -0.024 A 
HETATM    2  C   UNK N   1      31.265  16.428   7.759  0.00  0.00    -0.027 A 
HETATM    3  C   UNK N   1      32.306  16.048   8.761  0.00  0.00     0.051 C 
HETATM    4  C   UNK N   1      30.855  15.671   6.580  0.00  0.00     0.041 A 
HETATM    5  C   UNK N   1      31.362  14.493   6.170  0.00  0.00     0.060 C 
HETATM    6  C   UNK N   1      30.872  13.731   4.991  0.00  0.00     0.043 A 
HETATM    7  C   UNK N   1      31.670  12.931   4.186  0.00  0.00    -0.023 A 
HETATM    8  C   UNK N   1      30.850  12.419   3.196  0.00  0.00    -0.026 A 
HETATM    9  C   UNK N   1      31.259  11.503   2.091  0.00  0.00     0.051 C 
HETATM   10  C   UNK N   1      29.579  12.914   3.429  0.00  0.00     0.043 A 
HETATM   11  C   UNK N   1      28.377  12.611   2.618  0.00  0.00     0.060 C 
HETATM   12  C   UNK N   1      27.406  13.512   2.378  0.00  0.00     0.041 A 
HETATM   13  N   UNK N   1      27.438  14.871   2.762  0.00  0.00    -0.355 N 
ATOM     14  HN  UNK N   1      28.219  15.352   3.208  1.00  0.00     0.166 HD
HETATM   15  C   UNK N   1      26.308  15.391   2.449  0.00  0.00     0.041 A 
HETATM   16  C   UNK N   1      25.899  16.772   2.765  0.00  0.00     0.060 C 
HETATM   17  C   UNK N   1      26.463  17.593   3.664  0.00  0.00     0.041 A 
HETATM   18  N   UNK N   1      27.513  17.291   4.467  0.00  0.00    -0.355 N 
HETATM   19  C   UNK N   1      27.689  18.374   5.265  0.00  0.00     0.041 A 
HETATM   20  C   UNK N   1      28.607  18.483   6.240  0.00  0.00     0.060 C 
HETATM   21  C   UNK N   1      29.617  17.465   6.600  0.00  0.00     0.041 A 
HETATM   22  N   UNK N   1      29.844  16.402   5.920  0.00  0.00    -0.355 N 
ATOM     23  HN  UNK N   1      29.377  16.133   5.056  1.00  0.00     0.166 HD
HETATM   24  C   UNK N   1      26.761  19.355   4.964  0.00  0.00    -0.027 A 
HETATM   25  C   UNK N   1      26.603  20.680   5.632  0.00  0.00     0.051 C 
HETATM   26  C   UNK N   1      25.984  18.858   3.945  0.00  0.00    -0.023 A 
HETATM   27  C   UNK N   1      25.424  14.389   1.828  0.00  0.00    -0.023 A 
HETATM   28  C   UNK N   1      26.107  13.241   1.767  0.00  0.00    -0.027 A 
HETATM   29  C   UNK N   1      25.601  11.924   1.278  0.00  0.00     0.051 C 
HETATM   30  N   UNK N   1      29.596  13.679   4.547  0.00  0.00    -0.350 N 
HETATM   31  C   UNK N   1      28.423  14.234   5.214  0.00  0.00     0.156 C 
HETATM   32  H   UNK N   1      28.038  16.458   4.470  0.00  0.00     0.166 HD
ENDROOT
BRANCH  26  33
HETATM   33  C   UNK N   1      24.824  19.544   3.291  0.00  0.00     0.052 C 
BRANCH  33  34
HETATM   34  C   UNK N   1      23.526  19.157   3.980  0.00  0.00     0.115 C 
BRANCH  34  35
HETATM   35  C   UNK N   1      22.364  19.759   3.265  0.00  0.00     0.139 C 
HETATM   36  O   UNK N   1      21.384  19.077   3.017  0.00  0.00    -0.650 OA
BRANCH  35  37
HETATM   37  O   UNK N   1      22.401  21.048   2.876  0.00  0.00    -0.776 OA
HETATM   38  H   UNK N   1      21.722  21.691   2.916  0.00  0.00     0.167 HD
ENDBRANCH  35  37
ENDBRANCH  34  35
ENDBRANCH  33  34
ENDBRANCH  26  33
BRANCH  27  39
HETATM   39  C   UNK N   1      23.980  14.615   1.464  0.00  0.00     0.052 C 
BRANCH  39  40
HETATM   40  C   UNK N   1      22.986  14.257   2.559  0.00  0.00     0.115 C 
BRANCH  40  41
HETATM   41  C   UNK N   1      22.418  15.464   3.222  0.00  0.00     0.139 C 
HETATM   42  O   UNK N   1      22.786  15.766   4.344  0.00  0.00    -0.650 OA
BRANCH  41  43
HETATM   43  O   UNK N   1      21.526  16.239   2.575  0.00  0.00    -0.776 OA
HETATM   44  H   UNK N   1      21.173  17.052   2.878  0.00  0.00     0.167 HD
ENDBRANCH  41  43
ENDBRANCH  40  41
ENDBRANCH  39  40
ENDBRANCH  27  39
BRANCH   1  45
HETATM   45  C   UNK N   1      30.526  18.594   8.830  0.00  0.00     0.037 C 
HETATM   46  C   UNK N   1      29.436  18.365   9.859  0.00  0.00     0.010 C 
ENDBRANCH   1  45
BRANCH   7  47
HETATM   47  C   UNK N   1      33.133  12.668   4.345  0.00  0.00     0.037 C 
HETATM   48  C   UNK N   1      33.941  13.699   3.576  0.00  0.00     0.010 C 
ENDBRANCH   7  47
TORSDOF 10
ENDMDL
MODEL 5
REMARK VINA RESULT:      -7.5      4.468      9.618
REMARK  10 active torsions:
REMARK  status: ('A' for Active; 'I' for Inactive)
REMARK    1  A    between atoms: C_2  and  C_3 
REMARK    2  A    between atoms: C_9  and  C_10 
REMARK    3  A    between atoms: C_30  and  C_31 
REMARK    4  A    between atoms: C_31  and  C_32 
REMARK    5  A    between atoms: C_32  and  C_33 
REMARK    6  A    between atoms: C_33  and  O_34 
REMARK    7  A    between atoms: C_36  and  C_37 
REMARK    8  A    between atoms: C_37  and  C_38 
REMARK    9  A    between atoms: C_38  and  C_39 
REMARK   10  A    between atoms: C_39  and  O_40 
ROOT
HETATM    1  C   UNK N   1      29.725  12.060   2.317  0.00  0.00    -0.024 A 
HETATM    2  C   UNK N   1      30.759  12.483   3.048  0.00  0.00    -0.027 A 
HETATM    3  C   UNK N   1      32.141  11.915   3.047  0.00  0.00     0.051 C 
HETATM    4  C   UNK N   1      30.273  13.624   3.820  0.00  0.00     0.041 A 
HETATM    5  C   UNK N   1      30.986  14.361   4.692  0.00  0.00     0.060 C 
HETATM    6  C   UNK N   1      30.461  15.550   5.412  0.00  0.00     0.043 A 
HETATM    7  C   UNK N   1      30.857  15.936   6.686  0.00  0.00    -0.023 A 
HETATM    8  C   UNK N   1      30.129  17.068   7.004  0.00  0.00    -0.026 A 
HETATM    9  C   UNK N   1      30.208  17.845   8.275  0.00  0.00     0.051 C 
HETATM   10  C   UNK N   1      29.317  17.343   5.918  0.00  0.00     0.043 A 
HETATM   11  C   UNK N   1      28.374  18.482   5.817  0.00  0.00     0.060 C 
HETATM   12  C   UNK N   1      27.187  18.400   5.188  0.00  0.00     0.041 A 
HETATM   13  N   UNK N   1      26.631  17.222   4.640  0.00  0.00    -0.355 N 
ATOM     14  HN  UNK N   1      27.024  16.283   4.708  1.00  0.00     0.166 HD
HETATM   15  C   UNK N   1      25.542  17.545   4.044  0.00  0.00     0.041 A 
HETATM   16  C   UNK N   1      24.703  16.620   3.262  0.00  0.00     0.060 C 
HETATM   17  C   UNK N   1      25.059  15.419   2.783  0.00  0.00     0.041 A 
HETATM   18  N   UNK N   1      26.276  14.838   2.919  0.00  0.00    -0.355 N 
HETATM   19  C   UNK N   1      26.214  13.681   2.214  0.00  0.00     0.041 A 
HETATM   20  C   UNK N   1      27.224  12.810   2.053  0.00  0.00     0.060 C 
HETATM   21  C   UNK N   1      28.576  12.929   2.642  0.00  0.00     0.041 A 
HETATM   22  N   UNK N   1      28.909  13.809   3.512  0.00  0.00    -0.355 N 
ATOM     23  HN  UNK N   1      28.295  14.518   3.912  1.00  0.00     0.166 HD
HETATM   24  C   UNK N   1      24.964  13.529   1.642  0.00  0.00    -0.027 A 
HETATM   25  C   UNK N   1      24.503  12.408   0.770  0.00  0.00     0.051 C 
HETATM   26  C   UNK N   1      24.230  14.632   2.006  0.00  0.00    -0.023 A 
HETATM   27  C   UNK N   1      25.298  18.995   4.151  0.00  0.00    -0.023 A 
HETATM   28  C   UNK N   1      26.298  19.514   4.871  0.00  0.00    -0.027 A 
HETATM   29  C   UNK N   1      26.517  20.957   5.185  0.00  0.00     0.051 C 
HETATM   30  N   UNK N   1      29.556  16.437   4.940  0.00  0.00    -0.350 N 
HETATM   31  C   UNK N   1      29.026  16.492   3.582  0.00  0.00     0.156 C 
HETATM   32  H   UNK N   1      27.047  15.186   3.425  0.00  0.00     0.166 HD
ENDROOT
BRANCH  26  33
HETATM   33  C   UNK N   1      22.818  14.937   1.609  0.00  0.00     0.052 C 
BRANCH  33  34
HETATM   34  C   UNK N   1      21.873  14.650   2.764  0.00  0.00     0.115 C 
BRANCH  34  35
HETATM   35  C   UNK N   1      21.068  15.864   3.085  0.00  0.00     0.139 C 
HETATM   36  O   UNK N   1      20.857  16.162   4.248  0.00  0.00    -0.650 OA
BRANCH  35  37
HETATM   37  O   UNK N   1      20.557  16.620   2.094  0.00  0.00    -0.776 OA
HETATM   38  H   UNK N   1      19.742  16.521   1.644  0.00  0.00     0.167 HD
ENDBRANCH  35  37
ENDBRANCH  34  35
ENDBRANCH  33  34
ENDBRANCH  26  33
BRANCH  27  39
HETATM   39  C   UNK N   1      24.189  19.739   3.453  0.00  0.00     0.052 C 
BRANCH  39  40
HETATM   40  C   UNK N   1      22.786  19.267   3.808  0.00  0.00     0.115 C 
BRANCH  40  41
HETATM   41  C   UNK N   1      21.733  20.035   3.087  0.00  0.00     0.139 C 
HETATM   42  O   UNK N   1      20.711  19.473   2.736  0.00  0.00    -0.650 OA
BRANCH  41  43
HETATM   43  O   UNK N   1      21.893  21.351   2.852  0.00  0.00    -0.776 OA
HETATM   44  H   UNK N   1      21.259  22.025   3.003  0.00  0.00     0.167 HD
ENDBRANCH  41  43
ENDBRANCH  40  41
ENDBRANCH  39  40
ENDBRANCH  27  39
BRANCH   1  45
HETATM   45  C   UNK N   1      29.744  10.931   1.332  0.00  0.00     0.037 C 
HETATM   46  C   UNK N   1      29.952  11.450  -0.078  0.00  0.00     0.010 C 
ENDBRANCH   1  45
BRANCH   7  47
HETATM   47  C   UNK N   1      31.872  15.265   7.554  0.00  0.00     0.037 C 
HETATM   48  C   UNK N   1      33.248  15.860   7.314  0.00  0.00     0.010 C 
ENDBRANCH   7  47
TORSDOF 10
ENDMDL
MODEL 6
REMARK VINA RESULT:      -7.5      1.796      6.038
REMARK  10 active torsions:
REMARK  status: ('A' for Active; 'I' for Inactive)
REMARK    1  A    between atoms: C_2  and  C_3 
REMARK    2  A    between atoms: C_9  and  C_10 
REMARK    3  A    between atoms: C_30  and  C_31 
REMARK    4  A    between atoms: C_31  and  C_32 
REMARK    5  A    between atoms: C_32  and  C_33 
REMARK    6  A    between atoms: C_33  and  O_34 
REMARK    7  A    between atoms: C_36  and  C_37 
REMARK    8  A    between atoms: C_37  and  C_38 
REMARK    9  A    between atoms: C_38  and  C_39 
REMARK   10  A    between atoms: C_39  and  O_40 
ROOT
HETATM    1  C   UNK N   1      28.165  11.569   1.395  0.00  0.00    -0.024 A 
HETATM    2  C   UNK N   1      26.897  11.913   1.632  0.00  0.00    -0.027 A 
HETATM    3  C   UNK N   1      25.677  11.184   1.172  0.00  0.00     0.051 C 
HETATM    4  C   UNK N   1      26.948  13.120   2.452  0.00  0.00     0.041 A 
HETATM    5  C   UNK N   1      25.894  13.810   2.926  0.00  0.00     0.060 C 
HETATM    6  C   UNK N   1      25.997  15.004   3.805  0.00  0.00     0.043 A 
HETATM    7  C   UNK N   1      25.098  16.061   3.804  0.00  0.00    -0.023 A 
HETATM    8  C   UNK N   1      25.552  16.972   4.740  0.00  0.00    -0.026 A 
HETATM    9  C   UNK N   1      24.915  18.274   5.094  0.00  0.00     0.051 C 
HETATM   10  C   UNK N   1      26.708  16.444   5.288  0.00  0.00     0.043 A 
HETATM   11  C   UNK N   1      27.526  17.081   6.347  0.00  0.00     0.060 C 
HETATM   12  C   UNK N   1      28.868  16.991   6.394  0.00  0.00     0.041 A 
HETATM   13  N   UNK N   1      29.682  16.385   5.411  0.00  0.00    -0.355 N 
ATOM     14  HN  UNK N   1      29.365  16.001   4.521  1.00  0.00     0.166 HD
HETATM   15  C   UNK N   1      30.891  16.406   5.838  0.00  0.00     0.041 A 
HETATM   16  C   UNK N   1      32.039  15.788   5.150  0.00  0.00     0.060 C 
HETATM   17  C   UNK N   1      31.994  14.867   4.176  0.00  0.00     0.041 A 
HETATM   18  N   UNK N   1      30.870  14.319   3.653  0.00  0.00    -0.355 N 
HETATM   19  C   UNK N   1      31.295  13.385   2.765  0.00  0.00     0.041 A 
HETATM   20  C   UNK N   1      30.500  12.576   2.045  0.00  0.00     0.060 C 
HETATM   21  C   UNK N   1      29.021  12.576   2.055  0.00  0.00     0.041 A 
HETATM   22  N   UNK N   1      28.304  13.461   2.644  0.00  0.00    -0.355 N 
ATOM     23  HN  UNK N   1      28.652  14.267   3.160  1.00  0.00     0.166 HD
HETATM   24  C   UNK N   1      32.676  13.348   2.724  0.00  0.00    -0.027 A 
HETATM   25  C   UNK N   1      33.529  12.441   1.900  0.00  0.00     0.051 C 
HETATM   26  C   UNK N   1      33.120  14.292   3.619  0.00  0.00    -0.023 A 
HETATM   27  C   UNK N   1      30.965  17.037   7.168  0.00  0.00    -0.023 A 
HETATM   28  C   UNK N   1      29.725  17.412   7.499  0.00  0.00    -0.027 A 
HETATM   29  C   UNK N   1      29.292  18.032   8.786  0.00  0.00     0.051 C 
HETATM   30  N   UNK N   1      26.948  15.229   4.741  0.00  0.00    -0.350 N 
HETATM   31  C   UNK N   1      27.971  14.286   5.179  0.00  0.00     0.156 C 
HETATM   32  H   UNK N   1      29.938  14.552   3.872  0.00  0.00     0.166 HD
ENDROOT
BRANCH  26  33
HETATM   33  C   UNK N   1      34.546  14.610   3.949  0.00  0.00     0.052 C 
BRANCH  33  34
HETATM   34  C   UNK N   1      35.000  13.805   5.156  0.00  0.00     0.115 C 
BRANCH  34  35
HETATM   35  C   UNK N   1      35.188  14.703   6.332  0.00  0.00     0.139 C 
HETATM   36  O   UNK N   1      35.572  15.848   6.167  0.00  0.00    -0.650 OA
BRANCH  35  37
HETATM   37  O   UNK N   1      34.954  14.245   7.577  0.00  0.00    -0.776 OA
HETATM   38  H   UNK N   1      34.989  14.713   8.388  0.00  0.00     0.167 HD
ENDBRANCH  35  37
ENDBRANCH  34  35
ENDBRANCH  33  34
ENDBRANCH  26  33
BRANCH  27  39
HETATM   39  C   UNK N   1      32.202  17.105   8.026  0.00  0.00     0.052 C 
BRANCH  39  40
HETATM   40  C   UNK N   1      33.180  18.206   7.641  0.00  0.00     0.115 C 
BRANCH  40  41
HETATM   41  C   UNK N   1      34.473  18.092   8.372  0.00  0.00     0.139 C 
HETATM   42  O   UNK N   1      35.195  19.068   8.477  0.00  0.00    -0.650 OA
BRANCH  41  43
HETATM   43  O   UNK N   1      34.831  16.926   8.943  0.00  0.00    -0.776 OA
HETATM   44  H   UNK N   1      35.686  16.695   9.250  0.00  0.00     0.167 HD
ENDBRANCH  41  43
ENDBRANCH  40  41
ENDBRANCH  39  40
ENDBRANCH  27  39
BRANCH   1  45
HETATM   45  C   UNK N   1      28.625  10.369   0.625  0.00  0.00     0.037 C 
HETATM   46  C   UNK N   1      29.353  10.785  -0.638  0.00  0.00     0.010 C 
ENDBRANCH   1  45
BRANCH   7  47
HETATM   47  C   UNK N   1      23.873  16.199   2.958  0.00  0.00     0.037 C 
HETATM   48  C   UNK N   1      22.668  15.616   3.675  0.00  0.00     0.010 C 
ENDBRANCH   7  47
TORSDOF 10
ENDMDL
MODEL 7
REMARK VINA RESULT:      -7.4      3.205      9.154
REMARK  10 active torsions:
REMARK  status: ('A' for Active; 'I' for Inactive)
REMARK    1  A    between atoms: C_2  and  C_3 
REMARK    2  A    between atoms: C_9  and  C_10 
REMARK    3  A    between atoms: C_30  and  C_31 
REMARK    4  A    between atoms: C_31  and  C_32 
REMARK    5  A    between atoms: C_32  and  C_33 
REMARK    6  A    between atoms: C_33  and  O_34 
REMARK    7  A    between atoms: C_36  and  C_37 
REMARK    8  A    between atoms: C_37  and  C_38 
REMARK    9  A    between atoms: C_38  and  C_39 
REMARK   10  A    between atoms: C_39  and  O_40 
ROOT
HETATM    1  C   UNK N   1      34.273  13.240   2.252  0.00  0.00    -0.024 A 
HETATM    2  C   UNK N   1      35.337  13.466   3.026  0.00  0.00    -0.027 A 
HETATM    3  C   UNK N   1      36.768  13.234   2.663  0.00  0.00     0.051 C 
HETATM    4  C   UNK N   1      34.821  14.011   4.279  0.00  0.00     0.041 A 
HETATM    5  C   UNK N   1      35.548  14.385   5.348  0.00  0.00     0.060 C 
HETATM    6  C   UNK N   1      34.980  14.988   6.582  0.00  0.00     0.043 A 
HETATM    7  C   UNK N   1      35.504  14.813   7.855  0.00  0.00    -0.023 A 
HETATM    8  C   UNK N   1      34.685  15.512   8.723  0.00  0.00    -0.026 A 
HETATM    9  C   UNK N   1      34.845  15.619  10.202  0.00  0.00     0.051 C 
HETATM   10  C   UNK N   1      33.692  16.097   7.956  0.00  0.00     0.043 A 
HETATM   11  C   UNK N   1      32.599  16.955   8.474  0.00  0.00     0.060 C 
HETATM   12  C   UNK N   1      31.355  16.949   7.962  0.00  0.00     0.041 A 
HETATM   13  N   UNK N   1      30.888  16.073   6.957  0.00  0.00    -0.355 N 
ATOM     14  HN  UNK N   1      31.410  15.301   6.541  1.00  0.00     0.166 HD
HETATM   15  C   UNK N   1      29.690  16.422   6.661  0.00  0.00     0.041 A 
HETATM   16  C   UNK N   1      28.877  15.820   5.589  0.00  0.00     0.060 C 
HETATM   17  C   UNK N   1      29.317  15.063   4.572  0.00  0.00     0.041 A 
HETATM   18  N   UNK N   1      30.608  14.726   4.334  0.00  0.00    -0.355 N 
HETATM   19  C   UNK N   1      30.599  14.033   3.168  0.00  0.00     0.041 A 
HETATM   20  C   UNK N   1      31.683  13.541   2.544  0.00  0.00     0.060 C 
HETATM   21  C   UNK N   1      33.078  13.629   3.027  0.00  0.00     0.041 A 
HETATM   22  N   UNK N   1      33.414  14.056   4.188  0.00  0.00    -0.355 N 
ATOM     23  HN  UNK N   1      32.776  14.373   4.917  1.00  0.00     0.166 HD
HETATM   24  C   UNK N   1      29.310  13.928   2.676  0.00  0.00    -0.027 A 
HETATM   25  C   UNK N   1      28.881  13.269   1.408  0.00  0.00     0.051 C 
HETATM   26  C   UNK N   1      28.496  14.581   3.571  0.00  0.00    -0.023 A 
HETATM   27  C   UNK N   1      29.271  17.585   7.463  0.00  0.00    -0.023 A 
HETATM   28  C   UNK N   1      30.287  17.894   8.275  0.00  0.00    -0.027 A 
HETATM   29  C   UNK N   1      30.354  19.044   9.225  0.00  0.00     0.051 C 
HETATM   30  N   UNK N   1      33.904  15.805   6.651  0.00  0.00    -0.350 N 
HETATM   31  C   UNK N   1      33.177  16.376   5.522  0.00  0.00     0.156 C 
HETATM   32  H   UNK N   1      31.391  14.941   4.892  0.00  0.00     0.166 HD
ENDROOT
BRANCH  26  33
HETATM   33  C   UNK N   1      27.014  14.761   3.462  0.00  0.00     0.052 C 
BRANCH  33  34
HETATM   34  C   UNK N   1      26.692  16.031   2.691  0.00  0.00     0.115 C 
BRANCH  34  35
HETATM   35  C   UNK N   1      26.188  17.084   3.620  0.00  0.00     0.139 C 
HETATM   36  O   UNK N   1      26.279  18.260   3.312  0.00  0.00    -0.650 OA
BRANCH  35  37
HETATM   37  O   UNK N   1      25.652  16.740   4.807  0.00  0.00    -0.776 OA
HETATM   38  H   UNK N   1      25.717  15.925   5.264  0.00  0.00     0.167 HD
ENDBRANCH  35  37
ENDBRANCH  34  35
ENDBRANCH  33  34
ENDBRANCH  26  33
BRANCH  27  39
HETATM   39  C   UNK N   1      27.981  18.343   7.280  0.00  0.00     0.052 C 
BRANCH  39  40
HETATM   40  C   UNK N   1      28.008  19.383   6.169  0.00  0.00     0.115 C 
BRANCH  40  41
HETATM   41  C   UNK N   1      26.772  20.212   6.143  0.00  0.00     0.139 C 
HETATM   42  O   UNK N   1      26.847  21.414   6.335  0.00  0.00    -0.650 OA
BRANCH  41  43
HETATM   43  O   UNK N   1      25.579  19.647   5.878  0.00  0.00    -0.776 OA
HETATM   44  H   UNK N   1      25.294  18.795   6.146  0.00  0.00     0.167 HD
ENDBRANCH  41  43
ENDBRANCH  40  41
ENDBRANCH  39  40
ENDBRANCH  27  39
BRANCH   1  45
HETATM   45  C   UNK N   1      34.299  12.716   0.848  0.00  0.00     0.037 C 
HETATM   46  C   UNK N   1      34.008  11.228   0.823  0.00  0.00     0.010 C 
ENDBRANCH   1  45
BRANCH   7  47
HETATM   47  C   UNK N   1      36.717  14.023   8.228  0.00  0.00     0.037 C 
HETATM   48  C   UNK N   1      36.357  12.559   8.410  0.00  0.00     0.010 C 
ENDBRANCH   7  47
TORSDOF 10
ENDMDL
MODEL 8
REMARK VINA RESULT:      -7.4      2.579      6.767
REMARK  10 active torsions:
REMARK  status: ('A' for Active; 'I' for Inactive)
REMARK    1  A    between atoms: C_2  and  C_3 
REMARK    2  A    between atoms: C_9  and  C_10 
REMARK    3  A    between atoms: C_30  and  C_31 
REMARK    4  A    between atoms: C_31  and  C_32 
REMARK    5  A    between atoms: C_32  and  C_33 
REMARK    6  A    between atoms: C_33  and  O_34 
REMARK    7  A    between atoms: C_36  and  C_37 
REMARK    8  A    between atoms: C_37  and  C_38 
REMARK    9  A    between atoms: C_38  and  C_39 
REMARK   10  A    between atoms: C_39  and  O_40 
ROOT
HETATM    1  C   UNK N   1      30.242  10.025   2.197  0.00  0.00    -0.024 A 
HETATM    2  C   UNK N   1      28.994   9.601   1.988  0.00  0.00    -0.027 A 
HETATM    3  C   UNK N   1      28.548   8.182   1.850  0.00  0.00     0.051 C 
HETATM    4  C   UNK N   1      28.158  10.797   1.950  0.00  0.00     0.041 A 
HETATM    5  C   UNK N   1      26.826  10.837   1.762  0.00  0.00     0.060 C 
HETATM    6  C   UNK N   1      26.009  12.078   1.789  0.00  0.00     0.043 A 
HETATM    7  C   UNK N   1      24.863  12.281   1.033  0.00  0.00    -0.023 A 
HETATM    8  C   UNK N   1      24.414  13.557   1.324  0.00  0.00    -0.026 A 
HETATM    9  C   UNK N   1      23.210  14.226   0.751  0.00  0.00     0.051 C 
HETATM   10  C   UNK N   1      25.292  14.091   2.251  0.00  0.00     0.043 A 
HETATM   11  C   UNK N   1      25.187  15.440   2.856  0.00  0.00     0.060 C 
HETATM   12  C   UNK N   1      26.258  16.196   3.158  0.00  0.00     0.041 A 
HETATM   13  N   UNK N   1      27.600  15.873   2.852  0.00  0.00    -0.355 N 
ATOM     14  HN  UNK N   1      27.917  15.067   2.314  1.00  0.00     0.166 HD
HETATM   15  C   UNK N   1      28.346  16.777   3.372  0.00  0.00     0.041 A 
HETATM   16  C   UNK N   1      29.820  16.761   3.362  0.00  0.00     0.060 C 
HETATM   17  C   UNK N   1      30.613  15.708   3.111  0.00  0.00     0.041 A 
HETATM   18  N   UNK N   1      30.196  14.449   2.833  0.00  0.00    -0.355 N 
HETATM   19  C   UNK N   1      31.323  13.701   2.733  0.00  0.00     0.041 A 
HETATM   20  C   UNK N   1      31.364  12.378   2.502  0.00  0.00     0.060 C 
HETATM   21  C   UNK N   1      30.196  11.499   2.277  0.00  0.00     0.041 A 
HETATM   22  N   UNK N   1      28.995  11.921   2.120  0.00  0.00    -0.355 N 
ATOM     23  HN  UNK N   1      28.698  12.895   2.120  1.00  0.00     0.166 HD
HETATM   24  C   UNK N   1      32.444  14.484   2.940  0.00  0.00    -0.027 A 
HETATM   25  C   UNK N   1      33.868  14.036   2.943  0.00  0.00     0.051 C 
HETATM   26  C   UNK N   1      31.992  15.760   3.178  0.00  0.00    -0.023 A 
HETATM   27  C   UNK N   1      27.534  17.782   4.081  0.00  0.00    -0.023 A 
HETATM   28  C   UNK N   1      26.253  17.434   3.931  0.00  0.00    -0.027 A 
HETATM   29  C   UNK N   1      25.066  18.114   4.532  0.00  0.00     0.051 C 
HETATM   30  N   UNK N   1      26.236  13.169   2.556  0.00  0.00    -0.350 N 
HETATM   31  C   UNK N   1      27.232  13.290   3.615  0.00  0.00     0.156 C 
HETATM   32  H   UNK N   1      29.266  14.140   2.727  0.00  0.00     0.166 HD
ENDROOT
BRANCH  26  33
HETATM   33  C   UNK N   1      32.831  16.963   3.482  0.00  0.00     0.052 C 
BRANCH  33  34
HETATM   34  C   UNK N   1      32.605  17.414   4.915  0.00  0.00     0.115 C 
BRANCH  34  35
HETATM   35  C   UNK N   1      33.800  17.093   5.750  0.00  0.00     0.139 C 
HETATM   36  O   UNK N   1      34.234  15.955   5.776  0.00  0.00    -0.650 OA
BRANCH  35  37
HETATM   37  O   UNK N   1      34.386  18.054   6.490  0.00  0.00    -0.776 OA
HETATM   38  H   UNK N   1      34.054  18.494   7.247  0.00  0.00     0.167 HD
ENDBRANCH  35  37
ENDBRANCH  34  35
ENDBRANCH  33  34
ENDBRANCH  26  33
BRANCH  27  39
HETATM   39  C   UNK N   1      28.087  18.904   4.922  0.00  0.00     0.052 C 
BRANCH  39  40
HETATM   40  C   UNK N   1      28.407  18.522   6.360  0.00  0.00     0.115 C 
BRANCH  40  41
HETATM   41  C   UNK N   1      27.726  19.410   7.343  0.00  0.00     0.139 C 
HETATM   42  O   UNK N   1      27.273  20.480   6.976  0.00  0.00    -0.650 OA
BRANCH  41  43
HETATM   43  O   UNK N   1      27.582  19.022   8.624  0.00  0.00    -0.776 OA
HETATM   44  H   UNK N   1      28.209  18.552   9.138  0.00  0.00     0.167 HD
ENDBRANCH  41  43
ENDBRANCH  40  41
ENDBRANCH  39  40
ENDBRANCH  27  39
BRANCH   1  45
HETATM   45  C   UNK N   1      31.455   9.158   2.352  0.00  0.00     0.037 C 
HETATM   46  C   UNK N   1      31.713   8.848   3.814  0.00  0.00     0.010 C 
ENDBRANCH   1  45
BRANCH   7  47
HETATM   47  C   UNK N   1      24.229  11.317   0.083  0.00  0.00     0.037 C 
HETATM   48  C   UNK N   1      23.187  10.477   0.802  0.00  0.00     0.010 C 
ENDBRANCH   7  47
TORSDOF 10
ENDMDL
MODEL 9
REMARK VINA RESULT:      -7.1      3.552      9.335
REMARK  10 active torsions:
REMARK  status: ('A' for Active; 'I' for Inactive)
REMARK    1  A    between atoms: C_2  and  C_3 
REMARK    2  A    between atoms: C_9  and  C_10 
REMARK    3  A    between atoms: C_30  and  C_31 
REMARK    4  A    between atoms: C_31  and  C_32 
REMARK    5  A    between atoms: C_32  and  C_33 
REMARK    6  A    between atoms: C_33  and  O_34 
REMARK    7  A    between atoms: C_36  and  C_37 
REMARK    8  A    between atoms: C_37  and  C_38 
REMARK    9  A    between atoms: C_38  and  C_39 
REMARK   10  A    between atoms: C_39  and  O_40 
ROOT
HETATM    1  C   UNK N   1      31.732  12.309   1.764  0.00  0.00    -0.024 A 
HETATM    2  C   UNK N   1      32.775  12.897   2.355  0.00  0.00    -0.027 A 
HETATM    3  C   UNK N   1      34.219  12.634   2.077  0.00  0.00     0.051 C 
HETATM    4  C   UNK N   1      32.218  13.860   3.300  0.00  0.00     0.041 A 
HETATM    5  C   UNK N   1      32.914  14.678   4.112  0.00  0.00     0.060 C 
HETATM    6  C   UNK N   1      32.302  15.684   5.018  0.00  0.00     0.043 A 
HETATM    7  C   UNK N   1      32.834  16.068   6.241  0.00  0.00    -0.023 A 
HETATM    8  C   UNK N   1      31.964  16.999   6.780  0.00  0.00    -0.026 A 
HETATM    9  C   UNK N   1      32.113  17.699   8.090  0.00  0.00     0.051 C 
HETATM   10  C   UNK N   1      30.934  17.162   5.871  0.00  0.00     0.043 A 
HETATM   11  C   UNK N   1      29.781  18.079   6.033  0.00  0.00     0.060 C 
HETATM   12  C   UNK N   1      28.542  17.786   5.599  0.00  0.00     0.041 A 
HETATM   13  N   UNK N   1      28.141  16.552   5.039  0.00  0.00    -0.355 N 
ATOM     14  HN  UNK N   1      28.718  15.716   4.952  1.00  0.00     0.166 HD
HETATM   15  C   UNK N   1      26.922  16.673   4.661  0.00  0.00     0.041 A 
HETATM   16  C   UNK N   1      26.156  15.640   3.940  0.00  0.00     0.060 C 
HETATM   17  C   UNK N   1      26.652  14.572   3.298  0.00  0.00     0.041 A 
HETATM   18  N   UNK N   1      27.965  14.255   3.179  0.00  0.00    -0.355 N 
HETATM   19  C   UNK N   1      28.008  13.155   2.386  0.00  0.00     0.041 A 
HETATM   20  C   UNK N   1      29.125  12.529   1.982  0.00  0.00     0.060 C 
HETATM   21  C   UNK N   1      30.510  12.895   2.352  0.00  0.00     0.041 A 
HETATM   22  N   UNK N   1      30.811  13.772   3.237  0.00  0.00    -0.355 N 
ATOM     23  HN  UNK N   1      30.151  14.310   3.797  1.00  0.00     0.166 HD
HETATM   24  C   UNK N   1      26.731  12.777   2.012  0.00  0.00    -0.027 A 
HETATM   25  C   UNK N   1      26.353  11.638   1.123  0.00  0.00     0.051 C 
HETATM   26  C   UNK N   1      25.870  13.676   2.594  0.00  0.00    -0.023 A 
HETATM   27  C   UNK N   1      26.418  18.029   4.944  0.00  0.00    -0.023 A 
HETATM   28  C   UNK N   1      27.408  18.704   5.538  0.00  0.00    -0.027 A 
HETATM   29  C   UNK N   1      27.390  20.140   5.949  0.00  0.00     0.051 C 
HETATM   30  N   UNK N   1      31.170  16.387   4.785  0.00  0.00    -0.350 N 
HETATM   31  C   UNK N   1      30.406  16.410   3.542  0.00  0.00     0.156 C 
HETATM   32  H   UNK N   1      28.729  14.726   3.584  0.00  0.00     0.166 HD
ENDROOT
BRANCH  26  33
HETATM   33  C   UNK N   1      24.379  13.698   2.462  0.00  0.00     0.052 C 
BRANCH  33  34
HETATM   34  C   UNK N   1      23.971  14.464   1.214  0.00  0.00     0.115 C 
BRANCH  34  35
HETATM   35  C   UNK N   1      22.617  14.031   0.762  0.00  0.00     0.139 C 
HETATM   36  O   UNK N   1      21.712  14.844   0.692  0.00  0.00    -0.650 OA
BRANCH  35  37
HETATM   37  O   UNK N   1      22.388  12.740   0.452  0.00  0.00    -0.776 OA
HETATM   38  H   UNK N   1      22.966  12.124   0.048  0.00  0.00     0.167 HD
ENDBRANCH  35  37
ENDBRANCH  34  35
ENDBRANCH  33  34
ENDBRANCH  26  33
BRANCH  27  39
HETATM   39  C   UNK N   1      25.078  18.563   4.509  0.00  0.00     0.052 C 
BRANCH  39  40
HETATM   40  C   UNK N   1      24.988  18.927   3.034  0.00  0.00     0.115 C 
BRANCH  40  41
HETATM   41  C   UNK N   1      24.841  20.394   2.824  0.00  0.00     0.139 C 
HETATM   42  O   UNK N   1      25.784  21.040   2.399  0.00  0.00    -0.650 OA
BRANCH  41  43
HETATM   43  O   UNK N   1      23.665  21.002   3.069  0.00  0.00    -0.776 OA
HETATM   44  H   UNK N   1      22.814  20.678   2.849  0.00  0.00     0.167 HD
ENDBRANCH  41  43
ENDBRANCH  40  41
ENDBRANCH  39  40
ENDBRANCH  27  39
BRANCH   1  45
HETATM   45  C   UNK N   1      31.798  11.271   0.686  0.00  0.00     0.037 C 
HETATM   46  C   UNK N   1      31.733  11.914  -0.686  0.00  0.00     0.010 C 
ENDBRANCH   1  45
BRANCH   7  47
HETATM   47  C   UNK N   1      34.100  15.575   6.866  0.00  0.00     0.037 C 
HETATM   48  C   UNK N   1      33.816  14.385   7.764  0.00  0.00     0.010 C 
ENDBRANCH   7  47
TORSDOF 10
ENDMDL
