MODEL 1
REMARK VINA RESULT:      -6.2      0.000      0.000
REMARK  9 active torsions:
REMARK  status: ('A' for Active; 'I' for Inactive)
REMARK    1  A    between atoms: C_3  and  C_1 
REMARK    2  A    between atoms: O_22  and  C_1 
REMARK    3  A    between atoms: C_7  and  C_4 
REMARK    4  A    between atoms: C_5  and  O_14 
REMARK    5  A    between atoms: C_6  and  O_15 
REMARK       I    between atoms: N_10  and  C_7 
REMARK    6  A    between atoms: O_17  and  C_8 
REMARK    7  A    between atoms: C_9  and  N_13 
REMARK    8  A    between atoms: P_24  and  O_20 
REMARK    9  A    between atoms: P_24  and  O_22 
ROOT
HETATM    1  C   UNK N   1      30.106  17.117   7.275  0.00  0.00     0.180 C 
HETATM    2  C   UNK N   1      29.797  17.676   8.672  0.00  0.00     0.182 C 
HETATM    3  C   UNK N   1      28.558  18.527   8.402  0.00  0.00     0.198 C 
HETATM    4  C   UNK N   1      28.203  18.147   6.970  0.00  0.00     0.262 C 
HETATM    5  O   UNK N   1      29.450  17.951   6.348  0.00  0.00    -0.353 OA
ENDROOT
BRANCH   4   6
HETATM    6  N   UNK N   1      27.411  19.151   6.253  0.00  0.00    -0.292 N 
HETATM    7  C   UNK N   1      27.080  20.404   6.641  0.00  0.00     0.188 A 
HETATM    8  N   UNK N   1      26.311  21.021   5.707  0.00  0.00    -0.344 N 
HETATM    9  C   UNK N   1      26.170  20.123   4.709  0.00  0.00     0.153 A 
ATOM     10  HN  UNK N   1      25.923  21.963   5.751  1.00  0.00     0.167 HD
HETATM   11  C   UNK N   1      26.845  18.980   5.050  0.00  0.00     0.178 A 
BRANCH   9  12
HETATM   12  C   UNK N   1      25.411  20.366   3.469  0.00  0.00     0.270 C 
HETATM   13  N   UNK N   1      24.104  20.041   3.402  0.00  0.00    -0.365 N 
HETATM   14  H   UNK N   1      23.599  19.686   4.169  0.00  0.00     0.159 HD
HETATM   15  H   UNK N   1      23.634  20.165   2.546  0.00  0.00     0.159 HD
HETATM   16  O   UNK N   1      25.960  20.860   2.498  0.00  0.00    -0.266 OA
ENDBRANCH   9  12
BRANCH  11  17
HETATM   17  O   UNK N   1      26.944  17.858   4.314  0.00  0.00    -0.344 OA
ATOM     18  HO  UNK N   1      26.313  17.541   3.678  1.00  0.00     0.219 HD
ENDBRANCH  11  17
ENDBRANCH   4   6
BRANCH   3  19
HETATM   19  O   UNK N   1      27.517  18.288   9.303  0.00  0.00    -0.388 OA
HETATM   20  H   UNK N   1      27.453  17.971  10.217  0.00  0.00     0.210 HD
ENDBRANCH   3  19
BRANCH   2  21
HETATM   21  O   UNK N   1      30.828  18.498   9.142  0.00  0.00    -0.390 OA
HETATM   22  H   UNK N   1      31.632  19.023   9.004  0.00  0.00     0.210 HD
ENDBRANCH   2  21
BRANCH   1  23
HETATM   23  C   UNK N   1      31.582  16.951   6.941  0.00  0.00     0.216 C 
BRANCH  23  24
HETATM   24  O   UNK N   1      32.203  16.262   7.995  0.00  0.00    -0.287 OA
BRANCH  24  25
HETATM   25  P   UNK N   1      33.883  16.731   7.988  0.00  0.00     0.406 P 
HETATM   26  O   UNK N   1      34.615  17.841   9.104  0.00  0.00    -0.624 OA
HETATM   27  O   UNK N   1      33.352  18.060   7.378  0.00  0.00    -0.624 OA
BRANCH  25  28
HETATM   28  O   UNK N   1      33.188  16.694   9.580  0.00  0.00    -0.300 OA
HETATM   29  H   UNK N   1      33.339  15.967  10.205  0.00  0.00     0.223 HD
ENDBRANCH  25  28
ENDBRANCH  24  25
ENDBRANCH  23  24
ENDBRANCH   1  23
TORSDOF 9
ENDMDL
MODEL 2
REMARK VINA RESULT:      -6.2      8.218     11.483
REMARK  9 active torsions:
REMARK  status: ('A' for Active; 'I' for Inactive)
REMARK    1  A    between atoms: C_3  and  C_1 
REMARK    2  A    between atoms: O_22  and  C_1 
REMARK    3  A    between atoms: C_7  and  C_4 
REMARK    4  A    between atoms: C_5  and  O_14 
REMARK    5  A    between atoms: C_6  and  O_15 
REMARK       I    between atoms: N_10  and  C_7 
REMARK    6  A    between atoms: O_17  and  C_8 
REMARK    7  A    between atoms: C_9  and  N_13 
REMARK    8  A    between atoms: P_24  and  O_20 
REMARK    9  A    between atoms: P_24  and  O_22 
ROOT
HETATM    1  C   UNK N   1      34.922  15.014  10.513  0.00  0.00     0.180 C 
HETATM    2  C   UNK N   1      36.436  14.765  10.443  0.00  0.00     0.182 C 
HETATM    3  C   UNK N   1      36.622  13.665  11.486  0.00  0.00     0.198 C 
HETATM    4  C   UNK N   1      35.185  13.282  11.820  0.00  0.00     0.262 C 
HETATM    5  O   UNK N   1      34.481  14.499  11.748  0.00  0.00    -0.353 OA
ENDROOT
BRANCH   4   6
HETATM    6  N   UNK N   1      35.014  12.654  13.134  0.00  0.00    -0.292 N 
HETATM    7  C   UNK N   1      34.420  11.477  13.439  0.00  0.00     0.188 A 
HETATM    8  N   UNK N   1      34.439  11.251  14.778  0.00  0.00    -0.344 N 
HETATM    9  C   UNK N   1      35.069  12.318  15.313  0.00  0.00     0.153 A 
ATOM     10  HN  UNK N   1      34.057  10.446  15.273  1.00  0.00     0.167 HD
HETATM   11  C   UNK N   1      35.417  13.174  14.301  0.00  0.00     0.178 A 
BRANCH   9  12
HETATM   12  C   UNK N   1      35.327  12.499  16.753  0.00  0.00     0.270 C 
HETATM   13  N   UNK N   1      35.329  13.736  17.288  0.00  0.00    -0.365 N 
HETATM   14  H   UNK N   1      35.115  14.546  16.771  0.00  0.00     0.159 HD
HETATM   15  H   UNK N   1      35.556  13.834  18.242  0.00  0.00     0.159 HD
HETATM   16  O   UNK N   1      35.540  11.533  17.467  0.00  0.00    -0.266 OA
ENDBRANCH   9  12
BRANCH  11  17
HETATM   17  O   UNK N   1      36.064  14.346  14.431  0.00  0.00    -0.344 OA
ATOM     18  HO  UNK N   1      35.980  15.105  13.864  1.00  0.00     0.219 HD
ENDBRANCH  11  17
ENDBRANCH   4   6
BRANCH   3  19
HETATM   19  O   UNK N   1      37.379  12.586  11.022  0.00  0.00    -0.388 OA
HETATM   20  H   UNK N   1      37.316  11.967  10.278  0.00  0.00     0.210 HD
ENDBRANCH   3  19
BRANCH   2  21
HETATM   21  O   UNK N   1      37.167  15.895  10.830  0.00  0.00    -0.390 OA
HETATM   22  H   UNK N   1      37.953  16.313  11.215  0.00  0.00     0.210 HD
ENDBRANCH   2  21
BRANCH   1  23
HETATM   23  C   UNK N   1      34.479  16.457  10.310  0.00  0.00     0.216 C 
BRANCH  23  24
HETATM   24  O   UNK N   1      35.207  17.001   9.241  0.00  0.00    -0.287 OA
BRANCH  24  25
HETATM   25  P   UNK N   1      34.060  17.814   8.208  0.00  0.00     0.406 P 
HETATM   26  O   UNK N   1      34.285  18.123   6.515  0.00  0.00    -0.624 OA
HETATM   27  O   UNK N   1      35.042  19.014   8.319  0.00  0.00    -0.624 OA
BRANCH  25  28
HETATM   28  O   UNK N   1      34.981  16.593   7.383  0.00  0.00    -0.300 OA
HETATM   29  H   UNK N   1      34.581  15.796   7.003  0.00  0.00     0.223 HD
ENDBRANCH  25  28
ENDBRANCH  24  25
ENDBRANCH  23  24
ENDBRANCH   1  23
TORSDOF 9
ENDMDL
MODEL 3
REMARK VINA RESULT:      -6.2      5.679      9.366
REMARK  9 active torsions:
REMARK  status: ('A' for Active; 'I' for Inactive)
REMARK    1  A    between atoms: C_3  and  C_1 
REMARK    2  A    between atoms: O_22  and  C_1 
REMARK    3  A    between atoms: C_7  and  C_4 
REMARK    4  A    between atoms: C_5  and  O_14 
REMARK    5  A    between atoms: C_6  and  O_15 
REMARK       I    between atoms: N_10  and  C_7 
REMARK    6  A    between atoms: O_17  and  C_8 
REMARK    7  A    between atoms: C_9  and  N_13 
REMARK    8  A    between atoms: P_24  and  O_20 
REMARK    9  A    between atoms: P_24  and  O_22 
ROOT
HETATM    1  C   UNK N   1      32.588  16.390   7.651  0.00  0.00     0.180 C 
HETATM    2  C   UNK N   1      33.732  16.601   6.649  0.00  0.00     0.182 C 
HETATM    3  C   UNK N   1      34.906  15.942   7.370  0.00  0.00     0.198 C 
HETATM    4  C   UNK N   1      34.225  15.251   8.545  0.00  0.00     0.262 C 
HETATM    5  O   UNK N   1      33.184  16.129   8.901  0.00  0.00    -0.353 OA
ENDROOT
BRANCH   4   6
HETATM    6  N   UNK N   1      35.105  14.990   9.689  0.00  0.00    -0.292 N 
HETATM    7  C   UNK N   1      36.455  14.896   9.715  0.00  0.00     0.188 A 
HETATM    8  N   UNK N   1      36.903  14.619  10.967  0.00  0.00    -0.344 N 
HETATM    9  C   UNK N   1      35.796  14.546  11.736  0.00  0.00     0.153 A 
ATOM     10  HN  UNK N   1      37.870  14.492  11.262  1.00  0.00     0.167 HD
HETATM   11  C   UNK N   1      34.698  14.773  10.947  0.00  0.00     0.178 A 
BRANCH   9  12
HETATM   12  C   UNK N   1      35.802  14.269  13.184  0.00  0.00     0.270 C 
HETATM   13  N   UNK N   1      36.791  14.754  13.961  0.00  0.00    -0.365 N 
HETATM   14  H   UNK N   1      37.504  15.341  13.619  0.00  0.00     0.159 HD
HETATM   15  H   UNK N   1      36.799  14.511  14.915  0.00  0.00     0.159 HD
HETATM   16  O   UNK N   1      34.914  13.599  13.686  0.00  0.00    -0.266 OA
ENDBRANCH   9  12
BRANCH  11  17
HETATM   17  O   UNK N   1      33.414  14.787  11.346  0.00  0.00    -0.344 OA
ATOM     18  HO  UNK N   1      32.662  14.491  10.846  1.00  0.00     0.219 HD
ENDBRANCH  11  17
ENDBRANCH   4   6
BRANCH   3  19
HETATM   19  O   UNK N   1      35.625  15.058   6.561  0.00  0.00    -0.388 OA
HETATM   20  H   UNK N   1      36.202  14.294   6.714  0.00  0.00     0.210 HD
ENDBRANCH   3  19
BRANCH   2  21
HETATM   21  O   UNK N   1      34.012  17.960   6.458  0.00  0.00    -0.390 OA
HETATM   22  H   UNK N   1      33.848  18.898   6.638  0.00  0.00     0.210 HD
ENDBRANCH   2  21
BRANCH   1  23
HETATM   23  C   UNK N   1      31.567  17.516   7.736  0.00  0.00     0.216 C 
BRANCH  23  24
HETATM   24  O   UNK N   1      31.156  17.646   9.072  0.00  0.00    -0.287 OA
BRANCH  24  25
HETATM   25  P   UNK N   1      29.562  18.354   9.046  0.00  0.00     0.406 P 
HETATM   26  O   UNK N   1      28.106  17.556   9.553  0.00  0.00    -0.624 OA
HETATM   27  O   UNK N   1      29.346  17.449   7.800  0.00  0.00    -0.624 OA
BRANCH  25  28
HETATM   28  O   UNK N   1      29.790  17.227  10.349  0.00  0.00    -0.300 OA
HETATM   29  H   UNK N   1      29.145  16.537  10.569  0.00  0.00     0.223 HD
ENDBRANCH  25  28
ENDBRANCH  24  25
ENDBRANCH  23  24
ENDBRANCH   1  23
TORSDOF 9
ENDMDL
MODEL 4
REMARK VINA RESULT:      -6.1      5.927      9.414
REMARK  9 active torsions:
REMARK  status: ('A' for Active; 'I' for Inactive)
REMARK    1  A    between atoms: C_3  and  C_1 
REMARK    2  A    between atoms: O_22  and  C_1 
REMARK    3  A    between atoms: C_7  and  C_4 
REMARK    4  A    between atoms: C_5  and  O_14 
REMARK    5  A    between atoms: C_6  and  O_15 
REMARK       I    between atoms: N_10  and  C_7 
REMARK    6  A    between atoms: O_17  and  C_8 
REMARK    7  A    between atoms: C_9  and  N_13 
REMARK    8  A    between atoms: P_24  and  O_20 
REMARK    9  A    between atoms: P_24  and  O_22 
ROOT
HETATM    1  C   UNK N   1      33.083  16.078   7.550  0.00  0.00     0.180 C 
HETATM    2  C   UNK N   1      33.195  17.498   8.124  0.00  0.00     0.182 C 
HETATM    3  C   UNK N   1      34.282  17.325   9.183  0.00  0.00     0.198 C 
HETATM    4  C   UNK N   1      34.795  15.918   8.901  0.00  0.00     0.262 C 
HETATM    5  O   UNK N   1      33.645  15.207   8.505  0.00  0.00    -0.353 OA
ENDROOT
BRANCH   4   6
HETATM    6  N   UNK N   1      35.446  15.269  10.043  0.00  0.00    -0.292 N 
HETATM    7  C   UNK N   1      36.757  14.988  10.224  0.00  0.00     0.188 A 
HETATM    8  N   UNK N   1      36.965  14.356  11.407  0.00  0.00    -0.344 N 
HETATM    9  C   UNK N   1      35.745  14.249  11.976  0.00  0.00     0.153 A 
ATOM     10  HN  UNK N   1      37.854  14.031  11.786  1.00  0.00     0.167 HD
HETATM   11  C   UNK N   1      34.819  14.808  11.135  0.00  0.00     0.178 A 
BRANCH   9  12
HETATM   12  C   UNK N   1      35.487  13.629  13.288  0.00  0.00     0.270 C 
HETATM   13  N   UNK N   1      36.319  13.865  14.322  0.00  0.00    -0.365 N 
HETATM   14  H   UNK N   1      37.085  14.482  14.266  0.00  0.00     0.159 HD
HETATM   15  H   UNK N   1      36.154  13.398  15.173  0.00  0.00     0.159 HD
HETATM   16  O   UNK N   1      34.521  12.901  13.446  0.00  0.00    -0.266 OA
ENDBRANCH   9  12
BRANCH  11  17
HETATM   17  O   UNK N   1      33.494  14.900  11.349  0.00  0.00    -0.344 OA
ATOM     18  HO  UNK N   1      32.956  15.676  11.243  1.00  0.00     0.219 HD
ENDBRANCH  11  17
ENDBRANCH   4   6
BRANCH   3  19
HETATM   19  O   UNK N   1      35.285  18.295   9.108  0.00  0.00    -0.388 OA
HETATM   20  H   UNK N   1      35.825  18.781   9.750  0.00  0.00     0.210 HD
ENDBRANCH   3  19
BRANCH   2  21
HETATM   21  O   UNK N   1      32.006  17.902   8.744  0.00  0.00    -0.390 OA
HETATM   22  H   UNK N   1      31.499  18.515   9.300  0.00  0.00     0.210 HD
ENDBRANCH   2  21
BRANCH   1  23
HETATM   23  C   UNK N   1      31.685  15.638   7.138  0.00  0.00     0.216 C 
BRANCH  23  24
HETATM   24  O   UNK N   1      31.217  16.515   6.147  0.00  0.00    -0.287 OA
BRANCH  24  25
HETATM   25  P   UNK N   1      29.477  16.393   6.144  0.00  0.00     0.406 P 
HETATM   26  O   UNK N   1      28.383  17.724   5.933  0.00  0.00    -0.624 OA
HETATM   27  O   UNK N   1      29.583  17.010   7.567  0.00  0.00    -0.624 OA
BRANCH  25  28
HETATM   28  O   UNK N   1      30.078  17.644   5.099  0.00  0.00    -0.300 OA
HETATM   29  H   UNK N   1      29.970  18.589   5.290  0.00  0.00     0.223 HD
ENDBRANCH  25  28
ENDBRANCH  24  25
ENDBRANCH  23  24
ENDBRANCH   1  23
TORSDOF 9
ENDMDL
MODEL 5
REMARK VINA RESULT:      -6.0      3.065      5.462
REMARK  9 active torsions:
REMARK  status: ('A' for Active; 'I' for Inactive)
REMARK    1  A    between atoms: C_3  and  C_1 
REMARK    2  A    between atoms: O_22  and  C_1 
REMARK    3  A    between atoms: C_7  and  C_4 
REMARK    4  A    between atoms: C_5  and  O_14 
REMARK    5  A    between atoms: C_6  and  O_15 
REMARK       I    between atoms: N_10  and  C_7 
REMARK    6  A    between atoms: O_17  and  C_8 
REMARK    7  A    between atoms: C_9  and  N_13 
REMARK    8  A    between atoms: P_24  and  O_20 
REMARK    9  A    between atoms: P_24  and  O_22 
ROOT
HETATM    1  C   UNK N   1      26.640  20.004   5.386  0.00  0.00     0.180 C 
HETATM    2  C   UNK N   1      27.168  20.126   3.949  0.00  0.00     0.182 C 
HETATM    3  C   UNK N   1      25.884  20.006   3.130  0.00  0.00     0.198 C 
HETATM    4  C   UNK N   1      24.803  20.075   4.202  0.00  0.00     0.262 C 
HETATM    5  O   UNK N   1      25.368  19.403   5.303  0.00  0.00    -0.353 OA
ENDROOT
BRANCH   4   6
HETATM    6  N   UNK N   1      23.526  19.468   3.816  0.00  0.00    -0.292 N 
HETATM    7  C   UNK N   1      23.081  18.211   4.044  0.00  0.00     0.188 A 
HETATM    8  N   UNK N   1      21.850  18.020   3.506  0.00  0.00    -0.344 N 
HETATM    9  C   UNK N   1      21.521  19.198   2.935  0.00  0.00     0.153 A 
ATOM     10  HN  UNK N   1      21.291  17.167   3.529  1.00  0.00     0.167 HD
HETATM   11  C   UNK N   1      22.552  20.081   3.126  0.00  0.00     0.178 A 
BRANCH   9  12
HETATM   12  C   UNK N   1      20.253  19.460   2.230  0.00  0.00     0.270 C 
HETATM   13  N   UNK N   1      20.248  20.184   1.094  0.00  0.00    -0.365 N 
HETATM   14  H   UNK N   1      21.070  20.518   0.666  0.00  0.00     0.159 HD
HETATM   15  H   UNK N   1      19.383  20.388   0.672  0.00  0.00     0.159 HD
HETATM   16  O   UNK N   1      19.202  19.024   2.672  0.00  0.00    -0.266 OA
ENDBRANCH   9  12
BRANCH  11  17
HETATM   17  O   UNK N   1      22.602  21.358   2.708  0.00  0.00    -0.344 OA
ATOM     18  HO  UNK N   1      22.876  21.662   1.850  1.00  0.00     0.219 HD
ENDBRANCH  11  17
ENDBRANCH   4   6
BRANCH   3  19
HETATM   19  O   UNK N   1      25.753  21.002   2.159  0.00  0.00    -0.388 OA
HETATM   20  H   UNK N   1      25.025  21.546   1.821  0.00  0.00     0.210 HD
ENDBRANCH   3  19
BRANCH   2  21
HETATM   21  O   UNK N   1      28.026  19.069   3.620  0.00  0.00    -0.390 OA
HETATM   22  H   UNK N   1      28.184  18.157   3.330  0.00  0.00     0.210 HD
ENDBRANCH   2  21
BRANCH   1  23
HETATM   23  C   UNK N   1      27.548  19.274   6.365  0.00  0.00     0.216 C 
BRANCH  23  24
HETATM   24  O   UNK N   1      27.305  17.896   6.256  0.00  0.00    -0.287 OA
BRANCH  24  25
HETATM   25  P   UNK N   1      28.659  17.083   6.997  0.00  0.00     0.406 P 
HETATM   26  O   UNK N   1      29.756  17.802   8.134  0.00  0.00    -0.624 OA
HETATM   27  O   UNK N   1      29.511  17.920   6.002  0.00  0.00    -0.624 OA
BRANCH  25  28
HETATM   28  O   UNK N   1      27.927  18.275   8.028  0.00  0.00    -0.300 OA
HETATM   29  H   UNK N   1      28.021  19.229   7.881  0.00  0.00     0.223 HD
ENDBRANCH  25  28
ENDBRANCH  24  25
ENDBRANCH  23  24
ENDBRANCH   1  23
TORSDOF 9
ENDMDL
MODEL 6
REMARK VINA RESULT:      -6.0      9.905     13.119
REMARK  9 active torsions:
REMARK  status: ('A' for Active; 'I' for Inactive)
REMARK    1  A    between atoms: C_3  and  C_1 
REMARK    2  A    between atoms: O_22  and  C_1 
REMARK    3  A    between atoms: C_7  and  C_4 
REMARK    4  A    between atoms: C_5  and  O_14 
REMARK    5  A    between atoms: C_6  and  O_15 
REMARK       I    between atoms: N_10  and  C_7 
REMARK    6  A    between atoms: O_17  and  C_8 
REMARK    7  A    between atoms: C_9  and  N_13 
REMARK    8  A    between atoms: P_24  and  O_20 
REMARK    9  A    between atoms: P_24  and  O_22 
ROOT
HETATM    1  C   UNK N   1      35.200  12.836  12.412  0.00  0.00     0.180 C 
HETATM    2  C   UNK N   1      36.639  12.302  12.347  0.00  0.00     0.182 C 
HETATM    3  C   UNK N   1      36.789  11.636  13.713  0.00  0.00     0.198 C 
HETATM    4  C   UNK N   1      35.365  11.673  14.255  0.00  0.00     0.262 C 
HETATM    5  O   UNK N   1      34.847  12.891  13.775  0.00  0.00    -0.353 OA
ENDROOT
BRANCH   4   6
HETATM    6  N   UNK N   1      35.270  11.604  15.717  0.00  0.00    -0.292 N 
HETATM    7  C   UNK N   1      34.987  10.535  16.498  0.00  0.00     0.188 A 
HETATM    8  N   UNK N   1      34.967  10.879  17.811  0.00  0.00    -0.344 N 
HETATM    9  C   UNK N   1      35.252  12.198  17.842  0.00  0.00     0.153 A 
ATOM     10  HN  UNK N   1      34.776  10.269  18.606  1.00  0.00     0.167 HD
HETATM   11  C   UNK N   1      35.435  12.636  16.556  0.00  0.00     0.178 A 
BRANCH   9  12
HETATM   12  C   UNK N   1      35.346  13.003  19.072  0.00  0.00     0.270 C 
HETATM   13  N   UNK N   1      35.589  12.405  20.255  0.00  0.00    -0.365 N 
HETATM   14  H   UNK N   1      35.761  11.439  20.343  0.00  0.00     0.159 HD
HETATM   15  H   UNK N   1      35.596  12.960  21.068  0.00  0.00     0.159 HD
HETATM   16  O   UNK N   1      35.205  14.215  19.027  0.00  0.00    -0.266 OA
ENDBRANCH   9  12
BRANCH  11  17
HETATM   17  O   UNK N   1      35.738  13.889  16.172  0.00  0.00    -0.344 OA
ATOM     18  HO  UNK N   1      36.546  14.356  16.350  1.00  0.00     0.219 HD
ENDBRANCH  11  17
ENDBRANCH   4   6
BRANCH   3  19
HETATM   19  O   UNK N   1      37.311  10.342  13.643  0.00  0.00    -0.388 OA
HETATM   20  H   UNK N   1      38.196   9.958  13.546  0.00  0.00     0.210 HD
ENDBRANCH   3  19
BRANCH   2  21
HETATM   21  O   UNK N   1      37.573  13.338  12.234  0.00  0.00    -0.390 OA
HETATM   22  H   UNK N   1      38.200  13.969  12.622  0.00  0.00     0.210 HD
ENDBRANCH   2  21
BRANCH   1  23
HETATM   23  C   UNK N   1      34.955  14.164  11.709  0.00  0.00     0.216 C 
BRANCH  23  24
HETATM   24  O   UNK N   1      35.680  14.173  10.508  0.00  0.00    -0.287 OA
BRANCH  24  25
HETATM   25  P   UNK N   1      35.344  15.695   9.724  0.00  0.00     0.406 P 
HETATM   26  O   UNK N   1      35.687  17.260  10.394  0.00  0.00    -0.624 OA
HETATM   27  O   UNK N   1      34.165  15.781  10.734  0.00  0.00    -0.624 OA
BRANCH  25  28
HETATM   28  O   UNK N   1      36.761  15.740  10.730  0.00  0.00    -0.300 OA
HETATM   29  H   UNK N   1      37.036  16.530  11.220  0.00  0.00     0.223 HD
ENDBRANCH  25  28
ENDBRANCH  24  25
ENDBRANCH  23  24
ENDBRANCH   1  23
TORSDOF 9
ENDMDL
MODEL 7
REMARK VINA RESULT:      -5.8      3.434      5.644
REMARK  9 active torsions:
REMARK  status: ('A' for Active; 'I' for Inactive)
REMARK    1  A    between atoms: C_3  and  C_1 
REMARK    2  A    between atoms: O_22  and  C_1 
REMARK    3  A    between atoms: C_7  and  C_4 
REMARK    4  A    between atoms: C_5  and  O_14 
REMARK    5  A    between atoms: C_6  and  O_15 
REMARK       I    between atoms: N_10  and  C_7 
REMARK    6  A    between atoms: O_17  and  C_8 
REMARK    7  A    between atoms: C_9  and  N_13 
REMARK    8  A    between atoms: P_24  and  O_20 
REMARK    9  A    between atoms: P_24  and  O_22 
ROOT
HETATM    1  C   UNK N   1      34.135  15.547   9.694  0.00  0.00     0.180 C 
HETATM    2  C   UNK N   1      35.022  15.837   8.474  0.00  0.00     0.182 C 
HETATM    3  C   UNK N   1      34.081  16.650   7.587  0.00  0.00     0.198 C 
HETATM    4  C   UNK N   1      32.898  16.908   8.512  0.00  0.00     0.262 C 
HETATM    5  O   UNK N   1      32.800  15.732   9.280  0.00  0.00    -0.353 OA
ENDROOT
BRANCH   4   6
HETATM    6  N   UNK N   1      31.636  17.188   7.821  0.00  0.00    -0.292 N 
HETATM    7  C   UNK N   1      31.336  17.035   6.510  0.00  0.00     0.188 A 
HETATM    8  N   UNK N   1      30.063  17.429   6.249  0.00  0.00    -0.344 N 
HETATM    9  C   UNK N   1      29.561  17.831   7.436  0.00  0.00     0.153 A 
ATOM     10  HN  UNK N   1      29.587  17.423   5.347  1.00  0.00     0.167 HD
HETATM   11  C   UNK N   1      30.530  17.683   8.394  0.00  0.00     0.178 A 
BRANCH   9  12
HETATM   12  C   UNK N   1      28.191  18.338   7.634  0.00  0.00     0.270 C 
HETATM   13  N   UNK N   1      27.716  18.532   8.881  0.00  0.00    -0.365 N 
HETATM   14  H   UNK N   1      28.261  18.397   9.690  0.00  0.00     0.159 HD
HETATM   15  H   UNK N   1      26.782  18.821   8.986  0.00  0.00     0.159 HD
HETATM   16  O   UNK N   1      27.481  18.585   6.673  0.00  0.00    -0.266 OA
ENDBRANCH   9  12
BRANCH  11  17
HETATM   17  O   UNK N   1      30.413  17.971   9.702  0.00  0.00    -0.344 OA
ATOM     18  HO  UNK N   1      30.135  18.799  10.077  1.00  0.00     0.219 HD
ENDBRANCH  11  17
ENDBRANCH   4   6
BRANCH   3  19
HETATM   19  O   UNK N   1      34.658  17.825   7.101  0.00  0.00    -0.388 OA
HETATM   20  H   UNK N   1      34.678  18.753   7.382  0.00  0.00     0.210 HD
ENDBRANCH   3  19
BRANCH   2  21
HETATM   21  O   UNK N   1      35.387  14.662   7.806  0.00  0.00    -0.390 OA
HETATM   22  H   UNK N   1      35.392  13.696   7.719  0.00  0.00     0.210 HD
ENDBRANCH   2  21
BRANCH   1  23
HETATM   23  C   UNK N   1      34.340  14.190  10.353  0.00  0.00     0.216 C 
BRANCH  23  24
HETATM   24  O   UNK N   1      35.682  14.086  10.750  0.00  0.00    -0.287 OA
BRANCH  24  25
HETATM   25  P   UNK N   1      35.804  14.822  12.326  0.00  0.00     0.406 P 
HETATM   26  O   UNK N   1      36.619  14.128  13.693  0.00  0.00    -0.624 OA
HETATM   27  O   UNK N   1      34.730  13.774  12.731  0.00  0.00    -0.624 OA
BRANCH  25  28
HETATM   28  O   UNK N   1      37.191  13.862  11.909  0.00  0.00    -0.300 OA
HETATM   29  H   UNK N   1      37.171  13.176  11.223  0.00  0.00     0.223 HD
ENDBRANCH  25  28
ENDBRANCH  24  25
ENDBRANCH  23  24
ENDBRANCH   1  23
TORSDOF 9
ENDMDL
MODEL 8
REMARK VINA RESULT:      -5.7     10.777     12.014
REMARK  9 active torsions:
REMARK  status: ('A' for Active; 'I' for Inactive)
REMARK    1  A    between atoms: C_3  and  C_1 
REMARK    2  A    between atoms: O_22  and  C_1 
REMARK    3  A    between atoms: C_7  and  C_4 
REMARK    4  A    between atoms: C_5  and  O_14 
REMARK    5  A    between atoms: C_6  and  O_15 
REMARK       I    between atoms: N_10  and  C_7 
REMARK    6  A    between atoms: O_17  and  C_8 
REMARK    7  A    between atoms: C_9  and  N_13 
REMARK    8  A    between atoms: P_24  and  O_20 
REMARK    9  A    between atoms: P_24  and  O_22 
ROOT
HETATM    1  C   UNK N   1      30.250  22.104  -4.354  0.00  0.00     0.180 C 
HETATM    2  C   UNK N   1      30.124  22.061  -2.824  0.00  0.00     0.182 C 
HETATM    3  C   UNK N   1      29.293  23.311  -2.541  0.00  0.00     0.198 C 
HETATM    4  C   UNK N   1      28.867  23.746  -3.938  0.00  0.00     0.262 C 
HETATM    5  O   UNK N   1      29.975  23.429  -4.748  0.00  0.00    -0.353 OA
ENDROOT
BRANCH   4   6
HETATM    6  N   UNK N   1      28.523  25.166  -4.053  0.00  0.00    -0.292 N 
HETATM    7  C   UNK N   1      29.283  26.189  -4.509  0.00  0.00     0.188 A 
HETATM    8  N   UNK N   1      28.615  27.368  -4.436  0.00  0.00    -0.344 N 
HETATM    9  C   UNK N   1      27.403  27.063  -3.926  0.00  0.00     0.153 A 
ATOM     10  HN  UNK N   1      28.956  28.289  -4.709  1.00  0.00     0.167 HD
HETATM   11  C   UNK N   1      27.353  25.713  -3.692  0.00  0.00     0.178 A 
BRANCH   9  12
HETATM   12  C   UNK N   1      26.331  28.043  -3.676  0.00  0.00     0.270 C 
HETATM   13  N   UNK N   1      26.341  29.232  -4.311  0.00  0.00    -0.365 N 
HETATM   14  H   UNK N   1      27.013  29.474  -4.988  0.00  0.00     0.159 HD
HETATM   15  H   UNK N   1      25.642  29.888  -4.087  0.00  0.00     0.159 HD
HETATM   16  O   UNK N   1      25.430  27.784  -2.894  0.00  0.00    -0.266 OA
ENDBRANCH   9  12
BRANCH  11  17
HETATM   17  O   UNK N   1      26.313  25.025  -3.190  0.00  0.00    -0.344 OA
ATOM     18  HO  UNK N   1      25.530  24.759  -3.659  1.00  0.00     0.219 HD
ENDBRANCH  11  17
ENDBRANCH   4   6
BRANCH   3  19
HETATM   19  O   UNK N   1      28.210  23.073  -1.691  0.00  0.00    -0.388 OA
HETATM   20  H   UNK N   1      27.248  23.179  -1.752  0.00  0.00     0.210 HD
ENDBRANCH   3  19
BRANCH   2  21
HETATM   21  O   UNK N   1      31.370  22.184  -2.197  0.00  0.00    -0.390 OA
HETATM   22  H   UNK N   1      32.334  22.289  -2.227  0.00  0.00     0.210 HD
ENDBRANCH   2  21
BRANCH   1  23
HETATM   23  C   UNK N   1      31.571  21.607  -4.924  0.00  0.00     0.216 C 
BRANCH  23  24
HETATM   24  O   UNK N   1      31.938  20.437  -4.242  0.00  0.00    -0.287 OA
BRANCH  24  25
HETATM   25  P   UNK N   1      33.621  20.148  -4.601  0.00  0.00     0.406 P 
HETATM   26  O   UNK N   1      34.603  18.923  -3.862  0.00  0.00    -0.624 OA
HETATM   27  O   UNK N   1      33.875  20.845  -3.234  0.00  0.00    -0.624 OA
BRANCH  25  28
HETATM   28  O   UNK N   1      32.752  18.704  -4.180  0.00  0.00    -0.300 OA
HETATM   29  H   UNK N   1      32.210  18.628  -3.379  0.00  0.00     0.223 HD
ENDBRANCH  25  28
ENDBRANCH  24  25
ENDBRANCH  23  24
ENDBRANCH   1  23
TORSDOF 9
ENDMDL
MODEL 9
REMARK VINA RESULT:      -5.7      6.431      8.520
REMARK  9 active torsions:
REMARK  status: ('A' for Active; 'I' for Inactive)
REMARK    1  A    between atoms: C_3  and  C_1 
REMARK    2  A    between atoms: O_22  and  C_1 
REMARK    3  A    between atoms: C_7  and  C_4 
REMARK    4  A    between atoms: C_5  and  O_14 
REMARK    5  A    between atoms: C_6  and  O_15 
REMARK       I    between atoms: N_10  and  C_7 
REMARK    6  A    between atoms: O_17  and  C_8 
REMARK    7  A    between atoms: C_9  and  N_13 
REMARK    8  A    between atoms: P_24  and  O_20 
REMARK    9  A    between atoms: P_24  and  O_22 
ROOT
HETATM    1  C   UNK N   1      23.116  16.911   4.392  0.00  0.00     0.180 C 
HETATM    2  C   UNK N   1      24.152  16.118   5.203  0.00  0.00     0.182 C 
HETATM    3  C   UNK N   1      23.335  15.685   6.419  0.00  0.00     0.198 C 
HETATM    4  C   UNK N   1      21.918  16.079   6.020  0.00  0.00     0.262 C 
HETATM    5  O   UNK N   1      22.086  17.268   5.286  0.00  0.00    -0.353 OA
ENDROOT
BRANCH   4   6
HETATM    6  N   UNK N   1      21.005  16.284   7.149  0.00  0.00    -0.292 N 
HETATM    7  C   UNK N   1      20.336  15.361   7.878  0.00  0.00     0.188 A 
HETATM    8  N   UNK N   1      19.566  15.948   8.828  0.00  0.00    -0.344 N 
HETATM    9  C   UNK N   1      19.770  17.275   8.685  0.00  0.00     0.153 A 
ATOM     10  HN  UNK N   1      18.960  15.486   9.506  1.00  0.00     0.167 HD
HETATM   11  C   UNK N   1      20.651  17.475   7.654  0.00  0.00     0.178 A 
BRANCH   9  12
HETATM   12  C   UNK N   1      19.136  18.312   9.519  0.00  0.00     0.270 C 
HETATM   13  N   UNK N   1      17.823  18.233   9.815  0.00  0.00    -0.365 N 
HETATM   14  H   UNK N   1      17.255  17.477   9.540  0.00  0.00     0.159 HD
HETATM   15  H   UNK N   1      17.414  18.966  10.330  0.00  0.00     0.159 HD
HETATM   16  O   UNK N   1      19.795  19.247   9.946  0.00  0.00    -0.266 OA
ENDBRANCH   9  12
BRANCH  11  17
HETATM   17  O   UNK N   1      21.107  18.658   7.208  0.00  0.00    -0.344 OA
ATOM     18  HO  UNK N   1      21.981  18.842   6.883  1.00  0.00     0.219 HD
ENDBRANCH  11  17
ENDBRANCH   4   6
BRANCH   3  19
HETATM   19  O   UNK N   1      23.460  14.325   6.713  0.00  0.00    -0.388 OA
HETATM   20  H   UNK N   1      23.427  13.786   7.519  0.00  0.00     0.210 HD
ENDBRANCH   3  19
BRANCH   2  21
HETATM   21  O   UNK N   1      25.213  16.928   5.624  0.00  0.00    -0.390 OA
HETATM   22  H   UNK N   1      25.567  17.771   5.947  0.00  0.00     0.210 HD
ENDBRANCH   2  21
BRANCH   1  23
HETATM   23  C   UNK N   1      23.651  18.118   3.635  0.00  0.00     0.216 C 
BRANCH  23  24
HETATM   24  O   UNK N   1      23.955  19.126   4.562  0.00  0.00    -0.287 OA
BRANCH  24  25
HETATM   25  P   UNK N   1      25.088  20.203   3.787  0.00  0.00     0.406 P 
HETATM   26  O   UNK N   1      24.959  20.782   2.155  0.00  0.00    -0.624 OA
HETATM   27  O   UNK N   1      25.566  18.922   3.047  0.00  0.00    -0.624 OA
BRANCH  25  28
HETATM   28  O   UNK N   1      23.453  20.418   3.240  0.00  0.00    -0.300 OA
HETATM   29  H   UNK N   1      22.710  20.571   3.844  0.00  0.00     0.223 HD
ENDBRANCH  25  28
ENDBRANCH  24  25
ENDBRANCH  23  24
ENDBRANCH   1  23
TORSDOF 9
ENDMDL
