MODEL 1
REMARK VINA RESULT:      -7.3      0.000      0.000
REMARK  11 active torsions:
REMARK  status: ('A' for Active; 'I' for Inactive)
REMARK    1  A    between atoms: C_6  and  C_7 
REMARK    2  A    between atoms: C_7  and  N_8 
REMARK    3  A    between atoms: C_11  and  C_12 
REMARK    4  A    between atoms: C_12  and  C_13 
REMARK    5  A    between atoms: C_13  and  O_14 
REMARK    6  A    between atoms: P_15  and  O_14 
REMARK    7  A    between atoms: P_15  and  O_16 
REMARK    8  A    between atoms: P_15  and  O_18 
REMARK    9  A    between atoms: O_18  and  P_19 
REMARK   10  A    between atoms: P_19  and  O_20 
REMARK   11  A    between atoms: C_25  and  N_26 
ROOT
HETATM    1  N   UNK N   1      31.132  16.889   6.301  0.00  0.00    -0.349 N 
HETATM    2  C   UNK N   1      31.870  17.014   5.160  0.00  0.00     0.141 A 
HETATM    3  S   UNK N   1      33.409  17.445   5.587  0.00  0.00    -0.087 SA
HETATM    4  C   UNK N   1      33.186  17.504   7.219  0.00  0.00     0.008 A 
HETATM    5  C   UNK N   1      31.854  17.150   7.449  0.00  0.00     0.021 A 
HETATM    6  C   UNK N   1      31.241  17.144   8.812  0.00  0.00     0.069 C 
ENDROOT
BRANCH   1   7
HETATM    7  C   UNK N   1      29.683  16.676   6.304  0.00  0.00     0.172 C 
BRANCH   7   8
HETATM    8  C   UNK N   1      28.869  17.938   6.267  0.00  0.00     0.019 A 
HETATM    9  C   UNK N   1      28.423  18.522   7.453  0.00  0.00     0.102 A 
HETATM   10  N   UNK N   1      27.637  19.628   7.417  0.00  0.00    -0.355 N 
HETATM   11  C   UNK N   1      27.262  20.170   6.232  0.00  0.00     0.078 A 
ATOM     12  HN  UNK N   1      27.327  20.055   8.290  1.00  0.00     0.166 HD
HETATM   13  C   UNK N   1      26.384  21.369   6.216  0.00  0.00     0.089 C 
HETATM   14  N   UNK N   1      27.671  19.613   5.063  0.00  0.00    -0.332 N 
HETATM   15  C   UNK N   1      28.468  18.509   5.054  0.00  0.00     0.109 A 
ATOM     16  HN  UNK N   1      27.377  20.028   4.179  1.00  0.00     0.168 HD
BRANCH  15  17
HETATM   17  N   UNK N   1      28.849  17.935   3.825  0.00  0.00    -0.385 N 
HETATM   18  H   UNK N   1      28.257  17.476   3.186  0.00  0.00     0.157 HD
HETATM   19  H   UNK N   1      29.802  17.999   3.580  0.00  0.00     0.157 HD
ENDBRANCH  15  17
ENDBRANCH   7   8
ENDBRANCH   1   7
BRANCH   4  20
HETATM   20  C   UNK N   1      34.155  18.017   8.222  0.00  0.00     0.075 C 
BRANCH  20  21
HETATM   21  C   UNK N   1      34.784  16.826   8.950  0.00  0.00     0.185 C 
BRANCH  21  22
HETATM   22  O   UNK N   1      35.496  17.238  10.095  0.00  0.00    -0.296 OA
BRANCH  22  23
HETATM   23  P   UNK N   1      35.311  15.941  11.239  0.00  0.00     0.402 P 
HETATM   24  O   UNK N   1      34.643  15.336   9.973  0.00  0.00    -0.631 OA
BRANCH  23  25
HETATM   25  O   UNK N   1      37.001  16.113  10.866  0.00  0.00    -0.307 OA
HETATM   26  H   UNK N   1      37.482  15.925  10.044  0.00  0.00     0.222 HD
ENDBRANCH  23  25
BRANCH  23  27
HETATM   27  O   UNK N   1      36.048  14.368  11.153  0.00  0.00    -0.188 OA
BRANCH  27  28
HETATM   28  P   UNK N   1      36.150  13.761  12.796  0.00  0.00     0.414 P 
HETATM   29  O   UNK N   1      34.611  13.215  13.383  0.00  0.00    -0.624 OA
HETATM   30  O   UNK N   1      37.123  12.549  12.876  0.00  0.00    -0.624 OA
BRANCH  28  31
HETATM   31  O   UNK N   1      36.808  14.970  13.852  0.00  0.00    -0.300 OA
HETATM   32  H   UNK N   1      36.836  15.933  13.751  0.00  0.00     0.223 HD
ENDBRANCH  28  31
ENDBRANCH  27  28
ENDBRANCH  23  27
ENDBRANCH  22  23
ENDBRANCH  21  22
ENDBRANCH  20  21
ENDBRANCH   4  20
TORSDOF 11
ENDMDL
MODEL 2
REMARK VINA RESULT:      -7.1      1.129      1.946
REMARK  11 active torsions:
REMARK  status: ('A' for Active; 'I' for Inactive)
REMARK    1  A    between atoms: C_6  and  C_7 
REMARK    2  A    between atoms: C_7  and  N_8 
REMARK    3  A    between atoms: C_11  and  C_12 
REMARK    4  A    between atoms: C_12  and  C_13 
REMARK    5  A    between atoms: C_13  and  O_14 
REMARK    6  A    between atoms: P_15  and  O_14 
REMARK    7  A    between atoms: P_15  and  O_16 
REMARK    8  A    between atoms: P_15  and  O_18 
REMARK    9  A    between atoms: O_18  and  P_19 
REMARK   10  A    between atoms: P_19  and  O_20 
REMARK   11  A    between atoms: C_25  and  N_26 
ROOT
HETATM    1  N   UNK N   1      31.057  16.468   6.260  0.00  0.00    -0.349 N 
HETATM    2  C   UNK N   1      31.927  16.350   5.215  0.00  0.00     0.141 A 
HETATM    3  S   UNK N   1      33.364  17.037   5.662  0.00  0.00    -0.087 SA
HETATM    4  C   UNK N   1      32.926  17.520   7.176  0.00  0.00     0.008 A 
HETATM    5  C   UNK N   1      31.603  17.108   7.355  0.00  0.00     0.021 A 
HETATM    6  C   UNK N   1      30.819  17.414   8.590  0.00  0.00     0.069 C 
ENDROOT
BRANCH   1   7
HETATM    7  C   UNK N   1      29.638  16.117   6.170  0.00  0.00     0.172 C 
BRANCH   7   8
HETATM    8  C   UNK N   1      28.743  17.247   5.747  0.00  0.00     0.019 A 
HETATM    9  C   UNK N   1      29.025  17.971   4.588  0.00  0.00     0.102 A 
HETATM   10  N   UNK N   1      28.251  19.030   4.239  0.00  0.00    -0.355 N 
HETATM   11  C   UNK N   1      27.207  19.408   5.017  0.00  0.00     0.078 A 
ATOM     12  HN  UNK N   1      28.457  19.545   3.383  1.00  0.00     0.166 HD
HETATM   13  C   UNK N   1      26.385  20.584   4.626  0.00  0.00     0.089 C 
HETATM   14  N   UNK N   1      26.920  18.729   6.158  0.00  0.00    -0.332 N 
HETATM   15  C   UNK N   1      27.665  17.655   6.539  0.00  0.00     0.109 A 
ATOM     16  HN  UNK N   1      26.135  19.028   6.736  1.00  0.00     0.168 HD
BRANCH  15  17
HETATM   17  N   UNK N   1      27.362  16.991   7.745  0.00  0.00    -0.385 N 
HETATM   18  H   UNK N   1      27.175  16.029   7.851  0.00  0.00     0.157 HD
HETATM   19  H   UNK N   1      27.336  17.541   8.562  0.00  0.00     0.157 HD
ENDBRANCH  15  17
ENDBRANCH   7   8
ENDBRANCH   1   7
BRANCH   4  20
HETATM   20  C   UNK N   1      33.718  18.386   8.088  0.00  0.00     0.075 C 
BRANCH  20  21
HETATM   21  C   UNK N   1      34.737  17.515   8.829  0.00  0.00     0.185 C 
BRANCH  21  22
HETATM   22  O   UNK N   1      34.120  16.399   9.432  0.00  0.00    -0.296 OA
BRANCH  22  23
HETATM   23  P   UNK N   1      35.361  15.658  10.398  0.00  0.00     0.402 P 
HETATM   24  O   UNK N   1      35.670  17.167  10.601  0.00  0.00    -0.631 OA
BRANCH  23  25
HETATM   25  O   UNK N   1      33.823  15.367  11.155  0.00  0.00    -0.307 OA
HETATM   26  H   UNK N   1      33.258  15.962  11.673  0.00  0.00     0.222 HD
ENDBRANCH  23  25
BRANCH  23  27
HETATM   27  O   UNK N   1      35.536  15.766  12.125  0.00  0.00    -0.188 OA
BRANCH  27  28
HETATM   28  P   UNK N   1      35.934  14.157  12.700  0.00  0.00     0.414 P 
HETATM   29  O   UNK N   1      37.060  13.353  11.652  0.00  0.00    -0.624 OA
HETATM   30  O   UNK N   1      36.592  14.222  14.109  0.00  0.00    -0.624 OA
BRANCH  28  31
HETATM   31  O   UNK N   1      34.496  13.205  12.890  0.00  0.00    -0.300 OA
HETATM   32  H   UNK N   1      34.200  12.422  12.401  0.00  0.00     0.223 HD
ENDBRANCH  28  31
ENDBRANCH  27  28
ENDBRANCH  23  27
ENDBRANCH  22  23
ENDBRANCH  21  22
ENDBRANCH  20  21
ENDBRANCH   4  20
TORSDOF 11
ENDMDL
MODEL 3
REMARK VINA RESULT:      -6.9      1.533      2.372
REMARK  11 active torsions:
REMARK  status: ('A' for Active; 'I' for Inactive)
REMARK    1  A    between atoms: C_6  and  C_7 
REMARK    2  A    between atoms: C_7  and  N_8 
REMARK    3  A    between atoms: C_11  and  C_12 
REMARK    4  A    between atoms: C_12  and  C_13 
REMARK    5  A    between atoms: C_13  and  O_14 
REMARK    6  A    between atoms: P_15  and  O_14 
REMARK    7  A    between atoms: P_15  and  O_16 
REMARK    8  A    between atoms: P_15  and  O_18 
REMARK    9  A    between atoms: O_18  and  P_19 
REMARK   10  A    between atoms: P_19  and  O_20 
REMARK   11  A    between atoms: C_25  and  N_26 
ROOT
HETATM    1  N   UNK N   1      31.533  17.084   7.950  0.00  0.00    -0.349 N 
HETATM    2  C   UNK N   1      32.190  18.221   8.321  0.00  0.00     0.141 A 
HETATM    3  S   UNK N   1      33.814  17.912   8.288  0.00  0.00    -0.087 SA
HETATM    4  C   UNK N   1      33.737  16.332   7.823  0.00  0.00     0.008 A 
HETATM    5  C   UNK N   1      32.381  16.033   7.663  0.00  0.00     0.021 A 
HETATM    6  C   UNK N   1      31.890  14.668   7.303  0.00  0.00     0.069 C 
ENDROOT
BRANCH   1   7
HETATM    7  C   UNK N   1      30.078  16.935   8.021  0.00  0.00     0.172 C 
BRANCH   7   8
HETATM    8  C   UNK N   1      29.323  17.694   6.968  0.00  0.00     0.019 A 
HETATM    9  C   UNK N   1      29.698  17.599   5.628  0.00  0.00     0.102 A 
HETATM   10  N   UNK N   1      29.054  18.331   4.684  0.00  0.00    -0.355 N 
HETATM   11  C   UNK N   1      28.051  19.176   5.031  0.00  0.00     0.078 A 
ATOM     12  HN  UNK N   1      29.327  18.245   3.705  1.00  0.00     0.166 HD
HETATM   13  C   UNK N   1      27.374  19.985   3.983  0.00  0.00     0.089 C 
HETATM   14  N   UNK N   1      27.676  19.299   6.331  0.00  0.00    -0.332 N 
HETATM   15  C   UNK N   1      28.289  18.574   7.307  0.00  0.00     0.109 A 
ATOM     16  HN  UNK N   1      26.924  19.941   6.577  1.00  0.00     0.168 HD
BRANCH  15  17
HETATM   17  N   UNK N   1      27.900  18.747   8.651  0.00  0.00    -0.385 N 
HETATM   18  H   UNK N   1      28.341  18.359   9.441  0.00  0.00     0.157 HD
HETATM   19  H   UNK N   1      27.109  19.312   8.816  0.00  0.00     0.157 HD
ENDBRANCH  15  17
ENDBRANCH   7   8
ENDBRANCH   1   7
BRANCH   4  20
HETATM   20  C   UNK N   1      34.871  15.372   7.772  0.00  0.00     0.075 C 
BRANCH  20  21
HETATM   21  C   UNK N   1      35.582  15.382   9.128  0.00  0.00     0.185 C 
BRANCH  21  22
HETATM   22  O   UNK N   1      34.899  14.592  10.075  0.00  0.00    -0.296 OA
BRANCH  22  23
HETATM   23  P   UNK N   1      36.046  14.316  11.352  0.00  0.00     0.402 P 
HETATM   24  O   UNK N   1      36.234  15.836  11.089  0.00  0.00    -0.631 OA
BRANCH  23  25
HETATM   25  O   UNK N   1      34.443  14.126  11.999  0.00  0.00    -0.307 OA
HETATM   26  H   UNK N   1      34.094  13.472  12.625  0.00  0.00     0.222 HD
ENDBRANCH  23  25
BRANCH  23  27
HETATM   27  O   UNK N   1      35.987  14.975  12.961  0.00  0.00    -0.188 OA
BRANCH  27  28
HETATM   28  P   UNK N   1      36.193  13.633  14.071  0.00  0.00     0.414 P 
HETATM   29  O   UNK N   1      34.726  13.260  14.920  0.00  0.00    -0.624 OA
HETATM   30  O   UNK N   1      36.617  12.345  13.307  0.00  0.00    -0.624 OA
BRANCH  28  31
HETATM   31  O   UNK N   1      37.476  13.962  15.193  0.00  0.00    -0.300 OA
HETATM   32  H   UNK N   1      38.222  14.577  15.120  0.00  0.00     0.223 HD
ENDBRANCH  28  31
ENDBRANCH  27  28
ENDBRANCH  23  27
ENDBRANCH  22  23
ENDBRANCH  21  22
ENDBRANCH  20  21
ENDBRANCH   4  20
TORSDOF 11
ENDMDL
MODEL 4
REMARK VINA RESULT:      -6.8      1.656      2.617
REMARK  11 active torsions:
REMARK  status: ('A' for Active; 'I' for Inactive)
REMARK    1  A    between atoms: C_6  and  C_7 
REMARK    2  A    between atoms: C_7  and  N_8 
REMARK    3  A    between atoms: C_11  and  C_12 
REMARK    4  A    between atoms: C_12  and  C_13 
REMARK    5  A    between atoms: C_13  and  O_14 
REMARK    6  A    between atoms: P_15  and  O_14 
REMARK    7  A    between atoms: P_15  and  O_16 
REMARK    8  A    between atoms: P_15  and  O_18 
REMARK    9  A    between atoms: O_18  and  P_19 
REMARK   10  A    between atoms: P_19  and  O_20 
REMARK   11  A    between atoms: C_25  and  N_26 
ROOT
HETATM    1  N   UNK N   1      30.806  17.121   7.256  0.00  0.00    -0.349 N 
HETATM    2  C   UNK N   1      31.396  17.650   8.367  0.00  0.00     0.141 A 
HETATM    3  S   UNK N   1      33.036  17.551   8.174  0.00  0.00    -0.087 SA
HETATM    4  C   UNK N   1      33.049  16.823   6.694  0.00  0.00     0.008 A 
HETATM    5  C   UNK N   1      31.713  16.668   6.318  0.00  0.00     0.021 A 
HETATM    6  C   UNK N   1      31.301  15.986   5.053  0.00  0.00     0.069 C 
ENDROOT
BRANCH   1   7
HETATM    7  C   UNK N   1      29.364  16.892   7.143  0.00  0.00     0.172 C 
BRANCH   7   8
HETATM    8  C   UNK N   1      28.558  18.127   6.854  0.00  0.00     0.019 A 
HETATM    9  C   UNK N   1      28.556  18.682   5.575  0.00  0.00     0.102 A 
HETATM   10  N   UNK N   1      27.877  19.831   5.329  0.00  0.00    -0.355 N 
HETATM   11  C   UNK N   1      27.207  20.463   6.325  0.00  0.00     0.078 A 
ATOM     12  HN  UNK N   1      27.870  20.221   4.387  1.00  0.00     0.166 HD
HETATM   13  C   UNK N   1      26.487  21.732   6.037  0.00  0.00     0.089 C 
HETATM   14  N   UNK N   1      27.206  19.952   7.583  0.00  0.00    -0.332 N 
HETATM   15  C   UNK N   1      27.865  18.796   7.870  0.00  0.00     0.109 A 
ATOM     16  HN  UNK N   1      26.702  20.440   8.323  1.00  0.00     0.168 HD
BRANCH  15  17
HETATM   17  N   UNK N   1      27.873  18.307   9.192  0.00  0.00    -0.385 N 
HETATM   18  H   UNK N   1      28.368  18.690   9.953  0.00  0.00     0.157 HD
HETATM   19  H   UNK N   1      27.329  17.506   9.373  0.00  0.00     0.157 HD
ENDBRANCH  15  17
ENDBRANCH   7   8
ENDBRANCH   1   7
BRANCH   4  20
HETATM   20  C   UNK N   1      34.239  16.273   5.994  0.00  0.00     0.075 C 
BRANCH  20  21
HETATM   21  C   UNK N   1      34.527  14.873   6.543  0.00  0.00     0.185 C 
BRANCH  21  22
HETATM   22  O   UNK N   1      35.554  14.898   7.509  0.00  0.00    -0.296 OA
BRANCH  22  23
HETATM   23  P   UNK N   1      34.921  14.022   8.871  0.00  0.00     0.402 P 
HETATM   24  O   UNK N   1      35.962  13.013   8.309  0.00  0.00    -0.631 OA
BRANCH  23  25
HETATM   25  O   UNK N   1      35.828  15.382   9.463  0.00  0.00    -0.307 OA
HETATM   26  H   UNK N   1      35.566  16.311   9.568  0.00  0.00     0.222 HD
ENDBRANCH  23  25
BRANCH  23  27
HETATM   27  O   UNK N   1      35.792  13.559  10.303  0.00  0.00    -0.188 OA
BRANCH  27  28
HETATM   28  P   UNK N   1      34.979  14.314  11.662  0.00  0.00     0.414 P 
HETATM   29  O   UNK N   1      34.738  13.203  12.974  0.00  0.00    -0.624 OA
HETATM   30  O   UNK N   1      35.819  15.499  12.219  0.00  0.00    -0.624 OA
BRANCH  28  31
HETATM   31  O   UNK N   1      33.465  14.999  11.161  0.00  0.00    -0.300 OA
HETATM   32  H   UNK N   1      33.255  15.540  10.384  0.00  0.00     0.223 HD
ENDBRANCH  28  31
ENDBRANCH  27  28
ENDBRANCH  23  27
ENDBRANCH  22  23
ENDBRANCH  21  22
ENDBRANCH  20  21
ENDBRANCH   4  20
TORSDOF 11
ENDMDL
MODEL 5
REMARK VINA RESULT:      -6.8      8.988     11.986
REMARK  11 active torsions:
REMARK  status: ('A' for Active; 'I' for Inactive)
REMARK    1  A    between atoms: C_6  and  C_7 
REMARK    2  A    between atoms: C_7  and  N_8 
REMARK    3  A    between atoms: C_11  and  C_12 
REMARK    4  A    between atoms: C_12  and  C_13 
REMARK    5  A    between atoms: C_13  and  O_14 
REMARK    6  A    between atoms: P_15  and  O_14 
REMARK    7  A    between atoms: P_15  and  O_16 
REMARK    8  A    between atoms: P_15  and  O_18 
REMARK    9  A    between atoms: O_18  and  P_19 
REMARK   10  A    between atoms: P_19  and  O_20 
REMARK   11  A    between atoms: C_25  and  N_26 
ROOT
HETATM    1  N   UNK N   1      35.084  12.660  16.035  0.00  0.00    -0.349 N 
HETATM    2  C   UNK N   1      34.271  11.759  15.411  0.00  0.00     0.141 A 
HETATM    3  S   UNK N   1      34.619  11.787  13.794  0.00  0.00    -0.087 SA
HETATM    4  C   UNK N   1      35.790  12.947  13.832  0.00  0.00     0.008 A 
HETATM    5  C   UNK N   1      35.936  13.318  15.171  0.00  0.00     0.021 A 
HETATM    6  C   UNK N   1      36.869  14.399  15.615  0.00  0.00     0.069 C 
ENDROOT
BRANCH   1   7
HETATM    7  C   UNK N   1      34.947  13.025  17.448  0.00  0.00     0.172 C 
BRANCH   7   8
HETATM    8  C   UNK N   1      35.524  12.024  18.407  0.00  0.00     0.019 A 
HETATM    9  C   UNK N   1      36.126  10.859  17.931  0.00  0.00     0.102 A 
HETATM   10  N   UNK N   1      36.594   9.927  18.800  0.00  0.00    -0.355 N 
HETATM   11  C   UNK N   1      36.467  10.106  20.139  0.00  0.00     0.078 A 
ATOM     12  HN  UNK N   1      37.045   9.085  18.442  1.00  0.00     0.166 HD
HETATM   13  C   UNK N   1      36.968   9.062  21.071  0.00  0.00     0.089 C 
HETATM   14  N   UNK N   1      35.872  11.224  20.628  0.00  0.00    -0.332 N 
HETATM   15  C   UNK N   1      35.399  12.189  19.791  0.00  0.00     0.109 A 
ATOM     16  HN  UNK N   1      35.779  11.343  21.637  1.00  0.00     0.168 HD
BRANCH  15  17
HETATM   17  N   UNK N   1      34.756  13.323  20.329  0.00  0.00    -0.385 N 
HETATM   18  H   UNK N   1      35.144  14.223  20.423  0.00  0.00     0.157 HD
HETATM   19  H   UNK N   1      33.829  13.203  20.639  0.00  0.00     0.157 HD
ENDBRANCH  15  17
ENDBRANCH   7   8
ENDBRANCH   1   7
BRANCH   4  20
HETATM   20  C   UNK N   1      36.422  13.598  12.655  0.00  0.00     0.075 C 
BRANCH  20  21
HETATM   21  C   UNK N   1      35.467  14.665  12.113  0.00  0.00     0.185 C 
BRANCH  21  22
HETATM   22  O   UNK N   1      36.139  15.587  11.285  0.00  0.00    -0.296 OA
BRANCH  22  23
HETATM   23  P   UNK N   1      35.005  15.984  10.028  0.00  0.00     0.402 P 
HETATM   24  O   UNK N   1      35.647  17.369  10.314  0.00  0.00    -0.631 OA
BRANCH  23  25
HETATM   25  O   UNK N   1      36.260  14.993   9.346  0.00  0.00    -0.307 OA
HETATM   26  H   UNK N   1      36.240  14.066   9.060  0.00  0.00     0.222 HD
ENDBRANCH  23  25
BRANCH  23  27
HETATM   27  O   UNK N   1      35.384  16.549   8.427  0.00  0.00    -0.188 OA
BRANCH  27  28
HETATM   28  P   UNK N   1      34.309  17.895   8.092  0.00  0.00     0.414 P 
HETATM   29  O   UNK N   1      35.054  19.423   8.438  0.00  0.00    -0.624 OA
HETATM   30  O   UNK N   1      33.903  17.916   6.590  0.00  0.00    -0.624 OA
BRANCH  28  31
HETATM   31  O   UNK N   1      32.828  17.727   8.981  0.00  0.00    -0.300 OA
HETATM   32  H   UNK N   1      32.645  17.233   9.795  0.00  0.00     0.223 HD
ENDBRANCH  28  31
ENDBRANCH  27  28
ENDBRANCH  23  27
ENDBRANCH  22  23
ENDBRANCH  21  22
ENDBRANCH  20  21
ENDBRANCH   4  20
TORSDOF 11
ENDMDL
MODEL 6
REMARK VINA RESULT:      -6.4      2.168      3.176
REMARK  11 active torsions:
REMARK  status: ('A' for Active; 'I' for Inactive)
REMARK    1  A    between atoms: C_6  and  C_7 
REMARK    2  A    between atoms: C_7  and  N_8 
REMARK    3  A    between atoms: C_11  and  C_12 
REMARK    4  A    between atoms: C_12  and  C_13 
REMARK    5  A    between atoms: C_13  and  O_14 
REMARK    6  A    between atoms: P_15  and  O_14 
REMARK    7  A    between atoms: P_15  and  O_16 
REMARK    8  A    between atoms: P_15  and  O_18 
REMARK    9  A    between atoms: O_18  and  P_19 
REMARK   10  A    between atoms: P_19  and  O_20 
REMARK   11  A    between atoms: C_25  and  N_26 
ROOT
HETATM    1  N   UNK N   1      33.387  16.172   6.984  0.00  0.00    -0.349 N 
HETATM    2  C   UNK N   1      33.247  14.825   7.151  0.00  0.00     0.141 A 
HETATM    3  S   UNK N   1      33.811  14.432   8.656  0.00  0.00    -0.087 SA
HETATM    4  C   UNK N   1      34.264  15.944   9.133  0.00  0.00     0.008 A 
HETATM    5  C   UNK N   1      33.942  16.804   8.080  0.00  0.00     0.021 A 
HETATM    6  C   UNK N   1      34.256  18.265   8.102  0.00  0.00     0.069 C 
ENDROOT
BRANCH   1   7
HETATM    7  C   UNK N   1      33.144  16.855   5.712  0.00  0.00     0.172 C 
BRANCH   7   8
HETATM    8  C   UNK N   1      31.707  17.214   5.463  0.00  0.00     0.019 A 
HETATM    9  C   UNK N   1      30.795  17.236   6.519  0.00  0.00     0.102 A 
HETATM   10  N   UNK N   1      29.484  17.501   6.285  0.00  0.00    -0.355 N 
HETATM   11  C   UNK N   1      29.041  17.731   5.023  0.00  0.00     0.078 A 
ATOM     12  HN  UNK N   1      28.828  17.529   7.065  1.00  0.00     0.166 HD
HETATM   13  C   UNK N   1      27.598  17.998   4.788  0.00  0.00     0.089 C 
HETATM   14  N   UNK N   1      29.906  17.700   3.976  0.00  0.00    -0.332 N 
HETATM   15  C   UNK N   1      31.230  17.449   4.169  0.00  0.00     0.109 A 
ATOM     16  HN  UNK N   1      29.557  17.870   3.033  1.00  0.00     0.168 HD
BRANCH  15  17
HETATM   17  N   UNK N   1      32.096  17.392   3.058  0.00  0.00    -0.385 N 
HETATM   18  H   UNK N   1      32.610  16.607   2.759  0.00  0.00     0.157 HD
HETATM   19  H   UNK N   1      32.197  18.217   2.530  0.00  0.00     0.157 HD
ENDBRANCH  15  17
ENDBRANCH   7   8
ENDBRANCH   1   7
BRANCH   4  20
HETATM   20  C   UNK N   1      35.034  16.287  10.357  0.00  0.00     0.075 C 
BRANCH  20  21
HETATM   21  C   UNK N   1      34.900  15.137  11.359  0.00  0.00     0.185 C 
BRANCH  21  22
HETATM   22  O   UNK N   1      35.911  14.172  11.175  0.00  0.00    -0.296 OA
BRANCH  22  23
HETATM   23  P   UNK N   1      36.092  13.400  12.723  0.00  0.00     0.402 P 
HETATM   24  O   UNK N   1      36.454  14.872  13.067  0.00  0.00    -0.631 OA
BRANCH  23  25
HETATM   25  O   UNK N   1      34.406  13.397  12.297  0.00  0.00    -0.307 OA
HETATM   26  H   UNK N   1      33.964  13.077  11.495  0.00  0.00     0.222 HD
ENDBRANCH  23  25
BRANCH  23  27
HETATM   27  O   UNK N   1      35.134  13.690  14.146  0.00  0.00    -0.188 OA
BRANCH  27  28
HETATM   28  P   UNK N   1      36.156  13.344  15.529  0.00  0.00     0.414 P 
HETATM   29  O   UNK N   1      35.281  13.440  17.024  0.00  0.00    -0.624 OA
HETATM   30  O   UNK N   1      36.741  11.905  15.436  0.00  0.00    -0.624 OA
BRANCH  28  31
HETATM   31  O   UNK N   1      37.524  14.411  15.557  0.00  0.00    -0.300 OA
HETATM   32  H   UNK N   1      38.306  14.434  14.984  0.00  0.00     0.223 HD
ENDBRANCH  28  31
ENDBRANCH  27  28
ENDBRANCH  23  27
ENDBRANCH  22  23
ENDBRANCH  21  22
ENDBRANCH  20  21
ENDBRANCH   4  20
TORSDOF 11
ENDMDL
MODEL 7
REMARK VINA RESULT:      -6.4      1.655      2.327
REMARK  11 active torsions:
REMARK  status: ('A' for Active; 'I' for Inactive)
REMARK    1  A    between atoms: C_6  and  C_7 
REMARK    2  A    between atoms: C_7  and  N_8 
REMARK    3  A    between atoms: C_11  and  C_12 
REMARK    4  A    between atoms: C_12  and  C_13 
REMARK    5  A    between atoms: C_13  and  O_14 
REMARK    6  A    between atoms: P_15  and  O_14 
REMARK    7  A    between atoms: P_15  and  O_16 
REMARK    8  A    between atoms: P_15  and  O_18 
REMARK    9  A    between atoms: O_18  and  P_19 
REMARK   10  A    between atoms: P_19  and  O_20 
REMARK   11  A    between atoms: C_25  and  N_26 
ROOT
HETATM    1  N   UNK N   1      30.952  17.124   6.503  0.00  0.00    -0.349 N 
HETATM    2  C   UNK N   1      30.343  17.239   7.718  0.00  0.00     0.141 A 
HETATM    3  S   UNK N   1      31.481  17.715   8.821  0.00  0.00    -0.087 SA
HETATM    4  C   UNK N   1      32.776  17.773   7.802  0.00  0.00     0.008 A 
HETATM    5  C   UNK N   1      32.299  17.426   6.535  0.00  0.00     0.021 A 
HETATM    6  C   UNK N   1      33.187  17.304   5.340  0.00  0.00     0.069 C 
ENDROOT
BRANCH   1   7
HETATM    7  C   UNK N   1      30.290  16.566   5.321  0.00  0.00     0.172 C 
BRANCH   7   8
HETATM    8  C   UNK N   1      29.036  17.284   4.913  0.00  0.00     0.019 A 
HETATM    9  C   UNK N   1      29.105  18.568   4.373  0.00  0.00     0.102 A 
HETATM   10  N   UNK N   1      27.968  19.241   4.060  0.00  0.00    -0.355 N 
HETATM   11  C   UNK N   1      26.752  18.682   4.283  0.00  0.00     0.078 A 
ATOM     12  HN  UNK N   1      28.029  20.174   3.653  1.00  0.00     0.166 HD
HETATM   13  C   UNK N   1      25.520  19.445   3.952  0.00  0.00     0.089 C 
HETATM   14  N   UNK N   1      26.657  17.438   4.822  0.00  0.00    -0.332 N 
HETATM   15  C   UNK N   1      27.773  16.726   5.140  0.00  0.00     0.109 A 
ATOM     16  HN  UNK N   1      25.736  17.033   4.988  1.00  0.00     0.168 HD
BRANCH  15  17
HETATM   17  N   UNK N   1      27.641  15.452   5.727  0.00  0.00    -0.385 N 
HETATM   18  H   UNK N   1      27.564  15.258   6.690  0.00  0.00     0.157 HD
HETATM   19  H   UNK N   1      27.624  14.679   5.116  0.00  0.00     0.157 HD
ENDBRANCH  15  17
ENDBRANCH   7   8
ENDBRANCH   1   7
BRANCH   4  20
HETATM   20  C   UNK N   1      34.196  17.968   8.194  0.00  0.00     0.075 C 
BRANCH  20  21
HETATM   21  C   UNK N   1      34.632  16.785   9.063  0.00  0.00     0.185 C 
BRANCH  21  22
HETATM   22  O   UNK N   1      35.348  17.215  10.199  0.00  0.00    -0.296 OA
BRANCH  22  23
HETATM   23  P   UNK N   1      35.407  15.833  11.251  0.00  0.00     0.402 P 
HETATM   24  O   UNK N   1      34.669  15.249  10.014  0.00  0.00    -0.631 OA
BRANCH  23  25
HETATM   25  O   UNK N   1      37.024  16.199  10.729  0.00  0.00    -0.307 OA
HETATM   26  H   UNK N   1      37.380  16.325   9.834  0.00  0.00     0.222 HD
ENDBRANCH  23  25
BRANCH  23  27
HETATM   27  O   UNK N   1      36.275  14.352  10.972  0.00  0.00    -0.188 OA
BRANCH  27  28
HETATM   28  P   UNK N   1      35.426  13.088  11.845  0.00  0.00     0.414 P 
HETATM   29  O   UNK N   1      36.507  11.865  12.432  0.00  0.00    -0.624 OA
HETATM   30  O   UNK N   1      34.687  13.675  13.083  0.00  0.00    -0.624 OA
BRANCH  28  31
HETATM   31  O   UNK N   1      34.194  12.383  10.848  0.00  0.00    -0.300 OA
HETATM   32  H   UNK N   1      33.247  12.584  10.794  0.00  0.00     0.223 HD
ENDBRANCH  28  31
ENDBRANCH  27  28
ENDBRANCH  23  27
ENDBRANCH  22  23
ENDBRANCH  21  22
ENDBRANCH  20  21
ENDBRANCH   4  20
TORSDOF 11
ENDMDL
MODEL 8
REMARK VINA RESULT:      -6.3      8.389     10.568
REMARK  11 active torsions:
REMARK  status: ('A' for Active; 'I' for Inactive)
REMARK    1  A    between atoms: C_6  and  C_7 
REMARK    2  A    between atoms: C_7  and  N_8 
REMARK    3  A    between atoms: C_11  and  C_12 
REMARK    4  A    between atoms: C_12  and  C_13 
REMARK    5  A    between atoms: C_13  and  O_14 
REMARK    6  A    between atoms: P_15  and  O_14 
REMARK    7  A    between atoms: P_15  and  O_16 
REMARK    8  A    between atoms: P_15  and  O_18 
REMARK    9  A    between atoms: O_18  and  P_19 
REMARK   10  A    between atoms: P_19  and  O_20 
REMARK   11  A    between atoms: C_25  and  N_26 
ROOT
HETATM    1  N   UNK N   1      21.564  18.351   3.660  0.00  0.00    -0.349 N 
HETATM    2  C   UNK N   1      22.378  17.381   4.168  0.00  0.00     0.141 A 
HETATM    3  S   UNK N   1      23.928  17.959   4.168  0.00  0.00    -0.087 SA
HETATM    4  C   UNK N   1      23.621  19.440   3.511  0.00  0.00     0.008 A 
HETATM    5  C   UNK N   1      22.241  19.500   3.301  0.00  0.00     0.021 A 
HETATM    6  C   UNK N   1      21.569  20.670   2.657  0.00  0.00     0.069 C 
ENDROOT
BRANCH   1   7
HETATM    7  C   UNK N   1      20.147  18.136   3.358  0.00  0.00     0.172 C 
BRANCH   7   8
HETATM    8  C   UNK N   1      19.860  16.883   2.580  0.00  0.00     0.019 A 
HETATM    9  C   UNK N   1      19.650  15.675   3.245  0.00  0.00     0.102 A 
HETATM   10  N   UNK N   1      19.450  14.533   2.540  0.00  0.00    -0.355 N 
HETATM   11  C   UNK N   1      19.470  14.546   1.183  0.00  0.00     0.078 A 
ATOM     12  HN  UNK N   1      19.284  13.657   3.035  1.00  0.00     0.166 HD
HETATM   13  C   UNK N   1      19.270  13.279   0.432  0.00  0.00     0.089 C 
HETATM   14  N   UNK N   1      19.687  15.707   0.512  0.00  0.00    -0.332 N 
HETATM   15  C   UNK N   1      19.881  16.877   1.181  0.00  0.00     0.109 A 
ATOM     16  HN  UNK N   1      19.704  15.701  -0.508  1.00  0.00     0.168 HD
BRANCH  15  17
HETATM   17  N   UNK N   1      20.137  18.059   0.457  0.00  0.00    -0.385 N 
HETATM   18  H   UNK N   1      20.505  18.897   0.819  0.00  0.00     0.157 HD
HETATM   19  H   UNK N   1      19.927  18.044  -0.506  0.00  0.00     0.157 HD
ENDBRANCH  15  17
ENDBRANCH   7   8
ENDBRANCH   1   7
BRANCH   4  20
HETATM   20  C   UNK N   1      24.633  20.430   3.060  0.00  0.00     0.075 C 
BRANCH  20  21
HETATM   21  C   UNK N   1      25.975  20.093   3.714  0.00  0.00     0.185 C 
BRANCH  21  22
HETATM   22  O   UNK N   1      26.143  20.782   4.933  0.00  0.00    -0.296 OA
BRANCH  22  23
HETATM   23  P   UNK N   1      27.671  20.238   5.558  0.00  0.00     0.402 P 
HETATM   24  O   UNK N   1      27.499  21.594   6.298  0.00  0.00    -0.631 OA
BRANCH  23  25
HETATM   25  O   UNK N   1      26.422  19.189   6.161  0.00  0.00    -0.307 OA
HETATM   26  H   UNK N   1      25.605  19.400   6.640  0.00  0.00     0.222 HD
ENDBRANCH  23  25
BRANCH  23  27
HETATM   27  O   UNK N   1      28.024  19.804   7.205  0.00  0.00    -0.188 OA
BRANCH  27  28
HETATM   28  P   UNK N   1      28.486  18.111   7.200  0.00  0.00     0.414 P 
HETATM   29  O   UNK N   1      28.687  17.498   5.589  0.00  0.00    -0.624 OA
HETATM   30  O   UNK N   1      29.842  17.908   7.937  0.00  0.00    -0.624 OA
BRANCH  28  31
HETATM   31  O   UNK N   1      27.326  17.160   8.071  0.00  0.00    -0.300 OA
HETATM   32  H   UNK N   1      26.542  17.439   8.570  0.00  0.00     0.223 HD
ENDBRANCH  28  31
ENDBRANCH  27  28
ENDBRANCH  23  27
ENDBRANCH  22  23
ENDBRANCH  21  22
ENDBRANCH  20  21
ENDBRANCH   4  20
TORSDOF 11
ENDMDL
MODEL 9
REMARK VINA RESULT:      -6.3      8.935     10.597
REMARK  11 active torsions:
REMARK  status: ('A' for Active; 'I' for Inactive)
REMARK    1  A    between atoms: C_6  and  C_7 
REMARK    2  A    between atoms: C_7  and  N_8 
REMARK    3  A    between atoms: C_11  and  C_12 
REMARK    4  A    between atoms: C_12  and  C_13 
REMARK    5  A    between atoms: C_13  and  O_14 
REMARK    6  A    between atoms: P_15  and  O_14 
REMARK    7  A    between atoms: P_15  and  O_16 
REMARK    8  A    between atoms: P_15  and  O_18 
REMARK    9  A    between atoms: O_18  and  P_19 
REMARK   10  A    between atoms: P_19  and  O_20 
REMARK   11  A    between atoms: C_25  and  N_26 
ROOT
HETATM    1  N   UNK N   1      27.759  18.322   6.844  0.00  0.00    -0.349 N 
HETATM    2  C   UNK N   1      27.841  19.664   7.078  0.00  0.00     0.141 A 
HETATM    3  S   UNK N   1      27.043  20.448   5.860  0.00  0.00    -0.087 SA
HETATM    4  C   UNK N   1      26.588  19.121   4.993  0.00  0.00     0.008 A 
HETATM    5  C   UNK N   1      27.060  18.009   5.696  0.00  0.00     0.021 A 
HETATM    6  C   UNK N   1      26.900  16.609   5.198  0.00  0.00     0.069 C 
ENDROOT
BRANCH   1   7
HETATM    7  C   UNK N   1      28.488  17.322   7.629  0.00  0.00     0.172 C 
BRANCH   7   8
HETATM    8  C   UNK N   1      29.978  17.514   7.650  0.00  0.00     0.019 A 
HETATM    9  C   UNK N   1      30.753  17.127   6.557  0.00  0.00     0.102 A 
HETATM   10  N   UNK N   1      32.104  17.245   6.600  0.00  0.00    -0.355 N 
HETATM   11  C   UNK N   1      32.720  17.723   7.711  0.00  0.00     0.078 A 
ATOM     12  HN  UNK N   1      32.661  16.972   5.791  1.00  0.00     0.166 HD
HETATM   13  C   UNK N   1      34.202  17.824   7.744  0.00  0.00     0.089 C 
HETATM   14  N   UNK N   1      31.989  18.093   8.794  0.00  0.00    -0.332 N 
HETATM   15  C   UNK N   1      30.631  18.001   8.788  0.00  0.00     0.109 A 
ATOM     16  HN  UNK N   1      32.466  18.447   9.624  1.00  0.00     0.168 HD
BRANCH  15  17
HETATM   17  N   UNK N   1      29.903  18.362   9.940  0.00  0.00    -0.385 N 
HETATM   18  H   UNK N   1      30.167  18.195  10.874  0.00  0.00     0.157 HD
HETATM   19  H   UNK N   1      29.047  18.828   9.797  0.00  0.00     0.157 HD
ENDBRANCH  15  17
ENDBRANCH   7   8
ENDBRANCH   1   7
BRANCH   4  20
HETATM   20  C   UNK N   1      25.970  19.122   3.642  0.00  0.00     0.075 C 
BRANCH  20  21
HETATM   21  C   UNK N   1      24.448  19.177   3.799  0.00  0.00     0.185 C 
BRANCH  21  22
HETATM   22  O   UNK N   1      23.885  17.885   3.837  0.00  0.00    -0.296 OA
BRANCH  22  23
HETATM   23  P   UNK N   1      22.657  17.958   5.065  0.00  0.00     0.402 P 
HETATM   24  O   UNK N   1      21.930  18.618   3.861  0.00  0.00    -0.631 OA
BRANCH  23  25
HETATM   25  O   UNK N   1      22.908  16.293   4.633  0.00  0.00    -0.307 OA
HETATM   26  H   UNK N   1      22.932  15.870   3.759  0.00  0.00     0.222 HD
ENDBRANCH  23  25
BRANCH  23  27
HETATM   27  O   UNK N   1      21.130  17.124   5.057  0.00  0.00    -0.188 OA
BRANCH  27  28
HETATM   28  P   UNK N   1      20.738  16.761   6.729  0.00  0.00     0.414 P 
HETATM   29  O   UNK N   1      19.224  15.925   6.874  0.00  0.00    -0.624 OA
HETATM   30  O   UNK N   1      21.825  15.847   7.364  0.00  0.00    -0.624 OA
BRANCH  28  31
HETATM   31  O   UNK N   1      20.723  18.213   7.679  0.00  0.00    -0.300 OA
HETATM   32  H   UNK N   1      21.348  18.954   7.690  0.00  0.00     0.223 HD
ENDBRANCH  28  31
ENDBRANCH  27  28
ENDBRANCH  23  27
ENDBRANCH  22  23
ENDBRANCH  21  22
ENDBRANCH  20  21
ENDBRANCH   4  20
TORSDOF 11
ENDMDL
