REMARK  1 active torsions:
REMARK  status: ('A' for Active; 'I' for Inactive)
REMARK    1  A    between atoms: N_12  and  C_5 
ROOT
HETATM    1  C   UNK N   1       4.812   1.358   0.000  0.00  0.00     0.003 A 
HETATM    2  C   UNK N   1       3.607   2.083   0.000  0.00  0.00     0.017 A 
HETATM    3  C   UNK N   1       4.797  -0.056   0.000  0.00  0.00     0.038 A 
HETATM    4  C   UNK N   1       2.420   1.357   0.000  0.00  0.00     0.030 A 
HETATM    5  C   UNK N   1       3.572  -0.762  -0.000  0.00  0.00     0.131 A 
HETATM    6  C   UNK N   1       2.396  -0.004  -0.000  0.00  0.00     0.094 A 
HETATM    7  C   UNK N   1       1.108   1.745   0.000  0.00  0.00     0.107 A 
HETATM    8 Br   UNK N   1       0.454   3.531   0.000  0.00  0.00    -0.029 Br
HETATM    9  N   UNK N   1       1.120  -0.433  -0.000  0.00  0.00    -0.296 N 
HETATM   10  N   UNK N   1       0.331   0.637  -0.000  0.00  0.00    -0.292 N 
ATOM     11  HN  UNK N   1      -0.689   0.625  -0.000  1.00  0.00     0.187 HD
HETATM   12  H   UNK N   1       0.824  -1.372  -0.000  0.00  0.00     0.187 HD
ENDROOT
BRANCH   5  13
HETATM   13  N   UNK N   1       3.548  -2.186  -0.000  0.00  0.00    -0.113 N 
HETATM   14  O   UNK N   1       4.571  -2.801   0.000  0.00  0.00    -0.532 OA
HETATM   15  O   UNK N   1       2.510  -2.775  -0.000  0.00  0.00    -0.532 OA
ENDBRANCH   5  13
TORSDOF 1
