MODEL 1
REMARK VINA RESULT:      -4.9      0.000      0.000
REMARK  1 active torsions:
REMARK  status: ('A' for Active; 'I' for Inactive)
REMARK    1  A    between atoms: C_3  and  N_4 
ROOT
HETATM    1  C   UNK N   1      23.139  11.784  12.892  0.00  0.00     0.054 C 
HETATM    2  C   UNK N   1      22.800  12.228  11.505  0.00  0.00     0.003 A 
HETATM    3  C   UNK N   1      23.814  12.580  10.598  0.00  0.00     0.034 A 
HETATM    4  C   UNK N   1      23.479  12.993   9.304  0.00  0.00     0.029 A 
HETATM    5  C   UNK N   1      22.140  13.057   8.910  0.00  0.00     0.005 A 
HETATM    6  C   UNK N   1      21.132  12.708   9.809  0.00  0.00     0.043 A 
HETATM    7  C   UNK N   1      21.457  12.294  11.103  0.00  0.00     0.124 A 
HETATM    8  F   UNK N   1      20.465  11.959  11.963  0.00  0.00    -0.205 F 
ENDROOT
BRANCH   3   9
HETATM    9  N   UNK N   1      25.171  12.521  10.977  0.00  0.00    -0.399 N 
HETATM   10  H   UNK N   1      25.869  12.389  10.294  0.00  0.00     0.156 HD
HETATM   11  H   UNK N   1      25.422  12.613  11.925  0.00  0.00     0.156 HD
ENDBRANCH   3   9
TORSDOF 1
ENDMDL
MODEL 2
REMARK VINA RESULT:      -4.5      1.880      2.690
REMARK  1 active torsions:
REMARK  status: ('A' for Active; 'I' for Inactive)
REMARK    1  A    between atoms: C_3  and  N_4 
ROOT
HETATM    1  C   UNK N   1      20.575  12.175  11.488  0.00  0.00     0.054 C 
HETATM    2  C   UNK N   1      21.994  12.277  11.030  0.00  0.00     0.003 A 
HETATM    3  C   UNK N   1      22.297  12.712   9.728  0.00  0.00     0.034 A 
HETATM    4  C   UNK N   1      23.630  12.802   9.317  0.00  0.00     0.029 A 
HETATM    5  C   UNK N   1      24.663  12.462  10.194  0.00  0.00     0.005 A 
HETATM    6  C   UNK N   1      24.365  12.030  11.487  0.00  0.00     0.043 A 
HETATM    7  C   UNK N   1      23.035  11.937  11.907  0.00  0.00     0.124 A 
HETATM    8  F   UNK N   1      22.764  11.516  13.165  0.00  0.00    -0.205 F 
ENDROOT
BRANCH   3   9
HETATM    9  N   UNK N   1      21.269  13.060   8.828  0.00  0.00    -0.399 N 
HETATM   10  H   UNK N   1      21.329  13.896   8.311  0.00  0.00     0.156 HD
HETATM   11  H   UNK N   1      20.490  12.467   8.717  0.00  0.00     0.156 HD
ENDBRANCH   3   9
TORSDOF 1
ENDMDL
MODEL 3
REMARK VINA RESULT:      -4.5     14.549     15.224
REMARK  1 active torsions:
REMARK  status: ('A' for Active; 'I' for Inactive)
REMARK    1  A    between atoms: C_3  and  N_4 
ROOT
HETATM    1  C   UNK N   1      37.554  15.990  15.917  0.00  0.00     0.054 C 
HETATM    2  C   UNK N   1      36.692  14.894  16.455  0.00  0.00     0.003 A 
HETATM    3  C   UNK N   1      36.526  13.696  15.739  0.00  0.00     0.034 A 
HETATM    4  C   UNK N   1      35.716  12.681  16.257  0.00  0.00     0.029 A 
HETATM    5  C   UNK N   1      35.070  12.852  17.484  0.00  0.00     0.005 A 
HETATM    6  C   UNK N   1      35.233  14.040  18.197  0.00  0.00     0.043 A 
HETATM    7  C   UNK N   1      36.041  15.060  17.687  0.00  0.00     0.124 A 
HETATM    8  F   UNK N   1      36.188  16.207  18.393  0.00  0.00    -0.205 F 
ENDROOT
BRANCH   3   9
HETATM    9  N   UNK N   1      37.170  13.504  14.499  0.00  0.00    -0.399 N 
HETATM   10  H   UNK N   1      37.984  14.014  14.282  0.00  0.00     0.156 HD
HETATM   11  H   UNK N   1      36.805  12.861  13.849  0.00  0.00     0.156 HD
ENDBRANCH   3   9
TORSDOF 1
ENDMDL
MODEL 4
REMARK VINA RESULT:      -4.4      1.723      2.472
REMARK  1 active torsions:
REMARK  status: ('A' for Active; 'I' for Inactive)
REMARK    1  A    between atoms: C_3  and  N_4 
ROOT
HETATM    1  C   UNK N   1      20.514  12.208  11.357  0.00  0.00     0.054 C 
HETATM    2  C   UNK N   1      21.896  12.288  10.793  0.00  0.00     0.003 A 
HETATM    3  C   UNK N   1      23.015  12.002  11.595  0.00  0.00     0.034 A 
HETATM    4  C   UNK N   1      24.301  12.082  11.050  0.00  0.00     0.029 A 
HETATM    5  C   UNK N   1      24.478  12.445   9.713  0.00  0.00     0.005 A 
HETATM    6  C   UNK N   1      23.370  12.730   8.915  0.00  0.00     0.043 A 
HETATM    7  C   UNK N   1      22.081  12.653   9.451  0.00  0.00     0.124 A 
HETATM    8  F   UNK N   1      21.016  12.932   8.662  0.00  0.00    -0.205 F 
ENDROOT
BRANCH   3   9
HETATM    9  N   UNK N   1      22.856  11.634  12.947  0.00  0.00    -0.399 N 
HETATM   10  H   UNK N   1      21.967  11.383  13.288  0.00  0.00     0.156 HD
HETATM   11  H   UNK N   1      23.634  11.627  13.550  0.00  0.00     0.156 HD
ENDBRANCH   3   9
TORSDOF 1
ENDMDL
MODEL 5
REMARK VINA RESULT:      -4.3      2.149      2.791
REMARK  1 active torsions:
REMARK  status: ('A' for Active; 'I' for Inactive)
REMARK    1  A    between atoms: C_3  and  N_4 
ROOT
HETATM    1  C   UNK N   1      24.684  12.284  10.593  0.00  0.00     0.054 C 
HETATM    2  C   UNK N   1      23.227  12.594  10.462  0.00  0.00     0.003 A 
HETATM    3  C   UNK N   1      22.308  12.138  11.422  0.00  0.00     0.034 A 
HETATM    4  C   UNK N   1      20.949  12.438  11.284  0.00  0.00     0.029 A 
HETATM    5  C   UNK N   1      20.501  13.190  10.195  0.00  0.00     0.005 A 
HETATM    6  C   UNK N   1      21.411  13.644   9.240  0.00  0.00     0.043 A 
HETATM    7  C   UNK N   1      22.771  13.349   9.370  0.00  0.00     0.124 A 
HETATM    8  F   UNK N   1      23.641  13.798   8.433  0.00  0.00    -0.205 F 
ENDROOT
BRANCH   3   9
HETATM    9  N   UNK N   1      22.741  11.378  12.529  0.00  0.00    -0.399 N 
HETATM   10  H   UNK N   1      22.329  10.504  12.717  0.00  0.00     0.156 HD
HETATM   11  H   UNK N   1      23.455  11.722  13.113  0.00  0.00     0.156 HD
ENDBRANCH   3   9
TORSDOF 1
ENDMDL
MODEL 6
REMARK VINA RESULT:      -4.3     14.034     14.702
REMARK  1 active torsions:
REMARK  status: ('A' for Active; 'I' for Inactive)
REMARK    1  A    between atoms: C_3  and  N_4 
ROOT
HETATM    1  C   UNK N   1      35.334  14.613  18.171  0.00  0.00     0.054 C 
HETATM    2  C   UNK N   1      35.244  13.136  17.964  0.00  0.00     0.003 A 
HETATM    3  C   UNK N   1      35.335  12.253  19.054  0.00  0.00     0.034 A 
HETATM    4  C   UNK N   1      35.249  10.873  18.842  0.00  0.00     0.029 A 
HETATM    5  C   UNK N   1      35.073  10.368  17.551  0.00  0.00     0.005 A 
HETATM    6  C   UNK N   1      34.982  11.242  16.467  0.00  0.00     0.043 A 
HETATM    7  C   UNK N   1      35.067  12.622  16.670  0.00  0.00     0.124 A 
HETATM    8  F   UNK N   1      34.977  13.456  15.606  0.00  0.00    -0.205 F 
ENDROOT
BRANCH   3   9
HETATM    9  N   UNK N   1      35.513  12.743  20.364  0.00  0.00    -0.399 N 
HETATM   10  H   UNK N   1      35.463  13.711  20.538  0.00  0.00     0.156 HD
HETATM   11  H   UNK N   1      35.686  12.118  21.105  0.00  0.00     0.156 HD
ENDBRANCH   3   9
TORSDOF 1
ENDMDL
MODEL 7
REMARK VINA RESULT:      -4.2     14.588     15.020
REMARK  1 active torsions:
REMARK  status: ('A' for Active; 'I' for Inactive)
REMARK    1  A    between atoms: C_3  and  N_4 
ROOT
HETATM    1  C   UNK N   1      35.398  10.418  19.901  0.00  0.00     0.054 C 
HETATM    2  C   UNK N   1      35.421  11.458  18.828  0.00  0.00     0.003 A 
HETATM    3  C   UNK N   1      35.200  12.812  19.137  0.00  0.00     0.034 A 
HETATM    4  C   UNK N   1      35.226  13.772  18.120  0.00  0.00     0.029 A 
HETATM    5  C   UNK N   1      35.469  13.391  16.798  0.00  0.00     0.005 A 
HETATM    6  C   UNK N   1      35.688  12.049  16.488  0.00  0.00     0.043 A 
HETATM    7  C   UNK N   1      35.665  11.083  17.498  0.00  0.00     0.124 A 
HETATM    8  F   UNK N   1      35.879   9.784  17.179  0.00  0.00    -0.205 F 
ENDROOT
BRANCH   3   9
HETATM    9  N   UNK N   1      34.953  13.215  20.465  0.00  0.00    -0.399 N 
HETATM   10  H   UNK N   1      34.958  12.549  21.191  0.00  0.00     0.156 HD
HETATM   11  H   UNK N   1      34.775  14.162  20.668  0.00  0.00     0.156 HD
ENDBRANCH   3   9
TORSDOF 1
ENDMDL
MODEL 8
REMARK VINA RESULT:      -4.2      1.743      2.829
REMARK  1 active torsions:
REMARK  status: ('A' for Active; 'I' for Inactive)
REMARK    1  A    between atoms: C_3  and  N_4 
ROOT
HETATM    1  C   UNK N   1      24.827  13.424   8.600  0.00  0.00     0.054 C 
HETATM    2  C   UNK N   1      23.642  13.045   9.428  0.00  0.00     0.003 A 
HETATM    3  C   UNK N   1      23.810  12.448  10.690  0.00  0.00     0.034 A 
HETATM    4  C   UNK N   1      22.690  12.101  11.451  0.00  0.00     0.029 A 
HETATM    5  C   UNK N   1      21.403  12.344  10.963  0.00  0.00     0.005 A 
HETATM    6  C   UNK N   1      21.233  12.935   9.712  0.00  0.00     0.043 A 
HETATM    7  C   UNK N   1      22.346  13.286   8.944  0.00  0.00     0.124 A 
HETATM    8  F   UNK N   1      22.163  13.860   7.730  0.00  0.00    -0.205 F 
ENDROOT
BRANCH   3   9
HETATM    9  N   UNK N   1      25.100  12.195  11.199  0.00  0.00    -0.399 N 
HETATM   10  H   UNK N   1      25.236  12.096  12.170  0.00  0.00     0.156 HD
HETATM   11  H   UNK N   1      25.866  12.118  10.585  0.00  0.00     0.156 HD
ENDBRANCH   3   9
TORSDOF 1
ENDMDL
MODEL 9
REMARK VINA RESULT:      -4.2      2.200      3.222
REMARK  1 active torsions:
REMARK  status: ('A' for Active; 'I' for Inactive)
REMARK    1  A    between atoms: C_3  and  N_4 
ROOT
HETATM    1  C   UNK N   1      24.857  13.378   8.916  0.00  0.00     0.054 C 
HETATM    2  C   UNK N   1      23.615  13.033   9.673  0.00  0.00     0.003 A 
HETATM    3  C   UNK N   1      22.358  13.479   9.229  0.00  0.00     0.034 A 
HETATM    4  C   UNK N   1      21.206  13.147   9.950  0.00  0.00     0.029 A 
HETATM    5  C   UNK N   1      21.300  12.375  11.111  0.00  0.00     0.005 A 
HETATM    6  C   UNK N   1      22.546  11.931  11.554  0.00  0.00     0.043 A 
HETATM    7  C   UNK N   1      23.702  12.258  10.840  0.00  0.00     0.124 A 
HETATM    8  F   UNK N   1      24.904  11.819  11.285  0.00  0.00    -0.205 F 
ENDROOT
BRANCH   3   9
HETATM    9  N   UNK N   1      22.243  14.259   8.060  0.00  0.00    -0.399 N 
HETATM   10  H   UNK N   1      21.804  15.141   8.097  0.00  0.00     0.156 HD
HETATM   11  H   UNK N   1      22.601  13.924   7.207  0.00  0.00     0.156 HD
ENDBRANCH   3   9
TORSDOF 1
ENDMDL
