MODEL 1
REMARK VINA RESULT:      -6.2      0.000      0.000
REMARK  8 active torsions:
REMARK  status: ('A' for Active; 'I' for Inactive)
REMARK    1  A    between atoms: C_2  and  N_1 
REMARK    2  A    between atoms: C_2  and  C_3 
REMARK    3  A    between atoms: C_2  and  C_15 
REMARK    4  A    between atoms: C_3  and  O_4 
REMARK    5  A    between atoms: O_4  and  S_5 
REMARK    6  A    between atoms: S_5  and  C_8 
REMARK    7  A    between atoms: C_8  and  C_9 
REMARK    8  A    between atoms: C_15  and  O_16 
ROOT
HETATM    1  O   UNK N   1      36.076  13.327  12.246  0.00  0.00    -0.273 OA
ENDROOT
BRANCH   1   2
HETATM    2  C   UNK N   1      34.962  14.172  12.226  0.00  0.00     0.225 C 
BRANCH   2   3
HETATM    3  C   UNK N   1      34.834  14.850  10.877  0.00  0.00     0.198 C 
BRANCH   3   4
HETATM    4  N   UNK N   1      33.442  15.201  10.648  0.00  0.00    -0.416 N 
HETATM    5  H   UNK N   1      32.746  15.106  11.386  0.00  0.00     0.150 HD
HETATM    6  H   UNK N   1      33.157  15.549   9.733  0.00  0.00     0.150 HD
ENDBRANCH   3   4
BRANCH   3   7
HETATM    7  C   UNK N   1      35.709  16.068  10.863  0.00  0.00     0.165 C 
HETATM    8  O   UNK N   1      35.203  17.174  10.806  0.00  0.00    -0.648 OA
BRANCH   7   9
HETATM    9  O   UNK N   1      37.052  15.951  10.912  0.00  0.00    -0.775 OA
HETATM   10  H   UNK N   1      37.583  16.303  11.598  0.00  0.00     0.167 HD
ENDBRANCH   7   9
ENDBRANCH   3   7
ENDBRANCH   2   3
ENDBRANCH   1   2
BRANCH   1  11
HETATM   11  S   UNK N   1      36.219  12.807  13.884  0.00  0.00     0.269 S 
HETATM   12  O   UNK N   1      34.734  12.602  13.556  0.00  0.00    -0.198 OA
HETATM   13  O   UNK N   1      36.398  14.329  14.003  0.00  0.00    -0.198 OA
BRANCH  11  14
HETATM   14  C   UNK N   1      35.221  13.329  15.386  0.00  0.00     0.209 C 
BRANCH  14  15
HETATM   15  C   UNK N   1      35.329  12.696  16.779  0.00  0.00    -0.042 A 
HETATM   16  C   UNK N   1      35.135  13.515  17.898  0.00  0.00     0.008 A 
HETATM   17  C   UNK N   1      35.212  12.980  19.189  0.00  0.00     0.001 A 
HETATM   18  C   UNK N   1      35.481  11.621  19.369  0.00  0.00     0.000 A 
HETATM   19  C   UNK N   1      35.679  10.795  18.259  0.00  0.00     0.001 A 
HETATM   20  C   UNK N   1      35.607  11.331  16.972  0.00  0.00     0.008 A 
ENDBRANCH  14  15
ENDBRANCH  11  14
ENDBRANCH   1  11
TORSDOF 8
ENDMDL
MODEL 2
REMARK VINA RESULT:      -5.7      2.353      3.340
REMARK  8 active torsions:
REMARK  status: ('A' for Active; 'I' for Inactive)
REMARK    1  A    between atoms: C_2  and  N_1 
REMARK    2  A    between atoms: C_2  and  C_3 
REMARK    3  A    between atoms: C_2  and  C_15 
REMARK    4  A    between atoms: C_3  and  O_4 
REMARK    5  A    between atoms: O_4  and  S_5 
REMARK    6  A    between atoms: S_5  and  C_8 
REMARK    7  A    between atoms: C_8  and  C_9 
REMARK    8  A    between atoms: C_15  and  O_16 
ROOT
HETATM    1  O   UNK N   1      35.321  15.425  10.011  0.00  0.00    -0.273 OA
ENDROOT
BRANCH   1   2
HETATM    2  C   UNK N   1      34.945  16.768   9.899  0.00  0.00     0.225 C 
BRANCH   2   3
HETATM    3  C   UNK N   1      34.014  16.962   8.719  0.00  0.00     0.198 C 
BRANCH   3   4
HETATM    4  N   UNK N   1      32.671  17.229   9.209  0.00  0.00    -0.416 N 
HETATM    5  H   UNK N   1      32.415  17.037  10.176  0.00  0.00     0.150 HD
HETATM    6  H   UNK N   1      31.974  17.615   8.573  0.00  0.00     0.150 HD
ENDBRANCH   3   4
BRANCH   3   7
HETATM    7  C   UNK N   1      34.522  18.099   7.884  0.00  0.00     0.165 C 
HETATM    8  O   UNK N   1      34.424  18.047   6.671  0.00  0.00    -0.648 OA
BRANCH   7   9
HETATM    9  O   UNK N   1      35.089  19.177   8.462  0.00  0.00    -0.775 OA
HETATM   10  H   UNK N   1      34.704  20.031   8.468  0.00  0.00     0.167 HD
ENDBRANCH   7   9
ENDBRANCH   3   7
ENDBRANCH   2   3
ENDBRANCH   1   2
BRANCH   1  11
HETATM   11  S   UNK N   1      35.751  15.215  11.668  0.00  0.00     0.269 S 
HETATM   12  O   UNK N   1      36.659  14.230  10.919  0.00  0.00    -0.198 OA
HETATM   13  O   UNK N   1      34.347  14.592  11.610  0.00  0.00    -0.198 OA
BRANCH  11  14
HETATM   14  C   UNK N   1      35.843  13.635  12.679  0.00  0.00     0.209 C 
BRANCH  14  15
HETATM   15  C   UNK N   1      35.747  13.560  14.208  0.00  0.00    -0.042 A 
HETATM   16  C   UNK N   1      36.660  14.301  14.968  0.00  0.00     0.008 A 
HETATM   17  C   UNK N   1      36.604  14.274  16.366  0.00  0.00     0.001 A 
HETATM   18  C   UNK N   1      35.632  13.507  17.013  0.00  0.00     0.000 A 
HETATM   19  C   UNK N   1      34.717  12.762  16.264  0.00  0.00     0.001 A 
HETATM   20  C   UNK N   1      34.777  12.786  14.869  0.00  0.00     0.008 A 
ENDBRANCH  14  15
ENDBRANCH  11  14
ENDBRANCH   1  11
TORSDOF 8
ENDMDL
MODEL 3
REMARK VINA RESULT:      -5.6      3.032      4.344
REMARK  8 active torsions:
REMARK  status: ('A' for Active; 'I' for Inactive)
REMARK    1  A    between atoms: C_2  and  N_1 
REMARK    2  A    between atoms: C_2  and  C_3 
REMARK    3  A    between atoms: C_2  and  C_15 
REMARK    4  A    between atoms: C_3  and  O_4 
REMARK    5  A    between atoms: O_4  and  S_5 
REMARK    6  A    between atoms: S_5  and  C_8 
REMARK    7  A    between atoms: C_8  and  C_9 
REMARK    8  A    between atoms: C_15  and  O_16 
ROOT
HETATM    1  O   UNK N   1      35.478  15.882   8.889  0.00  0.00    -0.273 OA
ENDROOT
BRANCH   1   2
HETATM    2  C   UNK N   1      34.291  16.359   9.454  0.00  0.00     0.225 C 
BRANCH   2   3
HETATM    3  C   UNK N   1      33.442  17.046   8.405  0.00  0.00     0.198 C 
BRANCH   3   4
HETATM    4  N   UNK N   1      32.298  17.671   9.049  0.00  0.00    -0.416 N 
HETATM    5  H   UNK N   1      31.437  17.151   9.214  0.00  0.00     0.150 HD
HETATM    6  H   UNK N   1      32.358  18.646   9.341  0.00  0.00     0.150 HD
ENDBRANCH   3   4
BRANCH   3   7
HETATM    7  C   UNK N   1      34.283  18.062   7.692  0.00  0.00     0.165 C 
HETATM    8  O   UNK N   1      34.340  18.051   6.476  0.00  0.00    -0.648 OA
BRANCH   7   9
HETATM    9  O   UNK N   1      34.979  18.986   8.385  0.00  0.00    -0.775 OA
HETATM   10  H   UNK N   1      35.049  18.997   9.319  0.00  0.00     0.167 HD
ENDBRANCH   7   9
ENDBRANCH   3   7
ENDBRANCH   2   3
ENDBRANCH   1   2
BRANCH   1  11
HETATM   11  S   UNK N   1      36.291  15.062  10.170  0.00  0.00     0.269 S 
HETATM   12  O   UNK N   1      34.827  14.625  10.318  0.00  0.00    -0.198 OA
HETATM   13  O   UNK N   1      36.324  16.525  10.641  0.00  0.00    -0.198 OA
BRANCH  11  14
HETATM   14  C   UNK N   1      35.884  15.025  12.002  0.00  0.00     0.209 C 
BRANCH  14  15
HETATM   15  C   UNK N   1      36.374  13.961  12.993  0.00  0.00    -0.042 A 
HETATM   16  C   UNK N   1      36.862  12.753  12.482  0.00  0.00     0.008 A 
HETATM   17  C   UNK N   1      37.331  11.757  13.346  0.00  0.00     0.001 A 
HETATM   18  C   UNK N   1      37.317  11.964  14.728  0.00  0.00     0.000 A 
HETATM   19  C   UNK N   1      36.830  13.166  15.248  0.00  0.00     0.001 A 
HETATM   20  C   UNK N   1      36.358  14.157  14.386  0.00  0.00     0.008 A 
ENDBRANCH  14  15
ENDBRANCH  11  14
ENDBRANCH   1  11
TORSDOF 8
ENDMDL
MODEL 4
REMARK VINA RESULT:      -5.6      1.213      1.851
REMARK  8 active torsions:
REMARK  status: ('A' for Active; 'I' for Inactive)
REMARK    1  A    between atoms: C_2  and  N_1 
REMARK    2  A    between atoms: C_2  and  C_3 
REMARK    3  A    between atoms: C_2  and  C_15 
REMARK    4  A    between atoms: C_3  and  O_4 
REMARK    5  A    between atoms: O_4  and  S_5 
REMARK    6  A    between atoms: S_5  and  C_8 
REMARK    7  A    between atoms: C_8  and  C_9 
REMARK    8  A    between atoms: C_15  and  O_16 
ROOT
HETATM    1  O   UNK N   1      36.407  14.122  13.289  0.00  0.00    -0.273 OA
ENDROOT
BRANCH   1   2
HETATM    2  C   UNK N   1      36.629  13.222  12.241  0.00  0.00     0.225 C 
BRANCH   2   3
HETATM    3  C   UNK N   1      35.889  13.665  10.996  0.00  0.00     0.198 C 
BRANCH   3   4
HETATM    4  N   UNK N   1      34.572  14.154  11.370  0.00  0.00    -0.416 N 
HETATM    5  H   UNK N   1      33.777  14.063  10.738  0.00  0.00     0.150 HD
HETATM    6  H   UNK N   1      34.441  14.595  12.280  0.00  0.00     0.150 HD
ENDBRANCH   3   4
BRANCH   3   7
HETATM    7  C   UNK N   1      36.689  14.734  10.313  0.00  0.00     0.165 C 
HETATM    8  O   UNK N   1      37.167  14.520   9.214  0.00  0.00    -0.648 OA
BRANCH   7   9
HETATM    9  O   UNK N   1      36.886  15.930  10.905  0.00  0.00    -0.775 OA
HETATM   10  H   UNK N   1      37.716  16.361  10.949  0.00  0.00     0.167 HD
ENDBRANCH   7   9
ENDBRANCH   3   7
ENDBRANCH   2   3
ENDBRANCH   1   2
BRANCH   1  11
HETATM   11  S   UNK N   1      36.230  13.141  14.697  0.00  0.00     0.269 S 
HETATM   12  O   UNK N   1      34.787  13.445  14.270  0.00  0.00    -0.198 OA
HETATM   13  O   UNK N   1      36.763  14.460  15.279  0.00  0.00    -0.198 OA
BRANCH  11  14
HETATM   14  C   UNK N   1      35.227  13.465  16.250  0.00  0.00     0.209 C 
BRANCH  14  15
HETATM   15  C   UNK N   1      35.257  12.597  17.515  0.00  0.00    -0.042 A 
HETATM   16  C   UNK N   1      35.332  11.208  17.366  0.00  0.00     0.008 A 
HETATM   17  C   UNK N   1      35.374  10.376  18.491  0.00  0.00     0.001 A 
HETATM   18  C   UNK N   1      35.343  10.930  19.773  0.00  0.00     0.000 A 
HETATM   19  C   UNK N   1      35.264  12.316  19.933  0.00  0.00     0.001 A 
HETATM   20  C   UNK N   1      35.218  13.145  18.811  0.00  0.00     0.008 A 
ENDBRANCH  14  15
ENDBRANCH  11  14
ENDBRANCH   1  11
TORSDOF 8
ENDMDL
MODEL 5
REMARK VINA RESULT:      -5.5      4.859      8.726
REMARK  8 active torsions:
REMARK  status: ('A' for Active; 'I' for Inactive)
REMARK    1  A    between atoms: C_2  and  N_1 
REMARK    2  A    between atoms: C_2  and  C_3 
REMARK    3  A    between atoms: C_2  and  C_15 
REMARK    4  A    between atoms: C_3  and  O_4 
REMARK    5  A    between atoms: O_4  and  S_5 
REMARK    6  A    between atoms: S_5  and  C_8 
REMARK    7  A    between atoms: C_8  and  C_9 
REMARK    8  A    between atoms: C_15  and  O_16 
ROOT
HETATM    1  O   UNK N   1      35.344  16.589   9.328  0.00  0.00    -0.273 OA
ENDROOT
BRANCH   1   2
HETATM    2  C   UNK N   1      35.288  15.191   9.337  0.00  0.00     0.225 C 
BRANCH   2   3
HETATM    3  C   UNK N   1      35.844  14.646  10.636  0.00  0.00     0.198 C 
BRANCH   3   4
HETATM    4  N   UNK N   1      36.813  15.587  11.174  0.00  0.00    -0.416 N 
HETATM    5  H   UNK N   1      36.665  16.038  12.076  0.00  0.00     0.150 HD
HETATM    6  H   UNK N   1      37.655  15.799  10.640  0.00  0.00     0.150 HD
ENDBRANCH   3   4
BRANCH   3   7
HETATM    7  C   UNK N   1      34.711  14.430  11.594  0.00  0.00     0.165 C 
HETATM    8  O   UNK N   1      34.913  13.856  12.649  0.00  0.00    -0.648 OA
BRANCH   7   9
HETATM    9  O   UNK N   1      33.467  14.862  11.298  0.00  0.00    -0.775 OA
HETATM   10  H   UNK N   1      33.162  15.731  11.466  0.00  0.00     0.167 HD
ENDBRANCH   7   9
ENDBRANCH   3   7
ENDBRANCH   2   3
ENDBRANCH   1   2
BRANCH   1  11
HETATM   11  S   UNK N   1      34.236  17.077   8.099  0.00  0.00     0.269 S 
HETATM   12  O   UNK N   1      34.799  18.399   8.640  0.00  0.00    -0.198 OA
HETATM   13  O   UNK N   1      33.299  16.558   9.201  0.00  0.00    -0.198 OA
BRANCH  11  14
HETATM   14  C   UNK N   1      32.822  18.308   8.197  0.00  0.00     0.209 C 
BRANCH  14  15
HETATM   15  C   UNK N   1      31.335  17.954   8.065  0.00  0.00    -0.042 A 
HETATM   16  C   UNK N   1      30.446  18.450   9.026  0.00  0.00     0.008 A 
HETATM   17  C   UNK N   1      29.079  18.164   8.941  0.00  0.00     0.001 A 
HETATM   18  C   UNK N   1      28.592  17.380   7.892  0.00  0.00     0.000 A 
HETATM   19  C   UNK N   1      29.470  16.877   6.929  0.00  0.00     0.001 A 
HETATM   20  C   UNK N   1      30.835  17.160   7.017  0.00  0.00     0.008 A 
ENDBRANCH  14  15
ENDBRANCH  11  14
ENDBRANCH   1  11
TORSDOF 8
ENDMDL
MODEL 6
REMARK VINA RESULT:      -5.2     14.713     16.028
REMARK  8 active torsions:
REMARK  status: ('A' for Active; 'I' for Inactive)
REMARK    1  A    between atoms: C_2  and  N_1 
REMARK    2  A    between atoms: C_2  and  C_3 
REMARK    3  A    between atoms: C_2  and  C_15 
REMARK    4  A    between atoms: C_3  and  O_4 
REMARK    5  A    between atoms: O_4  and  S_5 
REMARK    6  A    between atoms: S_5  and  C_8 
REMARK    7  A    between atoms: C_8  and  C_9 
REMARK    8  A    between atoms: C_15  and  O_16 
ROOT
HETATM    1  O   UNK N   1      19.414  15.861   7.463  0.00  0.00    -0.273 OA
ENDROOT
BRANCH   1   2
HETATM    2  C   UNK N   1      19.961  16.038   6.188  0.00  0.00     0.225 C 
BRANCH   2   3
HETATM    3  C   UNK N   1      18.963  15.637   5.121  0.00  0.00     0.198 C 
BRANCH   3   4
HETATM    4  N   UNK N   1      19.350  16.236   3.854  0.00  0.00    -0.416 N 
HETATM    5  H   UNK N   1      20.231  15.992   3.402  0.00  0.00     0.150 HD
HETATM    6  H   UNK N   1      18.730  16.913   3.409  0.00  0.00     0.150 HD
ENDBRANCH   3   4
BRANCH   3   7
HETATM    7  C   UNK N   1      18.932  14.141   5.025  0.00  0.00     0.165 C 
HETATM    8  O   UNK N   1      17.960  13.587   4.545  0.00  0.00    -0.648 OA
BRANCH   7   9
HETATM    9  O   UNK N   1      19.970  13.403   5.469  0.00  0.00    -0.775 OA
HETATM   10  H   UNK N   1      20.858  13.533   5.200  0.00  0.00     0.167 HD
ENDBRANCH   7   9
ENDBRANCH   3   7
ENDBRANCH   2   3
ENDBRANCH   1   2
BRANCH   1  11
HETATM   11  S   UNK N   1      20.747  15.440   8.472  0.00  0.00     0.269 S 
HETATM   12  O   UNK N   1      21.371  15.602   7.079  0.00  0.00    -0.198 OA
HETATM   13  O   UNK N   1      19.954  14.124   8.407  0.00  0.00    -0.198 OA
BRANCH  11  14
HETATM   14  C   UNK N   1      22.020  14.078   8.250  0.00  0.00     0.209 C 
BRANCH  14  15
HETATM   15  C   UNK N   1      22.710  13.321   9.392  0.00  0.00    -0.042 A 
HETATM   16  C   UNK N   1      24.103  13.188   9.355  0.00  0.00     0.008 A 
HETATM   17  C   UNK N   1      24.778  12.517  10.381  0.00  0.00     0.001 A 
HETATM   18  C   UNK N   1      24.063  11.976  11.453  0.00  0.00     0.000 A 
HETATM   19  C   UNK N   1      22.672  12.100  11.498  0.00  0.00     0.001 A 
HETATM   20  C   UNK N   1      21.999  12.767  10.472  0.00  0.00     0.008 A 
ENDBRANCH  14  15
ENDBRANCH  11  14
ENDBRANCH   1  11
TORSDOF 8
ENDMDL
MODEL 7
REMARK VINA RESULT:      -5.2      1.865      2.015
REMARK  8 active torsions:
REMARK  status: ('A' for Active; 'I' for Inactive)
REMARK    1  A    between atoms: C_2  and  N_1 
REMARK    2  A    between atoms: C_2  and  C_3 
REMARK    3  A    between atoms: C_2  and  C_15 
REMARK    4  A    between atoms: C_3  and  O_4 
REMARK    5  A    between atoms: O_4  and  S_5 
REMARK    6  A    between atoms: S_5  and  C_8 
REMARK    7  A    between atoms: C_8  and  C_9 
REMARK    8  A    between atoms: C_15  and  O_16 
ROOT
HETATM    1  O   UNK N   1      35.984  12.279  12.277  0.00  0.00    -0.273 OA
ENDROOT
BRANCH   1   2
HETATM    2  C   UNK N   1      36.684  13.489  12.333  0.00  0.00     0.225 C 
BRANCH   2   3
HETATM    3  C   UNK N   1      36.372  14.340  11.120  0.00  0.00     0.198 C 
BRANCH   3   4
HETATM    4  N   UNK N   1      37.595  14.571  10.369  0.00  0.00    -0.416 N 
HETATM    5  H   UNK N   1      37.571  14.975   9.433  0.00  0.00     0.150 HD
HETATM    6  H   UNK N   1      38.493  14.324  10.785  0.00  0.00     0.150 HD
ENDBRANCH   3   4
BRANCH   3   7
HETATM    7  C   UNK N   1      35.348  13.633  10.283  0.00  0.00     0.165 C 
HETATM    8  O   UNK N   1      35.660  13.195   9.190  0.00  0.00    -0.648 OA
BRANCH   7   9
HETATM    9  O   UNK N   1      34.084  13.478  10.728  0.00  0.00    -0.775 OA
HETATM   10  H   UNK N   1      33.385  14.069  10.532  0.00  0.00     0.167 HD
ENDBRANCH   7   9
ENDBRANCH   3   7
ENDBRANCH   2   3
ENDBRANCH   1   2
BRANCH   1  11
HETATM   11  S   UNK N   1      35.700  11.845  13.921  0.00  0.00     0.269 S 
HETATM   12  O   UNK N   1      34.445  12.633  13.522  0.00  0.00    -0.198 OA
HETATM   13  O   UNK N   1      36.813  12.898  14.045  0.00  0.00    -0.198 OA
BRANCH  11  14
HETATM   14  C   UNK N   1      35.221  12.936  15.372  0.00  0.00     0.209 C 
BRANCH  14  15
HETATM   15  C   UNK N   1      35.303  12.527  16.848  0.00  0.00    -0.042 A 
HETATM   16  C   UNK N   1      35.111  13.513  17.822  0.00  0.00     0.008 A 
HETATM   17  C   UNK N   1      35.165  13.185  19.181  0.00  0.00     0.001 A 
HETATM   18  C   UNK N   1      35.408  11.867  19.575  0.00  0.00     0.000 A 
HETATM   19  C   UNK N   1      35.603  10.875  18.610  0.00  0.00     0.001 A 
HETATM   20  C   UNK N   1      35.554  11.204  17.254  0.00  0.00     0.008 A 
ENDBRANCH  14  15
ENDBRANCH  11  14
ENDBRANCH   1  11
TORSDOF 8
ENDMDL
MODEL 8
REMARK VINA RESULT:      -5.1     16.450     17.987
REMARK  8 active torsions:
REMARK  status: ('A' for Active; 'I' for Inactive)
REMARK    1  A    between atoms: C_2  and  N_1 
REMARK    2  A    between atoms: C_2  and  C_3 
REMARK    3  A    between atoms: C_2  and  C_15 
REMARK    4  A    between atoms: C_3  and  O_4 
REMARK    5  A    between atoms: O_4  and  S_5 
REMARK    6  A    between atoms: S_5  and  C_8 
REMARK    7  A    between atoms: C_8  and  C_9 
REMARK    8  A    between atoms: C_15  and  O_16 
ROOT
HETATM    1  O   UNK N   1      19.237  17.220   3.814  0.00  0.00    -0.273 OA
ENDROOT
BRANCH   1   2
HETATM    2  C   UNK N   1      20.303  18.037   3.422  0.00  0.00     0.225 C 
BRANCH   2   3
HETATM    3  C   UNK N   1      20.382  18.118   1.911  0.00  0.00     0.198 C 
BRANCH   3   4
HETATM    4  N   UNK N   1      19.143  17.614   1.340  0.00  0.00    -0.416 N 
HETATM    5  H   UNK N   1      18.715  16.755   1.685  0.00  0.00     0.150 HD
HETATM    6  H   UNK N   1      18.695  18.128   0.582  0.00  0.00     0.150 HD
ENDBRANCH   3   4
BRANCH   3   7
HETATM    7  C   UNK N   1      20.620  19.544   1.515  0.00  0.00     0.165 C 
HETATM    8  O   UNK N   1      20.801  20.387   2.374  0.00  0.00    -0.648 OA
BRANCH   7   9
HETATM    9  O   UNK N   1      20.634  19.902   0.214  0.00  0.00    -0.775 OA
HETATM   10  H   UNK N   1      20.713  19.296  -0.495  0.00  0.00     0.167 HD
ENDBRANCH   7   9
ENDBRANCH   3   7
ENDBRANCH   2   3
ENDBRANCH   1   2
BRANCH   1  11
HETATM   11  S   UNK N   1      19.928  16.065   4.893  0.00  0.00     0.269 S 
HETATM   12  O   UNK N   1      18.440  16.084   5.269  0.00  0.00    -0.198 OA
HETATM   13  O   UNK N   1      20.494  17.392   5.424  0.00  0.00    -0.198 OA
BRANCH  11  14
HETATM   14  C   UNK N   1      19.807  15.968   6.764  0.00  0.00     0.209 C 
BRANCH  14  15
HETATM   15  C   UNK N   1      20.411  14.855   7.630  0.00  0.00    -0.042 A 
HETATM   16  C   UNK N   1      20.842  13.683   7.000  0.00  0.00     0.008 A 
HETATM   17  C   UNK N   1      21.410  12.645   7.746  0.00  0.00     0.001 A 
HETATM   18  C   UNK N   1      21.554  12.775   9.130  0.00  0.00     0.000 A 
HETATM   19  C   UNK N   1      21.125  13.940   9.770  0.00  0.00     0.001 A 
HETATM   20  C   UNK N   1      20.553  14.973   9.025  0.00  0.00     0.008 A 
ENDBRANCH  14  15
ENDBRANCH  11  14
ENDBRANCH   1  11
TORSDOF 8
ENDMDL
MODEL 9
REMARK VINA RESULT:      -5.0     19.551     22.685
REMARK  8 active torsions:
REMARK  status: ('A' for Active; 'I' for Inactive)
REMARK    1  A    between atoms: C_2  and  N_1 
REMARK    2  A    between atoms: C_2  and  C_3 
REMARK    3  A    between atoms: C_2  and  C_15 
REMARK    4  A    between atoms: C_3  and  O_4 
REMARK    5  A    between atoms: O_4  and  S_5 
REMARK    6  A    between atoms: S_5  and  C_8 
REMARK    7  A    between atoms: C_8  and  C_9 
REMARK    8  A    between atoms: C_15  and  O_16 
ROOT
HETATM    1  O   UNK N   1      30.509  23.869  -3.163  0.00  0.00    -0.273 OA
ENDROOT
BRANCH   1   2
HETATM    2  C   UNK N   1      30.938  22.572  -2.863  0.00  0.00     0.225 C 
BRANCH   2   3
HETATM    3  C   UNK N   1      31.944  22.095  -3.889  0.00  0.00     0.198 C 
BRANCH   3   4
HETATM    4  N   UNK N   1      32.557  23.247  -4.530  0.00  0.00    -0.416 N 
HETATM    5  H   UNK N   1      33.401  23.675  -4.150  0.00  0.00     0.150 HD
HETATM    6  H   UNK N   1      32.136  23.635  -5.374  0.00  0.00     0.150 HD
ENDBRANCH   3   4
BRANCH   3   7
HETATM    7  C   UNK N   1      32.972  21.248  -3.201  0.00  0.00     0.165 C 
HETATM    8  O   UNK N   1      33.856  20.722  -3.853  0.00  0.00    -0.648 OA
BRANCH   7   9
HETATM    9  O   UNK N   1      32.927  21.060  -1.866  0.00  0.00    -0.775 OA
HETATM   10  H   UNK N   1      32.706  21.731  -1.251  0.00  0.00     0.167 HD
ENDBRANCH   7   9
ENDBRANCH   3   7
ENDBRANCH   2   3
ENDBRANCH   1   2
BRANCH   1  11
HETATM   11  S   UNK N   1      28.921  23.682  -3.808  0.00  0.00     0.269 S 
HETATM   12  O   UNK N   1      29.104  25.202  -3.704  0.00  0.00    -0.198 OA
HETATM   13  O   UNK N   1      28.748  23.197  -2.360  0.00  0.00    -0.198 OA
BRANCH  11  14
HETATM   14  C   UNK N   1      27.301  24.416  -3.207  0.00  0.00     0.209 C 
BRANCH  14  15
HETATM   15  C   UNK N   1      26.480  25.474  -3.955  0.00  0.00    -0.042 A 
HETATM   16  C   UNK N   1      26.311  26.728  -3.359  0.00  0.00     0.008 A 
HETATM   17  C   UNK N   1      25.580  27.729  -4.009  0.00  0.00     0.001 A 
HETATM   18  C   UNK N   1      25.016  27.482  -5.263  0.00  0.00     0.000 A 
HETATM   19  C   UNK N   1      25.177  26.232  -5.867  0.00  0.00     0.001 A 
HETATM   20  C   UNK N   1      25.902  25.232  -5.215  0.00  0.00     0.008 A 
ENDBRANCH  14  15
ENDBRANCH  11  14
ENDBRANCH   1  11
TORSDOF 8
ENDMDL
