REMARK  9 active torsions:
REMARK  status: ('A' for Active; 'I' for Inactive)
REMARK    1  A    between atoms: C_5  and  C_3 
REMARK    2  A    between atoms: O_22  and  C_3 
REMARK    3  A    between atoms: C_6  and  O_16 
REMARK    4  A    between atoms: C_7  and  O_17 
REMARK    5  A    between atoms: C_9  and  N_15 
REMARK    6  A    between atoms: O_18  and  C_10 
REMARK    7  A    between atoms: P_24  and  O_19 
REMARK    8  A    between atoms: P_24  and  O_20 
REMARK    9  A    between atoms: P_24  and  O_22 
ROOT
HETATM    1  C   UNK N   1      -0.106   2.338  -0.729  0.00  0.00     0.180 C 
HETATM    2  C   UNK N   1      -0.989   3.302   0.100  0.00  0.00     0.182 C 
HETATM    3  C   UNK N   1      -2.337   2.619   0.034  0.00  0.00     0.198 C 
HETATM    4  C   UNK N   1      -1.833   1.188   0.075  0.00  0.00     0.262 C 
HETATM    5  O   UNK N   1      -0.870   1.168  -0.950  0.00  0.00    -0.353 OA
ENDROOT
BRANCH   4   6
HETATM    6  N   UNK N   1      -2.811   0.103  -0.092  0.00  0.00    -0.293 N 
HETATM    7  C   UNK N   1      -4.153   0.349  -0.099  0.00  0.00     0.107 A 
HETATM    8  C   UNK N   1      -5.064  -0.705  -0.165  0.00  0.00    -0.003 A 
HETATM    9  C   UNK N   1      -6.527  -0.420  -0.138  0.00  0.00     0.054 C 
HETATM   10  C   UNK N   1      -4.571  -2.013  -0.232  0.00  0.00     0.109 A 
HETATM   11  N   UNK N   1      -5.367  -3.014  -0.280  0.00  0.00    -0.385 N 
HETATM   12  N   UNK N   1      -3.232  -2.224  -0.237  0.00  0.00    -0.308 N 
HETATM   13  H   UNK N   1      -6.340  -2.868  -0.316  0.00  0.00     0.157 HD
ATOM     14  HN  UNK N   1      -4.994  -3.963  -0.280  1.00  0.00     0.157 HD
HETATM   15  C   UNK N   1      -2.357  -1.191  -0.162  0.00  0.00     0.227 A 
ATOM     16  HN  UNK N   1      -2.877  -3.178  -0.297  1.00  0.00     0.171 HD
BRANCH  15  17
HETATM   17  O   UNK N   1      -1.036  -1.454  -0.145  0.00  0.00    -0.332 OA
HETATM   18  H   UNK N   1      -0.735  -2.342  -0.134  0.00  0.00     0.221 HD
ENDBRANCH  15  17
ENDBRANCH   4   6
BRANCH   3  19
HETATM   19  O   UNK N   1      -3.161   2.958   1.110  0.00  0.00    -0.388 OA
HETATM   20  H   UNK N   1      -3.242   3.572   1.857  0.00  0.00     0.210 HD
ENDBRANCH   3  19
BRANCH   2  21
HETATM   21  O   UNK N   1      -1.023   4.600  -0.418  0.00  0.00    -0.390 OA
HETATM   22  H   UNK N   1      -0.255   5.071  -0.777  0.00  0.00     0.210 HD
ENDBRANCH   2  21
BRANCH   1  23
HETATM   23  C   UNK N   1       1.139   1.864   0.026  0.00  0.00     0.215 C 
BRANCH  23  24
HETATM   24  O   UNK N   1       1.956   2.898   0.488  0.00  0.00    -0.294 OA
BRANCH  24  25
HETATM   25  P   UNK N   1       3.449   2.715  -0.389  0.00  0.00     0.390 P 
HETATM   26  O   UNK N   1       3.455   4.220  -0.013  0.00  0.00    -0.632 OA
BRANCH  25  27
HETATM   27  O   UNK N   1       4.998   2.935   0.360  0.00  0.00    -0.307 OA
HETATM   28  H   UNK N   1       5.538   2.246   0.779  0.00  0.00     0.222 HD
ENDBRANCH  25  27
BRANCH  25  29
HETATM   29  O   UNK N   1       3.614   1.773   1.068  0.00  0.00    -0.307 OA
HETATM   30  H   UNK N   1       3.205   1.431   1.878  0.00  0.00     0.222 HD
ENDBRANCH  25  29
ENDBRANCH  24  25
ENDBRANCH  23  24
ENDBRANCH   1  23
TORSDOF 9
