MODEL 1
REMARK VINA RESULT:      -6.6      0.000      0.000
REMARK  19 active torsions:
REMARK  status: ('A' for Active; 'I' for Inactive)
REMARK    1  A    between atoms: C_4  and  C_1 
REMARK    2  A    between atoms: O_22  and  C_1 
REMARK    3  A    between atoms: C_5  and  C_2 
REMARK    4  A    between atoms: O_23  and  C_2 
REMARK    5  A    between atoms: C_6  and  C_3 
REMARK    6  A    between atoms: O_24  and  C_3 
REMARK    7  A    between atoms: C_7  and  O_25 
REMARK    8  A    between atoms: C_8  and  O_26 
REMARK    9  A    between atoms: C_9  and  O_27 
REMARK   10  A    between atoms: C_10  and  O_28 
REMARK   11  A    between atoms: C_11  and  O_29 
REMARK   12  A    between atoms: C_12  and  O_30 
REMARK   13  A    between atoms: C_13  and  O_31 
REMARK   14  A    between atoms: C_14  and  O_35 
REMARK   15  A    between atoms: C_15  and  O_36 
REMARK   16  A    between atoms: N_21  and  C_16 
REMARK   17  A    between atoms: C_17  and  O_36 
REMARK   18  A    between atoms: C_18  and  O_35 
REMARK   19  A    between atoms: O_32  and  N_21 
ROOT
HETATM    1  C   UNK N   1      35.801  12.631   9.786  0.00  0.00     0.180 C 
HETATM    2  C   UNK N   1      36.503  14.680  11.090  0.00  0.00     0.183 C 
HETATM    3  C   UNK N   1      35.583  15.463  10.079  0.00  0.00     0.204 C 
HETATM    4  C   UNK N   1      35.929  13.250  11.187  0.00  0.00     0.187 C 
HETATM    5  C   UNK N   1      35.418  14.694   8.711  0.00  0.00     0.292 C 
HETATM    6  O   UNK N   1      36.161  13.515   8.730  0.00  0.00    -0.348 OA
ENDROOT
BRANCH   5   7
HETATM    7  O   UNK N   1      34.081  14.380   8.329  0.00  0.00    -0.348 OA
BRANCH   7   8
HETATM    8  C   UNK N   1      33.482  15.359   7.455  0.00  0.00     0.181 C 
HETATM    9  C   UNK N   1      32.431  16.394   8.075  0.00  0.00     0.138 C 
HETATM   10  N   UNK N   1      33.086  17.548   8.659  0.00  0.00    -0.367 N 
HETATM   11  C   UNK N   1      33.967  18.193   7.973  0.00  0.00     0.129 C 
ATOM     12  HN  UNK N   1      32.851  17.849   9.605  1.00  0.00     0.161 HD
HETATM   13  C   UNK N   1      34.381  17.656   6.612  0.00  0.00     0.218 C 
HETATM   14  C   UNK N   1      34.681  16.159   6.834  0.00  0.00     0.185 C 
BRANCH   9  15
HETATM   15  C   UNK N   1      31.289  15.893   8.947  0.00  0.00     0.191 C 
BRANCH  15  16
HETATM   16  O   UNK N   1      31.760  15.093   9.991  0.00  0.00    -0.399 OA
HETATM   17  H   UNK N   1      31.829  15.404  10.907  0.00  0.00     0.209 HD
ENDBRANCH  15  16
ENDBRANCH   9  15
BRANCH  11  18
HETATM   18  N   UNK N   1      34.617  19.328   8.516  0.00  0.00    -0.255 N 
HETATM   19  H   UNK N   1      34.197  20.216   8.435  0.00  0.00     0.195 HD
BRANCH  18  20
HETATM   20  O   UNK N   1      35.800  19.207   9.139  0.00  0.00    -0.288 OA
HETATM   21  H   UNK N   1      35.844  19.005  10.086  0.00  0.00     0.244 HD
ENDBRANCH  18  20
ENDBRANCH  11  18
BRANCH  13  22
HETATM   22  O   UNK N   1      33.352  17.820   5.680  0.00  0.00    -0.385 OA
HETATM   23  H   UNK N   1      32.913  18.122   4.870  0.00  0.00     0.210 HD
ENDBRANCH  13  22
BRANCH  14  24
HETATM   24  O   UNK N   1      35.133  15.545   5.665  0.00  0.00    -0.390 OA
HETATM   25  H   UNK N   1      34.928  15.931   4.798  0.00  0.00     0.210 HD
ENDBRANCH  14  24
ENDBRANCH   7   8
ENDBRANCH   5   7
BRANCH   3  26
HETATM   26  O   UNK N   1      34.324  15.690  10.648  0.00  0.00    -0.388 OA
HETATM   27  H   UNK N   1      33.544  16.082  11.072  0.00  0.00     0.210 HD
ENDBRANCH   3  26
BRANCH   2  28
HETATM   28  O   UNK N   1      37.818  14.659  10.615  0.00  0.00    -0.390 OA
HETATM   29  H   UNK N   1      38.772  14.819  10.547  0.00  0.00     0.210 HD
ENDBRANCH   2  28
BRANCH   1  30
HETATM   30  C   UNK N   1      34.473  11.855   9.622  0.00  0.00     0.198 C 
BRANCH  30  31
HETATM   31  O   UNK N   1      33.366  12.521  10.155  0.00  0.00    -0.398 OA
HETATM   32  H   UNK N   1      32.589  13.083  10.009  0.00  0.00     0.209 HD
ENDBRANCH  30  31
ENDBRANCH   1  30
BRANCH   4  33
HETATM   33  O   UNK N   1      36.368  12.324  12.180  0.00  0.00    -0.348 OA
BRANCH  33  34
HETATM   34  C   UNK N   1      35.403  11.706  13.030  0.00  0.00     0.292 C 
HETATM   35  C   UNK N   1      36.089  10.542  13.770  0.00  0.00     0.204 C 
HETATM   36  C   UNK N   1      37.154  11.088  14.740  0.00  0.00     0.183 C 
HETATM   37  C   UNK N   1      36.451  12.000  15.749  0.00  0.00     0.180 C 
HETATM   38  C   UNK N   1      35.636  13.091  15.027  0.00  0.00     0.179 C 
HETATM   39  O   UNK N   1      34.794  12.594  13.978  0.00  0.00    -0.348 OA
BRANCH  35  40
HETATM   40  O   UNK N   1      36.669   9.660  12.856  0.00  0.00    -0.388 OA
HETATM   41  H   UNK N   1      36.922   9.708  11.920  0.00  0.00     0.210 HD
ENDBRANCH  35  40
BRANCH  36  42
HETATM   42  O   UNK N   1      38.148  11.793  14.049  0.00  0.00    -0.390 OA
HETATM   43  H   UNK N   1      38.621  12.639  14.025  0.00  0.00     0.210 HD
ENDBRANCH  36  42
BRANCH  37  44
HETATM   44  O   UNK N   1      35.587  11.233  16.535  0.00  0.00    -0.390 OA
HETATM   45  H   UNK N   1      34.683  10.882  16.484  0.00  0.00     0.210 HD
ENDBRANCH  37  44
BRANCH  38  46
HETATM   46  C   UNK N   1      36.520  14.242  14.569  0.00  0.00     0.198 C 
BRANCH  46  47
HETATM   47  O   UNK N   1      37.602  14.418  15.436  0.00  0.00    -0.398 OA
HETATM   48  H   UNK N   1      37.611  13.972  16.297  0.00  0.00     0.209 HD
ENDBRANCH  46  47
ENDBRANCH  38  46
ENDBRANCH  33  34
ENDBRANCH   4  33
TORSDOF 19
ENDMDL
MODEL 2
REMARK VINA RESULT:      -6.5     11.331     16.430
REMARK  19 active torsions:
REMARK  status: ('A' for Active; 'I' for Inactive)
REMARK    1  A    between atoms: C_4  and  C_1 
REMARK    2  A    between atoms: O_22  and  C_1 
REMARK    3  A    between atoms: C_5  and  C_2 
REMARK    4  A    between atoms: O_23  and  C_2 
REMARK    5  A    between atoms: C_6  and  C_3 
REMARK    6  A    between atoms: O_24  and  C_3 
REMARK    7  A    between atoms: C_7  and  O_25 
REMARK    8  A    between atoms: C_8  and  O_26 
REMARK    9  A    between atoms: C_9  and  O_27 
REMARK   10  A    between atoms: C_10  and  O_28 
REMARK   11  A    between atoms: C_11  and  O_29 
REMARK   12  A    between atoms: C_12  and  O_30 
REMARK   13  A    between atoms: C_13  and  O_31 
REMARK   14  A    between atoms: C_14  and  O_35 
REMARK   15  A    between atoms: C_15  and  O_36 
REMARK   16  A    between atoms: N_21  and  C_16 
REMARK   17  A    between atoms: C_17  and  O_36 
REMARK   18  A    between atoms: C_18  and  O_35 
REMARK   19  A    between atoms: O_32  and  N_21 
ROOT
HETATM    1  C   UNK N   1      20.120  15.312   5.925  0.00  0.00     0.180 C 
HETATM    2  C   UNK N   1      22.359  16.480   6.048  0.00  0.00     0.183 C 
HETATM    3  C   UNK N   1      22.834  15.181   6.803  0.00  0.00     0.204 C 
HETATM    4  C   UNK N   1      21.203  16.049   5.120  0.00  0.00     0.187 C 
HETATM    5  C   UNK N   1      21.635  14.430   7.502  0.00  0.00     0.292 C 
HETATM    6  O   UNK N   1      20.446  15.130   7.298  0.00  0.00    -0.348 OA
ENDROOT
BRANCH   5   7
HETATM    7  O   UNK N   1      21.434  13.074   7.111  0.00  0.00    -0.348 OA
BRANCH   7   8
HETATM    8  C   UNK N   1      21.771  12.119   8.137  0.00  0.00     0.181 C 
HETATM    9  C   UNK N   1      23.152  11.319   8.012  0.00  0.00     0.138 C 
HETATM   10  N   UNK N   1      24.264  12.068   8.565  0.00  0.00    -0.367 N 
HETATM   11  C   UNK N   1      24.166  12.569   9.749  0.00  0.00     0.129 C 
ATOM     12  HN  UNK N   1      25.118  12.196   8.022  1.00  0.00     0.161 HD
HETATM   13  C   UNK N   1      22.842  12.462  10.490  0.00  0.00     0.218 C 
HETATM   14  C   UNK N   1      21.769  12.927   9.482  0.00  0.00     0.185 C 
BRANCH   9  15
HETATM   15  C   UNK N   1      23.525  10.640   6.703  0.00  0.00     0.191 C 
BRANCH  15  16
HETATM   16  O   UNK N   1      23.604  11.562   5.656  0.00  0.00    -0.399 OA
HETATM   17  H   UNK N   1      22.863  12.129   5.392  0.00  0.00     0.209 HD
ENDBRANCH  15  16
ENDBRANCH   9  15
BRANCH  11  18
HETATM   18  N   UNK N   1      25.239  13.298  10.317  0.00  0.00    -0.255 N 
HETATM   19  H   UNK N   1      25.685  14.000   9.789  0.00  0.00     0.195 HD
BRANCH  18  20
HETATM   20  O   UNK N   1      25.655  13.042  11.568  0.00  0.00    -0.288 OA
HETATM   21  H   UNK N   1      26.472  12.545  11.728  0.00  0.00     0.244 HD
ENDBRANCH  18  20
ENDBRANCH  11  18
BRANCH  13  22
HETATM   22  O   UNK N   1      22.603  11.144  10.890  0.00  0.00    -0.385 OA
HETATM   23  H   UNK N   1      22.103  10.382  11.224  0.00  0.00     0.210 HD
ENDBRANCH  13  22
BRANCH  14  24
HETATM   24  O   UNK N   1      20.495  12.934  10.053  0.00  0.00    -0.390 OA
HETATM   25  H   UNK N   1      20.381  12.747  10.999  0.00  0.00     0.210 HD
ENDBRANCH  14  24
ENDBRANCH   7   8
ENDBRANCH   5   7
BRANCH   3  26
HETATM   26  O   UNK N   1      23.480  14.314   5.914  0.00  0.00    -0.388 OA
HETATM   27  H   UNK N   1      24.125  13.757   5.450  0.00  0.00     0.210 HD
ENDBRANCH   3  26
BRANCH   2  28
HETATM   28  O   UNK N   1      21.927  17.434   6.974  0.00  0.00    -0.390 OA
HETATM   29  H   UNK N   1      21.920  18.205   7.562  0.00  0.00     0.210 HD
ENDBRANCH   2  28
BRANCH   1  30
HETATM   30  C   UNK N   1      19.585  14.075   5.167  0.00  0.00     0.198 C 
BRANCH  30  31
HETATM   31  O   UNK N   1      20.370  13.707   4.069  0.00  0.00    -0.398 OA
HETATM   32  H   UNK N   1      20.731  13.004   3.508  0.00  0.00     0.209 HD
ENDBRANCH  30  31
ENDBRANCH   1  30
BRANCH   4  33
HETATM   33  O   UNK N   1      20.675  16.914   4.116  0.00  0.00    -0.348 OA
BRANCH  33  34
HETATM   34  C   UNK N   1      21.345  17.013   2.860  0.00  0.00     0.292 C 
HETATM   35  C   UNK N   1      20.291  16.903   1.742  0.00  0.00     0.204 C 
HETATM   36  C   UNK N   1      19.361  18.130   1.772  0.00  0.00     0.183 C 
HETATM   37  C   UNK N   1      20.219  19.379   1.553  0.00  0.00     0.180 C 
HETATM   38  C   UNK N   1      21.373  19.437   2.573  0.00  0.00     0.179 C 
HETATM   39  O   UNK N   1      22.112  18.213   2.689  0.00  0.00    -0.348 OA
BRANCH  35  40
HETATM   40  O   UNK N   1      19.552  15.727   1.886  0.00  0.00    -0.388 OA
HETATM   41  H   UNK N   1      18.631  15.470   1.716  0.00  0.00     0.210 HD
ENDBRANCH  35  40
BRANCH  36  42
HETATM   42  O   UNK N   1      18.676  18.211   2.992  0.00  0.00    -0.390 OA
HETATM   43  H   UNK N   1      18.789  18.113   3.950  0.00  0.00     0.210 HD
ENDBRANCH  36  42
BRANCH  37  44
HETATM   44  O   UNK N   1      20.754  19.346   0.263  0.00  0.00    -0.390 OA
HETATM   45  H   UNK N   1      21.628  19.321  -0.157  0.00  0.00     0.210 HD
ENDBRANCH  37  44
BRANCH  38  46
HETATM   46  C   UNK N   1      20.906  19.967   3.921  0.00  0.00     0.198 C 
BRANCH  46  47
HETATM   47  O   UNK N   1      20.062  21.069   3.760  0.00  0.00    -0.398 OA
HETATM   48  H   UNK N   1      19.101  20.958   3.829  0.00  0.00     0.209 HD
ENDBRANCH  46  47
ENDBRANCH  38  46
ENDBRANCH  33  34
ENDBRANCH   4  33
TORSDOF 19
ENDMDL
MODEL 3
REMARK VINA RESULT:      -6.4      3.420      5.531
REMARK  19 active torsions:
REMARK  status: ('A' for Active; 'I' for Inactive)
REMARK    1  A    between atoms: C_4  and  C_1 
REMARK    2  A    between atoms: O_22  and  C_1 
REMARK    3  A    between atoms: C_5  and  C_2 
REMARK    4  A    between atoms: O_23  and  C_2 
REMARK    5  A    between atoms: C_6  and  C_3 
REMARK    6  A    between atoms: O_24  and  C_3 
REMARK    7  A    between atoms: C_7  and  O_25 
REMARK    8  A    between atoms: C_8  and  O_26 
REMARK    9  A    between atoms: C_9  and  O_27 
REMARK   10  A    between atoms: C_10  and  O_28 
REMARK   11  A    between atoms: C_11  and  O_29 
REMARK   12  A    between atoms: C_12  and  O_30 
REMARK   13  A    between atoms: C_13  and  O_31 
REMARK   14  A    between atoms: C_14  and  O_35 
REMARK   15  A    between atoms: C_15  and  O_36 
REMARK   16  A    between atoms: N_21  and  C_16 
REMARK   17  A    between atoms: C_17  and  O_36 
REMARK   18  A    between atoms: C_18  and  O_35 
REMARK   19  A    between atoms: O_32  and  N_21 
ROOT
HETATM    1  C   UNK N   1      32.945  15.602   7.096  0.00  0.00     0.180 C 
HETATM    2  C   UNK N   1      33.319  17.700   8.456  0.00  0.00     0.183 C 
HETATM    3  C   UNK N   1      31.801  17.996   8.150  0.00  0.00     0.204 C 
HETATM    4  C   UNK N   1      33.480  16.165   8.422  0.00  0.00     0.187 C 
HETATM    5  C   UNK N   1      31.313  17.282   6.830  0.00  0.00     0.292 C 
HETATM    6  O   UNK N   1      32.367  16.584   6.244  0.00  0.00    -0.348 OA
ENDROOT
BRANCH   5   7
HETATM    7  O   UNK N   1      30.207  16.395   6.974  0.00  0.00    -0.348 OA
BRANCH   7   8
HETATM    8  C   UNK N   1      29.115  16.678   6.075  0.00  0.00     0.181 C 
HETATM    9  C   UNK N   1      27.693  17.065   6.699  0.00  0.00     0.138 C 
HETATM   10  N   UNK N   1      27.601  18.479   7.003  0.00  0.00    -0.367 N 
HETATM   11  C   UNK N   1      27.922  19.345   6.103  0.00  0.00     0.129 C 
ATOM     12  HN  UNK N   1      27.283  18.788   7.923  1.00  0.00     0.161 HD
HETATM   13  C   UNK N   1      28.502  18.858   4.784  0.00  0.00     0.218 C 
HETATM   14  C   UNK N   1      29.612  17.857   5.167  0.00  0.00     0.185 C 
BRANCH   9  15
HETATM   15  C   UNK N   1      27.085  16.211   7.802  0.00  0.00     0.191 C 
BRANCH  15  16
HETATM   16  O   UNK N   1      27.254  16.802   9.056  0.00  0.00    -0.399 OA
HETATM   17  H   UNK N   1      27.233  16.301   9.886  0.00  0.00     0.209 HD
ENDBRANCH  15  16
ENDBRANCH   9  15
BRANCH  11  18
HETATM   18  N   UNK N   1      27.835  20.733   6.371  0.00  0.00    -0.255 N 
HETATM   19  H   UNK N   1      28.606  21.203   6.766  0.00  0.00     0.195 HD
BRANCH  18  20
HETATM   20  O   UNK N   1      26.713  21.415   6.091  0.00  0.00    -0.288 OA
HETATM   21  H   UNK N   1      26.725  22.155   5.464  0.00  0.00     0.244 HD
ENDBRANCH  18  20
ENDBRANCH  11  18
BRANCH  13  22
HETATM   22  O   UNK N   1      27.519  18.233   4.012  0.00  0.00    -0.385 OA
HETATM   23  H   UNK N   1      26.628  17.959   3.740  0.00  0.00     0.210 HD
ENDBRANCH  13  22
BRANCH  14  24
HETATM   24  O   UNK N   1      30.275  17.368   4.040  0.00  0.00    -0.390 OA
HETATM   25  H   UNK N   1      30.180  16.437   3.782  0.00  0.00     0.210 HD
ENDBRANCH  14  24
ENDBRANCH   7   8
ENDBRANCH   5   7
BRANCH   3  26
HETATM   26  O   UNK N   1      31.004  17.595   9.227  0.00  0.00    -0.388 OA
HETATM   27  H   UNK N   1      30.505  17.085   9.885  0.00  0.00     0.210 HD
ENDBRANCH   3  26
BRANCH   2  28
HETATM   28  O   UNK N   1      34.124  18.308   7.488  0.00  0.00    -0.390 OA
HETATM   29  H   UNK N   1      34.404  18.861   6.742  0.00  0.00     0.210 HD
ENDBRANCH   2  28
BRANCH   1  30
HETATM   30  C   UNK N   1      32.133  14.303   7.311  0.00  0.00     0.198 C 
BRANCH  30  31
HETATM   31  O   UNK N   1      32.259  13.770   8.598  0.00  0.00    -0.398 OA
HETATM   32  H   UNK N   1      31.895  13.211   9.301  0.00  0.00     0.209 HD
ENDBRANCH  30  31
ENDBRANCH   1  30
BRANCH   4  33
HETATM   33  O   UNK N   1      34.668  15.519   8.877  0.00  0.00    -0.348 OA
BRANCH  33  34
HETATM   34  C   UNK N   1      35.214  15.878  10.145  0.00  0.00     0.292 C 
HETATM   35  C   UNK N   1      34.631  14.928  11.207  0.00  0.00     0.204 C 
HETATM   36  C   UNK N   1      35.140  13.494  10.968  0.00  0.00     0.183 C 
HETATM   37  C   UNK N   1      36.667  13.511  11.073  0.00  0.00     0.180 C 
HETATM   38  C   UNK N   1      37.270  14.561  10.120  0.00  0.00     0.179 C 
HETATM   39  O   UNK N   1      36.648  15.851  10.203  0.00  0.00    -0.348 OA
BRANCH  35  40
HETATM   40  O   UNK N   1      33.235  14.961  11.175  0.00  0.00    -0.388 OA
HETATM   41  H   UNK N   1      32.552  14.574  10.604  0.00  0.00     0.210 HD
ENDBRANCH  35  40
BRANCH  36  42
HETATM   42  O   UNK N   1      34.737  13.021   9.712  0.00  0.00    -0.390 OA
HETATM   43  H   UNK N   1      34.509  12.212   9.229  0.00  0.00     0.210 HD
ENDBRANCH  36  42
BRANCH  37  44
HETATM   44  O   UNK N   1      37.032  13.825  12.385  0.00  0.00    -0.390 OA
HETATM   45  H   UNK N   1      37.826  14.107  12.866  0.00  0.00     0.210 HD
ENDBRANCH  37  44
BRANCH  38  46
HETATM   46  C   UNK N   1      37.351  14.043   8.692  0.00  0.00     0.198 C 
BRANCH  46  47
HETATM   47  O   UNK N   1      37.571  12.663   8.671  0.00  0.00    -0.398 OA
HETATM   48  H   UNK N   1      36.892  12.058   9.008  0.00  0.00     0.209 HD
ENDBRANCH  46  47
ENDBRANCH  38  46
ENDBRANCH  33  34
ENDBRANCH   4  33
TORSDOF 19
ENDMDL
MODEL 4
REMARK VINA RESULT:      -6.4      3.504      5.884
REMARK  19 active torsions:
REMARK  status: ('A' for Active; 'I' for Inactive)
REMARK    1  A    between atoms: C_4  and  C_1 
REMARK    2  A    between atoms: O_22  and  C_1 
REMARK    3  A    between atoms: C_5  and  C_2 
REMARK    4  A    between atoms: O_23  and  C_2 
REMARK    5  A    between atoms: C_6  and  C_3 
REMARK    6  A    between atoms: O_24  and  C_3 
REMARK    7  A    between atoms: C_7  and  O_25 
REMARK    8  A    between atoms: C_8  and  O_26 
REMARK    9  A    between atoms: C_9  and  O_27 
REMARK   10  A    between atoms: C_10  and  O_28 
REMARK   11  A    between atoms: C_11  and  O_29 
REMARK   12  A    between atoms: C_12  and  O_30 
REMARK   13  A    between atoms: C_13  and  O_31 
REMARK   14  A    between atoms: C_14  and  O_35 
REMARK   15  A    between atoms: C_15  and  O_36 
REMARK   16  A    between atoms: N_21  and  C_16 
REMARK   17  A    between atoms: C_17  and  O_36 
REMARK   18  A    between atoms: C_18  and  O_35 
REMARK   19  A    between atoms: O_32  and  N_21 
ROOT
HETATM    1  C   UNK N   1      33.320  15.476   7.095  0.00  0.00     0.180 C 
HETATM    2  C   UNK N   1      33.735  17.607   8.391  0.00  0.00     0.183 C 
HETATM    3  C   UNK N   1      32.255  17.970   7.990  0.00  0.00     0.204 C 
HETATM    4  C   UNK N   1      33.813  16.066   8.426  0.00  0.00     0.187 C 
HETATM    5  C   UNK N   1      31.799  17.229   6.674  0.00  0.00     0.292 C 
HETATM    6  O   UNK N   1      32.843  16.451   6.175  0.00  0.00    -0.348 OA
ENDROOT
BRANCH   5   7
HETATM    7  O   UNK N   1      30.639  16.408   6.791  0.00  0.00    -0.348 OA
BRANCH   7   8
HETATM    8  C   UNK N   1      29.466  16.970   6.169  0.00  0.00     0.181 C 
HETATM    9  C   UNK N   1      28.896  16.273   4.846  0.00  0.00     0.138 C 
HETATM   10  N   UNK N   1      28.010  15.167   5.153  0.00  0.00    -0.367 N 
HETATM   11  C   UNK N   1      27.048  15.339   5.994  0.00  0.00     0.129 C 
ATOM     12  HN  UNK N   1      28.147  14.260   4.707  1.00  0.00     0.161 HD
HETATM   13  C   UNK N   1      26.938  16.665   6.730  0.00  0.00     0.218 C 
HETATM   14  C   UNK N   1      28.352  16.951   7.275  0.00  0.00     0.185 C 
BRANCH   9  15
HETATM   15  C   UNK N   1      29.833  15.941   3.694  0.00  0.00     0.191 C 
BRANCH  15  16
HETATM   16  O   UNK N   1      30.888  15.127   4.114  0.00  0.00    -0.399 OA
HETATM   17  H   UNK N   1      31.135  14.305   3.664  0.00  0.00     0.209 HD
ENDBRANCH  15  16
ENDBRANCH   9  15
BRANCH  11  18
HETATM   18  N   UNK N   1      26.163  14.278   6.307  0.00  0.00    -0.255 N 
HETATM   19  H   UNK N   1      25.976  13.584   5.634  0.00  0.00     0.195 HD
BRANCH  18  20
HETATM   20  O   UNK N   1      25.576  14.209   7.513  0.00  0.00    -0.288 OA
HETATM   21  H   UNK N   1      26.016  13.764   8.254  0.00  0.00     0.244 HD
ENDBRANCH  18  20
ENDBRANCH  11  18
BRANCH  13  22
HETATM   22  O   UNK N   1      26.530  17.681   5.861  0.00  0.00    -0.385 OA
HETATM   23  H   UNK N   1      26.556  18.535   5.400  0.00  0.00     0.210 HD
ENDBRANCH  13  22
BRANCH  14  24
HETATM   24  O   UNK N   1      28.386  18.125   8.030  0.00  0.00    -0.390 OA
HETATM   25  H   UNK N   1      28.048  18.132   8.939  0.00  0.00     0.210 HD
ENDBRANCH  14  24
ENDBRANCH   7   8
ENDBRANCH   5   7
BRANCH   3  26
HETATM   26  O   UNK N   1      31.381  17.656   9.037  0.00  0.00    -0.388 OA
HETATM   27  H   UNK N   1      30.952  17.555   9.901  0.00  0.00     0.210 HD
ENDBRANCH   3  26
BRANCH   2  28
HETATM   28  O   UNK N   1      34.624  18.130   7.446  0.00  0.00    -0.390 OA
HETATM   29  H   UNK N   1      35.411  18.247   6.893  0.00  0.00     0.210 HD
ENDBRANCH   2  28
BRANCH   1  30
HETATM   30  C   UNK N   1      32.427  14.233   7.315  0.00  0.00     0.198 C 
BRANCH  30  31
HETATM   31  O   UNK N   1      32.374  13.809   8.646  0.00  0.00    -0.398 OA
HETATM   32  H   UNK N   1      32.042  13.175   9.301  0.00  0.00     0.209 HD
ENDBRANCH  30  31
ENDBRANCH   1  30
BRANCH   4  33
HETATM   33  O   UNK N   1      34.938  15.376   8.970  0.00  0.00    -0.348 OA
BRANCH  33  34
HETATM   34  C   UNK N   1      35.433  15.756  10.254  0.00  0.00     0.292 C 
HETATM   35  C   UNK N   1      34.770  14.853  11.311  0.00  0.00     0.204 C 
HETATM   36  C   UNK N   1      35.249  13.399  11.136  0.00  0.00     0.183 C 
HETATM   37  C   UNK N   1      36.769  13.377  11.315  0.00  0.00     0.180 C 
HETATM   38  C   UNK N   1      37.447  14.382  10.366  0.00  0.00     0.179 C 
HETATM   39  O   UNK N   1      36.860  15.691  10.383  0.00  0.00    -0.348 OA
BRANCH  35  40
HETATM   40  O   UNK N   1      33.380  14.924  11.209  0.00  0.00    -0.388 OA
HETATM   41  H   UNK N   1      32.697  14.408  10.750  0.00  0.00     0.210 HD
ENDBRANCH  35  40
BRANCH  36  42
HETATM   42  O   UNK N   1      34.894  12.902   9.875  0.00  0.00    -0.390 OA
HETATM   43  H   UNK N   1      34.319  13.069   9.113  0.00  0.00     0.210 HD
ENDBRANCH  36  42
BRANCH  37  44
HETATM   44  O   UNK N   1      37.079  13.717  12.635  0.00  0.00    -0.390 OA
HETATM   45  H   UNK N   1      37.395  14.491  13.126  0.00  0.00     0.210 HD
ENDBRANCH  37  44
BRANCH  38  46
HETATM   46  C   UNK N   1      37.583  13.822   8.957  0.00  0.00     0.198 C 
BRANCH  46  47
HETATM   47  O   UNK N   1      37.781  12.439   8.985  0.00  0.00    -0.398 OA
HETATM   48  H   UNK N   1      38.608  12.060   8.649  0.00  0.00     0.209 HD
ENDBRANCH  46  47
ENDBRANCH  38  46
ENDBRANCH  33  34
ENDBRANCH   4  33
TORSDOF 19
ENDMDL
MODEL 5
REMARK VINA RESULT:      -6.4      3.170      4.908
REMARK  19 active torsions:
REMARK  status: ('A' for Active; 'I' for Inactive)
REMARK    1  A    between atoms: C_4  and  C_1 
REMARK    2  A    between atoms: O_22  and  C_1 
REMARK    3  A    between atoms: C_5  and  C_2 
REMARK    4  A    between atoms: O_23  and  C_2 
REMARK    5  A    between atoms: C_6  and  C_3 
REMARK    6  A    between atoms: O_24  and  C_3 
REMARK    7  A    between atoms: C_7  and  O_25 
REMARK    8  A    between atoms: C_8  and  O_26 
REMARK    9  A    between atoms: C_9  and  O_27 
REMARK   10  A    between atoms: C_10  and  O_28 
REMARK   11  A    between atoms: C_11  and  O_29 
REMARK   12  A    between atoms: C_12  and  O_30 
REMARK   13  A    between atoms: C_13  and  O_31 
REMARK   14  A    between atoms: C_14  and  O_35 
REMARK   15  A    between atoms: C_15  and  O_36 
REMARK   16  A    between atoms: N_21  and  C_16 
REMARK   17  A    between atoms: C_17  and  O_36 
REMARK   18  A    between atoms: C_18  and  O_35 
REMARK   19  A    between atoms: O_32  and  N_21 
ROOT
HETATM    1  C   UNK N   1      32.991  15.135   8.373  0.00  0.00     0.180 C 
HETATM    2  C   UNK N   1      34.707  16.787   7.524  0.00  0.00     0.183 C 
HETATM    3  C   UNK N   1      33.457  17.628   7.061  0.00  0.00     0.204 C 
HETATM    4  C   UNK N   1      34.244  15.948   8.734  0.00  0.00     0.187 C 
HETATM    5  C   UNK N   1      32.187  16.722   6.824  0.00  0.00     0.292 C 
HETATM    6  O   UNK N   1      32.502  15.384   7.060  0.00  0.00    -0.348 OA
ENDROOT
BRANCH   5   7
HETATM    7  O   UNK N   1      31.031  17.056   7.589  0.00  0.00    -0.348 OA
BRANCH   7   8
HETATM    8  C   UNK N   1      29.789  16.702   6.947  0.00  0.00     0.181 C 
HETATM    9  C   UNK N   1      28.431  17.330   7.514  0.00  0.00     0.138 C 
HETATM   10  N   UNK N   1      28.165  18.641   6.955  0.00  0.00    -0.367 N 
HETATM   11  C   UNK N   1      28.211  18.807   5.677  0.00  0.00     0.129 C 
ATOM     12  HN  UNK N   1      27.940  19.426   7.567  1.00  0.00     0.161 HD
HETATM   13  C   UNK N   1      28.660  17.652   4.797  0.00  0.00     0.218 C 
HETATM   14  C   UNK N   1      29.957  17.122   5.444  0.00  0.00     0.185 C 
BRANCH   9  15
HETATM   15  C   UNK N   1      28.132  17.283   9.005  0.00  0.00     0.191 C 
BRANCH  15  16
HETATM   16  O   UNK N   1      27.384  18.391   9.410  0.00  0.00    -0.399 OA
HETATM   17  H   UNK N   1      26.600  18.323   9.977  0.00  0.00     0.209 HD
ENDBRANCH  15  16
ENDBRANCH   9  15
BRANCH  11  18
HETATM   18  N   UNK N   1      27.948  20.075   5.103  0.00  0.00    -0.255 N 
HETATM   19  H   UNK N   1      27.914  20.169   4.123  0.00  0.00     0.195 HD
BRANCH  18  20
HETATM   20  O   UNK N   1      27.744  21.151   5.881  0.00  0.00    -0.288 OA
HETATM   21  H   UNK N   1      27.210  21.897   5.566  0.00  0.00     0.244 HD
ENDBRANCH  18  20
ENDBRANCH  11  18
BRANCH  13  22
HETATM   22  O   UNK N   1      27.684  16.651   4.758  0.00  0.00    -0.385 OA
HETATM   23  H   UNK N   1      27.221  15.859   4.443  0.00  0.00     0.210 HD
ENDBRANCH  13  22
BRANCH  14  24
HETATM   24  O   UNK N   1      30.517  16.082   4.700  0.00  0.00    -0.390 OA
HETATM   25  H   UNK N   1      29.945  15.455   4.228  0.00  0.00     0.210 HD
ENDBRANCH  14  24
ENDBRANCH   7   8
ENDBRANCH   5   7
BRANCH   3  26
HETATM   26  O   UNK N   1      33.162  18.616   8.007  0.00  0.00    -0.388 OA
HETATM   27  H   UNK N   1      33.178  19.225   8.763  0.00  0.00     0.210 HD
ENDBRANCH   3  26
BRANCH   2  28
HETATM   28  O   UNK N   1      35.136  15.962   6.479  0.00  0.00    -0.390 OA
HETATM   29  H   UNK N   1      35.632  15.634   5.713  0.00  0.00     0.210 HD
ENDBRANCH   2  28
BRANCH   1  30
HETATM   30  C   UNK N   1      31.950  15.148   9.516  0.00  0.00     0.198 C 
BRANCH  30  31
HETATM   31  O   UNK N   1      32.517  15.070  10.792  0.00  0.00    -0.398 OA
HETATM   32  H   UNK N   1      33.249  15.294  11.388  0.00  0.00     0.209 HD
ENDBRANCH  30  31
ENDBRANCH   1  30
BRANCH   4  33
HETATM   33  O   UNK N   1      35.166  15.235   9.558  0.00  0.00    -0.348 OA
BRANCH  33  34
HETATM   34  C   UNK N   1      35.258  13.816   9.433  0.00  0.00     0.292 C 
HETATM   35  C   UNK N   1      36.690  13.463   8.991  0.00  0.00     0.204 C 
HETATM   36  C   UNK N   1      37.688  13.809  10.112  0.00  0.00     0.183 C 
HETATM   37  C   UNK N   1      37.311  12.989  11.349  0.00  0.00     0.180 C 
HETATM   38  C   UNK N   1      35.835  13.215  11.727  0.00  0.00     0.179 C 
HETATM   39  O   UNK N   1      34.924  13.093  10.626  0.00  0.00    -0.348 OA
BRANCH  35  40
HETATM   40  O   UNK N   1      37.019  14.146   7.818  0.00  0.00    -0.388 OA
HETATM   41  H   UNK N   1      36.572  14.797   7.253  0.00  0.00     0.210 HD
ENDBRANCH  35  40
BRANCH  36  42
HETATM   42  O   UNK N   1      37.662  15.180  10.403  0.00  0.00    -0.390 OA
HETATM   43  H   UNK N   1      38.227  15.928  10.649  0.00  0.00     0.210 HD
ENDBRANCH  36  42
BRANCH  37  44
HETATM   44  O   UNK N   1      37.509  11.633  11.077  0.00  0.00    -0.390 OA
HETATM   45  H   UNK N   1      37.111  10.782  11.319  0.00  0.00     0.210 HD
ENDBRANCH  37  44
BRANCH  38  46
HETATM   46  C   UNK N   1      35.644  14.512  12.501  0.00  0.00     0.198 C 
BRANCH  46  47
HETATM   47  O   UNK N   1      36.745  14.772  13.320  0.00  0.00    -0.398 OA
HETATM   48  H   UNK N   1      36.731  15.530  13.926  0.00  0.00     0.209 HD
ENDBRANCH  46  47
ENDBRANCH  38  46
ENDBRANCH  33  34
ENDBRANCH   4  33
TORSDOF 19
ENDMDL
MODEL 6
REMARK VINA RESULT:      -6.4      2.084      3.291
REMARK  19 active torsions:
REMARK  status: ('A' for Active; 'I' for Inactive)
REMARK    1  A    between atoms: C_4  and  C_1 
REMARK    2  A    between atoms: O_22  and  C_1 
REMARK    3  A    between atoms: C_5  and  C_2 
REMARK    4  A    between atoms: O_23  and  C_2 
REMARK    5  A    between atoms: C_6  and  C_3 
REMARK    6  A    between atoms: O_24  and  C_3 
REMARK    7  A    between atoms: C_7  and  O_25 
REMARK    8  A    between atoms: C_8  and  O_26 
REMARK    9  A    between atoms: C_9  and  O_27 
REMARK   10  A    between atoms: C_10  and  O_28 
REMARK   11  A    between atoms: C_11  and  O_29 
REMARK   12  A    between atoms: C_12  and  O_30 
REMARK   13  A    between atoms: C_13  and  O_31 
REMARK   14  A    between atoms: C_14  and  O_35 
REMARK   15  A    between atoms: C_15  and  O_36 
REMARK   16  A    between atoms: N_21  and  C_16 
REMARK   17  A    between atoms: C_17  and  O_36 
REMARK   18  A    between atoms: C_18  and  O_35 
REMARK   19  A    between atoms: O_32  and  N_21 
ROOT
HETATM    1  C   UNK N   1      35.219  13.707   9.712  0.00  0.00     0.180 C 
HETATM    2  C   UNK N   1      35.340  15.922  10.926  0.00  0.00     0.183 C 
HETATM    3  C   UNK N   1      34.709  16.515   9.609  0.00  0.00     0.204 C 
HETATM    4  C   UNK N   1      34.873  14.453  11.011  0.00  0.00     0.187 C 
HETATM    5  C   UNK N   1      35.021  15.620   8.347  0.00  0.00     0.292 C 
HETATM    6  O   UNK N   1      35.811  14.531   8.714  0.00  0.00    -0.348 OA
ENDROOT
BRANCH   5   7
HETATM    7  O   UNK N   1      33.888  15.136   7.631  0.00  0.00    -0.348 OA
BRANCH   7   8
HETATM    8  C   UNK N   1      33.857  15.547   6.249  0.00  0.00     0.181 C 
HETATM    9  C   UNK N   1      32.941  14.721   5.228  0.00  0.00     0.138 C 
HETATM   10  N   UNK N   1      31.568  15.187   5.233  0.00  0.00    -0.367 N 
HETATM   11  C   UNK N   1      31.323  16.446   5.104  0.00  0.00     0.129 C 
ATOM     12  HN  UNK N   1      30.800  14.522   5.337  1.00  0.00     0.161 HD
HETATM   13  C   UNK N   1      32.487  17.425   5.067  0.00  0.00     0.218 C 
HETATM   14  C   UNK N   1      33.383  17.043   6.264  0.00  0.00     0.185 C 
BRANCH   9  15
HETATM   15  C   UNK N   1      33.021  13.203   5.187  0.00  0.00     0.191 C 
BRANCH  15  16
HETATM   16  O   UNK N   1      32.486  12.633   6.345  0.00  0.00    -0.399 OA
HETATM   17  H   UNK N   1      32.549  13.049   7.218  0.00  0.00     0.209 HD
ENDBRANCH  15  16
ENDBRANCH   9  15
BRANCH  11  18
HETATM   18  N   UNK N   1      29.991  16.928   5.098  0.00  0.00    -0.255 N 
HETATM   19  H   UNK N   1      29.410  16.763   5.877  0.00  0.00     0.195 HD
BRANCH  18  20
HETATM   20  O   UNK N   1      29.513  17.606   4.043  0.00  0.00    -0.288 OA
HETATM   21  H   UNK N   1      28.710  17.310   3.585  0.00  0.00     0.244 HD
ENDBRANCH  18  20
ENDBRANCH  11  18
BRANCH  13  22
HETATM   22  O   UNK N   1      33.193  17.309   3.866  0.00  0.00    -0.385 OA
HETATM   23  H   UNK N   1      33.939  17.388   3.251  0.00  0.00     0.210 HD
ENDBRANCH  13  22
BRANCH  14  24
HETATM   24  O   UNK N   1      34.474  17.905   6.387  0.00  0.00    -0.390 OA
HETATM   25  H   UNK N   1      34.334  18.860   6.486  0.00  0.00     0.210 HD
ENDBRANCH  14  24
ENDBRANCH   7   8
ENDBRANCH   5   7
BRANCH   3  26
HETATM   26  O   UNK N   1      33.325  16.656   9.758  0.00  0.00    -0.388 OA
HETATM   27  H   UNK N   1      32.430  16.989   9.929  0.00  0.00     0.210 HD
ENDBRANCH   3  26
BRANCH   2  28
HETATM   28  O   UNK N   1      36.735  15.999  10.859  0.00  0.00    -0.390 OA
HETATM   29  H   UNK N   1      37.641  15.966  10.514  0.00  0.00     0.210 HD
ENDBRANCH   2  28
BRANCH   1  30
HETATM   30  C   UNK N   1      34.064  12.785   9.256  0.00  0.00     0.198 C 
BRANCH  30  31
HETATM   31  O   UNK N   1      32.798  13.362   9.395  0.00  0.00    -0.398 OA
HETATM   32  H   UNK N   1      32.260  14.160   9.515  0.00  0.00     0.209 HD
ENDBRANCH  30  31
ENDBRANCH   1  30
BRANCH   4  33
HETATM   33  O   UNK N   1      35.063  13.665  12.186  0.00  0.00    -0.348 OA
BRANCH  33  34
HETATM   34  C   UNK N   1      36.342  13.085  12.436  0.00  0.00     0.292 C 
HETATM   35  C   UNK N   1      36.811  13.537  13.832  0.00  0.00     0.204 C 
HETATM   36  C   UNK N   1      35.901  12.929  14.916  0.00  0.00     0.183 C 
HETATM   37  C   UNK N   1      35.991  11.405  14.808  0.00  0.00     0.180 C 
HETATM   38  C   UNK N   1      35.667  10.936  13.377  0.00  0.00     0.179 C 
HETATM   39  O   UNK N   1      36.370  11.653  12.353  0.00  0.00    -0.348 OA
BRANCH  35  40
HETATM   40  O   UNK N   1      36.807  14.931  13.918  0.00  0.00    -0.388 OA
HETATM   41  H   UNK N   1      37.270  15.649  13.457  0.00  0.00     0.210 HD
ENDBRANCH  35  40
BRANCH  36  42
HETATM   42  O   UNK N   1      34.576  13.357  14.757  0.00  0.00    -0.390 OA
HETATM   43  H   UNK N   1      33.670  13.192  15.060  0.00  0.00     0.210 HD
ENDBRANCH  36  42
BRANCH  37  44
HETATM   44  O   UNK N   1      37.288  10.999  15.137  0.00  0.00    -0.390 OA
HETATM   45  H   UNK N   1      37.726  10.460  15.813  0.00  0.00     0.210 HD
ENDBRANCH  37  44
BRANCH  38  46
HETATM   46  C   UNK N   1      34.166  10.887  13.129  0.00  0.00     0.198 C 
BRANCH  46  47
HETATM   47  O   UNK N   1      33.472  10.603  14.308  0.00  0.00    -0.398 OA
HETATM   48  H   UNK N   1      33.898  10.083  15.008  0.00  0.00     0.209 HD
ENDBRANCH  46  47
ENDBRANCH  38  46
ENDBRANCH  33  34
ENDBRANCH   4  33
TORSDOF 19
ENDMDL
MODEL 7
REMARK VINA RESULT:      -6.3      3.176      5.099
REMARK  19 active torsions:
REMARK  status: ('A' for Active; 'I' for Inactive)
REMARK    1  A    between atoms: C_4  and  C_1 
REMARK    2  A    between atoms: O_22  and  C_1 
REMARK    3  A    between atoms: C_5  and  C_2 
REMARK    4  A    between atoms: O_23  and  C_2 
REMARK    5  A    between atoms: C_6  and  C_3 
REMARK    6  A    between atoms: O_24  and  C_3 
REMARK    7  A    between atoms: C_7  and  O_25 
REMARK    8  A    between atoms: C_8  and  O_26 
REMARK    9  A    between atoms: C_9  and  O_27 
REMARK   10  A    between atoms: C_10  and  O_28 
REMARK   11  A    between atoms: C_11  and  O_29 
REMARK   12  A    between atoms: C_12  and  O_30 
REMARK   13  A    between atoms: C_13  and  O_31 
REMARK   14  A    between atoms: C_14  and  O_35 
REMARK   15  A    between atoms: C_15  and  O_36 
REMARK   16  A    between atoms: N_21  and  C_16 
REMARK   17  A    between atoms: C_17  and  O_36 
REMARK   18  A    between atoms: C_18  and  O_35 
REMARK   19  A    between atoms: O_32  and  N_21 
ROOT
HETATM    1  C   UNK N   1      33.399  15.270   7.326  0.00  0.00     0.180 C 
HETATM    2  C   UNK N   1      33.722  17.547   8.376  0.00  0.00     0.183 C 
HETATM    3  C   UNK N   1      32.204  17.769   8.018  0.00  0.00     0.204 C 
HETATM    4  C   UNK N   1      33.909  16.026   8.563  0.00  0.00     0.187 C 
HETATM    5  C   UNK N   1      31.742  16.866   6.809  0.00  0.00     0.292 C 
HETATM    6  O   UNK N   1      32.814  16.110   6.338  0.00  0.00    -0.348 OA
ENDROOT
BRANCH   5   7
HETATM    7  O   UNK N   1      30.649  15.988   7.069  0.00  0.00    -0.348 OA
BRANCH   7   8
HETATM    8  C   UNK N   1      29.753  15.831   5.950  0.00  0.00     0.181 C 
HETATM    9  C   UNK N   1      29.275  17.142   5.166  0.00  0.00     0.138 C 
HETATM   10  N   UNK N   1      30.225  17.542   4.146  0.00  0.00    -0.367 N 
HETATM   11  C   UNK N   1      30.651  16.669   3.299  0.00  0.00     0.129 C 
ATOM     12  HN  UNK N   1      30.552  18.507   4.099  1.00  0.00     0.161 HD
HETATM   13  C   UNK N   1      30.236  15.215   3.463  0.00  0.00     0.218 C 
HETATM   14  C   UNK N   1      30.494  14.879   4.946  0.00  0.00     0.185 C 
BRANCH   9  15
HETATM   15  C   UNK N   1      28.737  18.339   5.936  0.00  0.00     0.191 C 
BRANCH  15  16
HETATM   16  O   UNK N   1      28.731  18.097   7.312  0.00  0.00    -0.399 OA
HETATM   17  H   UNK N   1      28.081  17.523   7.747  0.00  0.00     0.209 HD
ENDBRANCH  15  16
ENDBRANCH   9  15
BRANCH  11  18
HETATM   18  N   UNK N   1      31.574  17.034   2.288  0.00  0.00    -0.255 N 
HETATM   19  H   UNK N   1      31.268  17.564   1.516  0.00  0.00     0.195 HD
BRANCH  18  20
HETATM   20  O   UNK N   1      32.862  16.663   2.370  0.00  0.00    -0.288 OA
HETATM   21  H   UNK N   1      33.242  16.371   3.214  0.00  0.00     0.244 HD
ENDBRANCH  18  20
ENDBRANCH  11  18
BRANCH  13  22
HETATM   22  O   UNK N   1      28.885  15.047   3.147  0.00  0.00    -0.385 OA
HETATM   23  H   UNK N   1      28.055  15.164   2.659  0.00  0.00     0.210 HD
ENDBRANCH  13  22
BRANCH  14  24
HETATM   24  O   UNK N   1      30.207  13.543   5.229  0.00  0.00    -0.390 OA
HETATM   25  H   UNK N   1      30.256  13.214   6.142  0.00  0.00     0.210 HD
ENDBRANCH  14  24
ENDBRANCH   7   8
ENDBRANCH   5   7
BRANCH   3  26
HETATM   26  O   UNK N   1      31.401  17.511   9.135  0.00  0.00    -0.388 OA
HETATM   27  H   UNK N   1      30.778  17.574   9.875  0.00  0.00     0.210 HD
ENDBRANCH   3  26
BRANCH   2  28
HETATM   28  O   UNK N   1      34.529  18.025   7.338  0.00  0.00    -0.390 OA
HETATM   29  H   UNK N   1      34.958  18.630   6.714  0.00  0.00     0.210 HD
ENDBRANCH   2  28
BRANCH   1  30
HETATM   30  C   UNK N   1      32.606  14.001   7.717  0.00  0.00     0.198 C 
BRANCH  30  31
HETATM   31  O   UNK N   1      32.227  13.969   9.063  0.00  0.00    -0.398 OA
HETATM   32  H   UNK N   1      32.153  14.429   9.913  0.00  0.00     0.209 HD
ENDBRANCH  30  31
ENDBRANCH   1  30
BRANCH   4  33
HETATM   33  O   UNK N   1      35.103  15.472   9.116  0.00  0.00    -0.348 OA
BRANCH  33  34
HETATM   34  C   UNK N   1      35.512  15.867  10.424  0.00  0.00     0.292 C 
HETATM   35  C   UNK N   1      34.799  14.961  11.445  0.00  0.00     0.204 C 
HETATM   36  C   UNK N   1      35.307  13.513  11.310  0.00  0.00     0.183 C 
HETATM   37  C   UNK N   1      36.814  13.513  11.582  0.00  0.00     0.180 C 
HETATM   38  C   UNK N   1      37.535  14.523  10.669  0.00  0.00     0.179 C 
HETATM   39  O   UNK N   1      36.930  15.823  10.641  0.00  0.00    -0.348 OA
BRANCH  35  40
HETATM   40  O   UNK N   1      33.417  15.011  11.258  0.00  0.00    -0.388 OA
HETATM   41  H   UNK N   1      32.664  15.341  11.775  0.00  0.00     0.210 HD
ENDBRANCH  35  40
BRANCH  36  42
HETATM   42  O   UNK N   1      35.038  13.003  10.033  0.00  0.00    -0.390 OA
HETATM   43  H   UNK N   1      34.428  13.080   9.283  0.00  0.00     0.210 HD
ENDBRANCH  36  42
BRANCH  37  44
HETATM   44  O   UNK N   1      37.038  13.866  12.916  0.00  0.00    -0.390 OA
HETATM   45  H   UNK N   1      36.517  14.133  13.689  0.00  0.00     0.210 HD
ENDBRANCH  37  44
BRANCH  38  46
HETATM   46  C   UNK N   1      37.765  13.956   9.275  0.00  0.00     0.198 C 
BRANCH  46  47
HETATM   47  O   UNK N   1      37.964  12.574   9.323  0.00  0.00    -0.398 OA
HETATM   48  H   UNK N   1      38.076  12.071   8.501  0.00  0.00     0.209 HD
ENDBRANCH  46  47
ENDBRANCH  38  46
ENDBRANCH  33  34
ENDBRANCH   4  33
TORSDOF 19
ENDMDL
MODEL 8
REMARK VINA RESULT:      -6.2      3.656      5.983
REMARK  19 active torsions:
REMARK  status: ('A' for Active; 'I' for Inactive)
REMARK    1  A    between atoms: C_4  and  C_1 
REMARK    2  A    between atoms: O_22  and  C_1 
REMARK    3  A    between atoms: C_5  and  C_2 
REMARK    4  A    between atoms: O_23  and  C_2 
REMARK    5  A    between atoms: C_6  and  C_3 
REMARK    6  A    between atoms: O_24  and  C_3 
REMARK    7  A    between atoms: C_7  and  O_25 
REMARK    8  A    between atoms: C_8  and  O_26 
REMARK    9  A    between atoms: C_9  and  O_27 
REMARK   10  A    between atoms: C_10  and  O_28 
REMARK   11  A    between atoms: C_11  and  O_29 
REMARK   12  A    between atoms: C_12  and  O_30 
REMARK   13  A    between atoms: C_13  and  O_31 
REMARK   14  A    between atoms: C_14  and  O_35 
REMARK   15  A    between atoms: C_15  and  O_36 
REMARK   16  A    between atoms: N_21  and  C_16 
REMARK   17  A    between atoms: C_17  and  O_36 
REMARK   18  A    between atoms: C_18  and  O_35 
REMARK   19  A    between atoms: O_32  and  N_21 
ROOT
HETATM    1  C   UNK N   1      31.943  15.496   7.996  0.00  0.00     0.180 C 
HETATM    2  C   UNK N   1      34.075  15.653   6.646  0.00  0.00     0.183 C 
HETATM    3  C   UNK N   1      33.240  16.602   5.705  0.00  0.00     0.204 C 
HETATM    4  C   UNK N   1      33.453  15.776   8.054  0.00  0.00     0.187 C 
HETATM    5  C   UNK N   1      31.691  16.318   5.800  0.00  0.00     0.292 C 
HETATM    6  O   UNK N   1      31.449  15.265   6.682  0.00  0.00    -0.348 OA
ENDROOT
BRANCH   5   7
HETATM    7  O   UNK N   1      30.876  17.423   6.182  0.00  0.00    -0.348 OA
BRANCH   7   8
HETATM    8  C   UNK N   1      29.461  17.168   6.065  0.00  0.00     0.181 C 
HETATM    9  C   UNK N   1      28.440  18.250   6.656  0.00  0.00     0.138 C 
HETATM   10  N   UNK N   1      28.166  19.313   5.708  0.00  0.00    -0.367 N 
HETATM   11  C   UNK N   1      27.822  19.015   4.502  0.00  0.00     0.129 C 
ATOM     12  HN  UNK N   1      28.244  20.289   5.994  1.00  0.00     0.161 HD
HETATM   13  C   UNK N   1      27.826  17.556   4.071  0.00  0.00     0.218 C 
HETATM   14  C   UNK N   1      29.189  16.996   4.529  0.00  0.00     0.185 C 
BRANCH   9  15
HETATM   15  C   UNK N   1      28.629  18.788   8.066  0.00  0.00     0.191 C 
BRANCH  15  16
HETATM   16  O   UNK N   1      27.532  18.485   8.877  0.00  0.00    -0.399 OA
HETATM   17  H   UNK N   1      27.129  19.125   9.484  0.00  0.00     0.209 HD
ENDBRANCH  15  16
ENDBRANCH   9  15
BRANCH  11  18
HETATM   18  N   UNK N   1      27.542  20.033   3.557  0.00  0.00    -0.255 N 
HETATM   19  H   UNK N   1      28.274  20.601   3.222  0.00  0.00     0.195 HD
BRANCH  18  20
HETATM   20  O   UNK N   1      26.290  20.230   3.114  0.00  0.00    -0.288 OA
HETATM   21  H   UNK N   1      25.854  21.089   3.225  0.00  0.00     0.244 HD
ENDBRANCH  18  20
ENDBRANCH  11  18
BRANCH  13  22
HETATM   22  O   UNK N   1      26.778  16.858   4.677  0.00  0.00    -0.385 OA
HETATM   23  H   UNK N   1      25.918  16.415   4.752  0.00  0.00     0.210 HD
ENDBRANCH  13  22
BRANCH  14  24
HETATM   24  O   UNK N   1      29.354  15.664   4.144  0.00  0.00    -0.390 OA
HETATM   25  H   UNK N   1      30.045  15.119   4.554  0.00  0.00     0.210 HD
ENDBRANCH  14  24
ENDBRANCH   7   8
ENDBRANCH   5   7
BRANCH   3  26
HETATM   26  O   UNK N   1      33.494  17.941   6.022  0.00  0.00    -0.388 OA
HETATM   27  H   UNK N   1      33.826  18.853   6.042  0.00  0.00     0.210 HD
ENDBRANCH   3  26
BRANCH   2  28
HETATM   28  O   UNK N   1      33.997  14.336   6.179  0.00  0.00    -0.390 OA
HETATM   29  H   UNK N   1      34.259  13.462   5.852  0.00  0.00     0.210 HD
ENDBRANCH   2  28
BRANCH   1  30
HETATM   30  C   UNK N   1      31.143  16.487   8.875  0.00  0.00     0.198 C 
BRANCH  30  31
HETATM   31  O   UNK N   1      31.818  17.686   9.123  0.00  0.00    -0.398 OA
HETATM   32  H   UNK N   1      32.038  18.587   8.839  0.00  0.00     0.209 HD
ENDBRANCH  30  31
ENDBRANCH   1  30
BRANCH   4  33
HETATM   33  O   UNK N   1      34.088  15.234   9.211  0.00  0.00    -0.348 OA
BRANCH  33  34
HETATM   34  C   UNK N   1      35.502  15.356   9.351  0.00  0.00     0.292 C 
HETATM   35  C   UNK N   1      35.807  15.795  10.796  0.00  0.00     0.204 C 
HETATM   36  C   UNK N   1      35.425  14.672  11.779  0.00  0.00     0.183 C 
HETATM   37  C   UNK N   1      36.255  13.434  11.428  0.00  0.00     0.180 C 
HETATM   38  C   UNK N   1      36.080  13.059   9.945  0.00  0.00     0.179 C 
HETATM   39  O   UNK N   1      36.235  14.162   9.040  0.00  0.00    -0.348 OA
BRANCH  35  40
HETATM   40  O   UNK N   1      35.116  16.968  11.103  0.00  0.00    -0.388 OA
HETATM   41  H   UNK N   1      34.182  17.234  11.108  0.00  0.00     0.210 HD
ENDBRANCH  35  40
BRANCH  36  42
HETATM   42  O   UNK N   1      34.056  14.384  11.706  0.00  0.00    -0.390 OA
HETATM   43  H   UNK N   1      33.189  14.666  12.036  0.00  0.00     0.210 HD
ENDBRANCH  36  42
BRANCH  37  44
HETATM   44  O   UNK N   1      37.605  13.703  11.673  0.00  0.00    -0.390 OA
HETATM   45  H   UNK N   1      38.459  13.565  11.236  0.00  0.00     0.210 HD
ENDBRANCH  37  44
BRANCH  38  46
HETATM   46  C   UNK N   1      34.789  12.288   9.708  0.00  0.00     0.198 C 
BRANCH  46  47
HETATM   47  O   UNK N   1      34.405  12.354   8.367  0.00  0.00    -0.398 OA
HETATM   48  H   UNK N   1      33.507  12.095   8.105  0.00  0.00     0.209 HD
ENDBRANCH  46  47
ENDBRANCH  38  46
ENDBRANCH  33  34
ENDBRANCH   4  33
TORSDOF 19
ENDMDL
MODEL 9
REMARK VINA RESULT:      -6.2      3.174      5.619
REMARK  19 active torsions:
REMARK  status: ('A' for Active; 'I' for Inactive)
REMARK    1  A    between atoms: C_4  and  C_1 
REMARK    2  A    between atoms: O_22  and  C_1 
REMARK    3  A    between atoms: C_5  and  C_2 
REMARK    4  A    between atoms: O_23  and  C_2 
REMARK    5  A    between atoms: C_6  and  C_3 
REMARK    6  A    between atoms: O_24  and  C_3 
REMARK    7  A    between atoms: C_7  and  O_25 
REMARK    8  A    between atoms: C_8  and  O_26 
REMARK    9  A    between atoms: C_9  and  O_27 
REMARK   10  A    between atoms: C_10  and  O_28 
REMARK   11  A    between atoms: C_11  and  O_29 
REMARK   12  A    between atoms: C_12  and  O_30 
REMARK   13  A    between atoms: C_13  and  O_31 
REMARK   14  A    between atoms: C_14  and  O_35 
REMARK   15  A    between atoms: C_15  and  O_36 
REMARK   16  A    between atoms: N_21  and  C_16 
REMARK   17  A    between atoms: C_17  and  O_36 
REMARK   18  A    between atoms: C_18  and  O_35 
REMARK   19  A    between atoms: O_32  and  N_21 
ROOT
HETATM    1  C   UNK N   1      33.531  16.396   8.391  0.00  0.00     0.180 C 
HETATM    2  C   UNK N   1      33.018  13.986   7.824  0.00  0.00     0.183 C 
HETATM    3  C   UNK N   1      32.034  14.597   6.755  0.00  0.00     0.204 C 
HETATM    4  C   UNK N   1      34.137  15.029   8.034  0.00  0.00     0.187 C 
HETATM    5  C   UNK N   1      31.556  16.048   7.151  0.00  0.00     0.292 C 
HETATM    6  O   UNK N   1      32.108  16.418   8.376  0.00  0.00    -0.348 OA
ENDROOT
BRANCH   5   7
HETATM    7  O   UNK N   1      31.830  17.076   6.202  0.00  0.00    -0.348 OA
BRANCH   7   8
HETATM    8  C   UNK N   1      30.714  17.383   5.342  0.00  0.00     0.181 C 
HETATM    9  C   UNK N   1      30.677  16.733   3.880  0.00  0.00     0.138 C 
HETATM   10  N   UNK N   1      30.098  15.404   3.892  0.00  0.00    -0.367 N 
HETATM   11  C   UNK N   1      28.965  15.210   4.474  0.00  0.00     0.129 C 
ATOM     12  HN  UNK N   1      30.584  14.628   3.441  1.00  0.00     0.161 HD
HETATM   13  C   UNK N   1      28.320  16.357   5.236  0.00  0.00     0.218 C 
HETATM   14  C   UNK N   1      29.435  16.934   6.132  0.00  0.00     0.185 C 
BRANCH   9  15
HETATM   15  C   UNK N   1      31.902  16.807   2.980  0.00  0.00     0.191 C 
BRANCH  15  16
HETATM   16  O   UNK N   1      33.074  16.953   3.727  0.00  0.00    -0.399 OA
HETATM   17  H   UNK N   1      33.195  16.560   4.605  0.00  0.00     0.209 HD
ENDBRANCH  15  16
ENDBRANCH   9  15
BRANCH  11  18
HETATM   18  N   UNK N   1      28.373  13.923   4.495  0.00  0.00    -0.255 N 
HETATM   19  H   UNK N   1      27.431  13.816   4.226  0.00  0.00     0.195 HD
BRANCH  18  20
HETATM   20  O   UNK N   1      29.082  12.849   4.876  0.00  0.00    -0.288 OA
HETATM   21  H   UNK N   1      29.454  12.240   4.219  0.00  0.00     0.244 HD
ENDBRANCH  18  20
ENDBRANCH  11  18
BRANCH  13  22
HETATM   22  O   UNK N   1      27.843  17.331   4.354  0.00  0.00    -0.385 OA
HETATM   23  H   UNK N   1      27.246  18.010   4.001  0.00  0.00     0.210 HD
ENDBRANCH  13  22
BRANCH  14  24
HETATM   24  O   UNK N   1      28.964  17.971   6.939  0.00  0.00    -0.390 OA
HETATM   25  H   UNK N   1      29.134  17.964   7.895  0.00  0.00     0.210 HD
ENDBRANCH  14  24
ENDBRANCH   7   8
ENDBRANCH   5   7
BRANCH   3  26
HETATM   26  O   UNK N   1      32.645  14.628   5.497  0.00  0.00    -0.388 OA
HETATM   27  H   UNK N   1      33.123  14.888   4.693  0.00  0.00     0.210 HD
ENDBRANCH   3  26
BRANCH   2  28
HETATM   28  O   UNK N   1      32.331  13.744   9.017  0.00  0.00    -0.390 OA
HETATM   29  H   UNK N   1      32.087  13.363   9.875  0.00  0.00     0.210 HD
ENDBRANCH   2  28
BRANCH   1  30
HETATM   30  C   UNK N   1      34.251  17.551   7.656  0.00  0.00     0.198 C 
BRANCH  30  31
HETATM   31  O   UNK N   1      34.578  17.254   6.329  0.00  0.00    -0.398 OA
HETATM   32  H   UNK N   1      35.233  16.936   5.689  0.00  0.00     0.209 HD
ENDBRANCH  30  31
ENDBRANCH   1  30
BRANCH   4  33
HETATM   33  O   UNK N   1      35.326  14.728   8.762  0.00  0.00    -0.348 OA
BRANCH  33  34
HETATM   34  C   UNK N   1      35.666  13.363   9.006  0.00  0.00     0.292 C 
HETATM   35  C   UNK N   1      37.200  13.256   9.086  0.00  0.00     0.204 C 
HETATM   36  C   UNK N   1      37.716  14.003  10.330  0.00  0.00     0.183 C 
HETATM   37  C   UNK N   1      37.087  13.353  11.566  0.00  0.00     0.180 C 
HETATM   38  C   UNK N   1      35.552  13.317  11.444  0.00  0.00     0.179 C 
HETATM   39  O   UNK N   1      35.076  12.808  10.190  0.00  0.00    -0.348 OA
BRANCH  35  40
HETATM   40  O   UNK N   1      37.785  13.775   7.929  0.00  0.00    -0.388 OA
HETATM   41  H   UNK N   1      37.506  13.877   7.004  0.00  0.00     0.210 HD
ENDBRANCH  35  40
BRANCH  36  42
HETATM   42  O   UNK N   1      37.391  15.364  10.270  0.00  0.00    -0.390 OA
HETATM   43  H   UNK N   1      37.670  16.239  10.581  0.00  0.00     0.210 HD
ENDBRANCH  36  42
BRANCH  37  44
HETATM   44  O   UNK N   1      37.565  12.045  11.689  0.00  0.00    -0.390 OA
HETATM   45  H   UNK N   1      37.213  11.164  11.889  0.00  0.00     0.210 HD
ENDBRANCH  37  44
BRANCH  38  46
HETATM   46  C   UNK N   1      34.928  14.658  11.803  0.00  0.00     0.198 C 
BRANCH  46  47
HETATM   47  O   UNK N   1      33.588  14.708  11.410  0.00  0.00    -0.398 OA
HETATM   48  H   UNK N   1      32.903  14.304  11.967  0.00  0.00     0.209 HD
ENDBRANCH  46  47
ENDBRANCH  38  46
ENDBRANCH  33  34
ENDBRANCH   4  33
TORSDOF 19
ENDMDL
