MODEL 1
REMARK VINA RESULT:      -6.2      0.000      0.000
REMARK  13 active torsions:
REMARK  status: ('A' for Active; 'I' for Inactive)
REMARK    1  A    between atoms: C_2  and  C_1 
REMARK    2  A    between atoms: C_6  and  C_1 
REMARK    3  A    between atoms: C_7  and  C_2 
REMARK    4  A    between atoms: C_6  and  C_3 
REMARK    5  A    between atoms: C_8  and  C_3 
REMARK    6  A    between atoms: C_6  and  N_16 
REMARK    7  A    between atoms: C_15  and  C_7 
REMARK    8  A    between atoms: C_7  and  N_17 
REMARK    9  A    between atoms: C_10  and  O_26 
REMARK   10  A    between atoms: C_11  and  O_27 
REMARK   11  A    between atoms: N_18  and  C_12 
REMARK   12  A    between atoms: C_14  and  N_25 
REMARK   13  A    between atoms: O_29  and  C_15 
ROOT
HETATM    1  C   UNK N   1      33.304  14.814   7.170  0.00  0.00     0.157 C 
HETATM    2  C   UNK N   1      33.925  15.484   5.927  0.00  0.00     0.180 C 
HETATM    3  C   UNK N   1      32.873  16.513   5.546  0.00  0.00     0.198 C 
HETATM    4  C   UNK N   1      31.638  15.878   6.168  0.00  0.00     0.262 C 
HETATM    5  O   UNK N   1      32.086  15.480   7.440  0.00  0.00    -0.355 OA
ENDROOT
BRANCH   1   6
HETATM    6  C   UNK N   1      34.212  14.739   8.411  0.00  0.00     0.059 C 
BRANCH   6   7
HETATM    7  C   UNK N   1      33.825  15.758   9.497  0.00  0.00     0.076 C 
BRANCH   7   8
HETATM    8  C   UNK N   1      35.082  16.279  10.213  0.00  0.00     0.027 C 
BRANCH   8   9
HETATM    9  C   UNK N   1      35.365  15.771  11.635  0.00  0.00     0.037 C 
BRANCH   9  10
HETATM   10  C   UNK N   1      36.391  14.647  11.780  0.00  0.00     0.173 C 
BRANCH  10  11
HETATM   11  C   UNK N   1      35.666  13.347  11.974  0.00  0.00     0.163 C 
HETATM   12  O   UNK N   1      36.260  12.286  11.848  0.00  0.00    -0.648 OA
BRANCH  11  13
HETATM   13  O   UNK N   1      34.356  13.344  12.283  0.00  0.00    -0.775 OA
HETATM   14  H   UNK N   1      33.788  14.089  12.242  0.00  0.00     0.167 HD
ENDBRANCH  11  13
ENDBRANCH  10  11
BRANCH  10  15
HETATM   15  N   UNK N   1      37.234  14.565  10.599  0.00  0.00    -0.418 N 
HETATM   16  H   UNK N   1      37.124  13.858   9.872  0.00  0.00     0.150 HD
HETATM   17  H   UNK N   1      37.978  15.254  10.490  0.00  0.00     0.150 HD
ENDBRANCH  10  15
ENDBRANCH   9  10
ENDBRANCH   8   9
ENDBRANCH   7   8
BRANCH   7  18
HETATM   18  N   UNK N   1      32.895  15.137  10.425  0.00  0.00    -0.426 N 
HETATM   19  H   UNK N   1      33.034  14.208  10.823  0.00  0.00     0.150 HD
HETATM   20  H   UNK N   1      32.058  15.656  10.692  0.00  0.00     0.150 HD
ENDBRANCH   7  18
ENDBRANCH   6   7
ENDBRANCH   1   6
BRANCH   2  21
HETATM   21  O   UNK N   1      35.171  16.079   6.159  0.00  0.00    -0.390 OA
HETATM   22  H   UNK N   1      35.813  16.585   5.638  0.00  0.00     0.210 HD
ENDBRANCH   2  21
BRANCH   3  23
HETATM   23  O   UNK N   1      33.136  17.718   6.210  0.00  0.00    -0.388 OA
HETATM   24  H   UNK N   1      33.126  18.449   6.847  0.00  0.00     0.210 HD
ENDBRANCH   3  23
BRANCH   4  25
HETATM   25  N   UNK N   1      30.471  16.764   6.279  0.00  0.00    -0.297 N 
HETATM   26  C   UNK N   1      29.823  17.335   5.227  0.00  0.00     0.188 A 
HETATM   27  N   UNK N   1      28.834  18.173   5.644  0.00  0.00    -0.346 N 
HETATM   28  C   UNK N   1      28.900  18.124   6.986  0.00  0.00     0.122 A 
ATOM     29  HN  UNK N   1      28.189  18.714   5.068  1.00  0.00     0.167 HD
HETATM   30  C   UNK N   1      28.160  18.809   7.935  0.00  0.00     0.131 A 
HETATM   31  C   UNK N   1      29.879  17.279   7.368  0.00  0.00     0.142 A 
HETATM   32  N   UNK N   1      28.457  18.599   9.252  0.00  0.00    -0.337 N 
HETATM   33  C   UNK N   1      29.461  17.736   9.621  0.00  0.00     0.183 A 
ATOM     34  HN  UNK N   1      27.927  19.089   9.972  1.00  0.00     0.168 HD
HETATM   35  N   UNK N   1      30.188  17.070   8.670  0.00  0.00    -0.336 N 
ATOM     36  HN  UNK N   1      30.939  16.433   8.935  1.00  0.00     0.168 HD
BRANCH  30  37
HETATM   37  N   UNK N   1      27.143  19.712   7.563  0.00  0.00    -0.383 N 
HETATM   38  H   UNK N   1      26.195  19.491   7.708  0.00  0.00     0.157 HD
HETATM   39  H   UNK N   1      27.384  20.574   7.152  0.00  0.00     0.157 HD
ENDBRANCH  30  37
ENDBRANCH   4  25
TORSDOF 13
ENDMDL
MODEL 2
REMARK VINA RESULT:      -6.2     10.246     11.728
REMARK  13 active torsions:
REMARK  status: ('A' for Active; 'I' for Inactive)
REMARK    1  A    between atoms: C_2  and  C_1 
REMARK    2  A    between atoms: C_6  and  C_1 
REMARK    3  A    between atoms: C_7  and  C_2 
REMARK    4  A    between atoms: C_6  and  C_3 
REMARK    5  A    between atoms: C_8  and  C_3 
REMARK    6  A    between atoms: C_6  and  N_16 
REMARK    7  A    between atoms: C_15  and  C_7 
REMARK    8  A    between atoms: C_7  and  N_17 
REMARK    9  A    between atoms: C_10  and  O_26 
REMARK   10  A    between atoms: C_11  and  O_27 
REMARK   11  A    between atoms: N_18  and  C_12 
REMARK   12  A    between atoms: C_14  and  N_25 
REMARK   13  A    between atoms: O_29  and  C_15 
ROOT
HETATM    1  C   UNK N   1      21.621  14.375   7.670  0.00  0.00     0.157 C 
HETATM    2  C   UNK N   1      20.719  15.187   8.622  0.00  0.00     0.180 C 
HETATM    3  C   UNK N   1      20.323  16.379   7.764  0.00  0.00     0.198 C 
HETATM    4  C   UNK N   1      21.483  16.400   6.781  0.00  0.00     0.262 C 
HETATM    5  O   UNK N   1      21.631  15.047   6.426  0.00  0.00    -0.355 OA
ENDROOT
BRANCH   1   6
HETATM    6  C   UNK N   1      21.262  12.884   7.522  0.00  0.00     0.059 C 
BRANCH   6   7
HETATM    7  C   UNK N   1      22.502  11.975   7.476  0.00  0.00     0.076 C 
BRANCH   7   8
HETATM    8  C   UNK N   1      23.399  12.232   8.699  0.00  0.00     0.027 C 
BRANCH   8   9
HETATM    9  C   UNK N   1      23.355  11.217   9.852  0.00  0.00     0.037 C 
BRANCH   9  10
HETATM   10  C   UNK N   1      22.714  11.680  11.161  0.00  0.00     0.173 C 
BRANCH  10  11
HETATM   11  C   UNK N   1      23.799  12.034  12.136  0.00  0.00     0.163 C 
HETATM   12  O   UNK N   1      23.562  12.076  13.334  0.00  0.00    -0.648 OA
BRANCH  11  13
HETATM   13  O   UNK N   1      25.041  12.312  11.693  0.00  0.00    -0.775 OA
HETATM   14  H   UNK N   1      25.768  11.722  11.714  0.00  0.00     0.167 HD
ENDBRANCH  11  13
ENDBRANCH  10  11
BRANCH  10  15
HETATM   15  N   UNK N   1      21.863  12.836  10.936  0.00  0.00    -0.418 N 
HETATM   16  H   UNK N   1      22.158  13.798  11.105  0.00  0.00     0.150 HD
HETATM   17  H   UNK N   1      20.917  12.677  10.589  0.00  0.00     0.150 HD
ENDBRANCH  10  15
ENDBRANCH   9  10
ENDBRANCH   8   9
ENDBRANCH   7   8
BRANCH   7  18
HETATM   18  N   UNK N   1      23.214  12.201   6.229  0.00  0.00    -0.426 N 
HETATM   19  H   UNK N   1      22.758  12.219   5.317  0.00  0.00     0.150 HD
HETATM   20  H   UNK N   1      24.223  12.350   6.268  0.00  0.00     0.150 HD
ENDBRANCH   7  18
ENDBRANCH   6   7
ENDBRANCH   1   6
BRANCH   2  21
HETATM   21  O   UNK N   1      19.598  14.489   9.086  0.00  0.00    -0.390 OA
HETATM   22  H   UNK N   1      18.638  14.553   8.974  0.00  0.00     0.210 HD
ENDBRANCH   2  21
BRANCH   3  23
HETATM   23  O   UNK N   1      19.149  16.078   7.060  0.00  0.00    -0.388 OA
HETATM   24  H   UNK N   1      18.286  16.142   6.623  0.00  0.00     0.210 HD
ENDBRANCH   3  23
BRANCH   4  25
HETATM   25  N   UNK N   1      21.275  17.232   5.588  0.00  0.00    -0.297 N 
HETATM   26  C   UNK N   1      21.470  18.578   5.533  0.00  0.00     0.188 A 
HETATM   27  N   UNK N   1      21.113  19.087   4.321  0.00  0.00    -0.346 N 
HETATM   28  C   UNK N   1      20.667  18.022   3.631  0.00  0.00     0.122 A 
ATOM     29  HN  UNK N   1      21.171  20.055   4.008  1.00  0.00     0.167 HD
HETATM   30  C   UNK N   1      20.137  17.951   2.355  0.00  0.00     0.131 A 
HETATM   31  C   UNK N   1      20.765  16.910   4.389  0.00  0.00     0.142 A 
HETATM   32  N   UNK N   1      19.723  16.731   1.900  0.00  0.00    -0.337 N 
HETATM   33  C   UNK N   1      19.828  15.611   2.688  0.00  0.00     0.183 A 
ATOM     34  HN  UNK N   1      19.330  16.651   0.962  1.00  0.00     0.168 HD
HETATM   35  N   UNK N   1      20.350  15.697   3.951  0.00  0.00    -0.336 N 
ATOM     36  HN  UNK N   1      20.425  14.871   4.546  1.00  0.00     0.168 HD
BRANCH  30  37
HETATM   37  N   UNK N   1      20.007  19.101   1.549  0.00  0.00    -0.383 N 
HETATM   38  H   UNK N   1      19.648  19.037   0.635  0.00  0.00     0.157 HD
HETATM   39  H   UNK N   1      20.279  19.978   1.905  0.00  0.00     0.157 HD
ENDBRANCH  30  37
ENDBRANCH   4  25
TORSDOF 13
ENDMDL
MODEL 3
REMARK VINA RESULT:      -6.1      9.972     13.344
REMARK  13 active torsions:
REMARK  status: ('A' for Active; 'I' for Inactive)
REMARK    1  A    between atoms: C_2  and  C_1 
REMARK    2  A    between atoms: C_6  and  C_1 
REMARK    3  A    between atoms: C_7  and  C_2 
REMARK    4  A    between atoms: C_6  and  C_3 
REMARK    5  A    between atoms: C_8  and  C_3 
REMARK    6  A    between atoms: C_6  and  N_16 
REMARK    7  A    between atoms: C_15  and  C_7 
REMARK    8  A    between atoms: C_7  and  N_17 
REMARK    9  A    between atoms: C_10  and  O_26 
REMARK   10  A    between atoms: C_11  and  O_27 
REMARK   11  A    between atoms: N_18  and  C_12 
REMARK   12  A    between atoms: C_14  and  N_25 
REMARK   13  A    between atoms: O_29  and  C_15 
ROOT
HETATM    1  C   UNK N   1      21.477  16.040   6.153  0.00  0.00     0.157 C 
HETATM    2  C   UNK N   1      20.261  16.769   6.761  0.00  0.00     0.180 C 
HETATM    3  C   UNK N   1      20.080  16.055   8.091  0.00  0.00     0.198 C 
HETATM    4  C   UNK N   1      20.737  14.721   7.772  0.00  0.00     0.262 C 
HETATM    5  O   UNK N   1      21.918  15.093   7.106  0.00  0.00    -0.355 OA
ENDROOT
BRANCH   1   6
HETATM    6  C   UNK N   1      22.621  16.947   5.663  0.00  0.00     0.059 C 
BRANCH   6   7
HETATM    7  C   UNK N   1      22.658  17.086   4.131  0.00  0.00     0.076 C 
BRANCH   7   8
HETATM    8  C   UNK N   1      22.341  18.533   3.719  0.00  0.00     0.027 C 
BRANCH   8   9
HETATM    9  C   UNK N   1      20.874  18.990   3.760  0.00  0.00     0.037 C 
BRANCH   9  10
HETATM   10  C   UNK N   1      20.273  19.515   2.456  0.00  0.00     0.173 C 
BRANCH  10  11
HETATM   11  C   UNK N   1      21.152  20.606   1.918  0.00  0.00     0.163 C 
HETATM   12  O   UNK N   1      21.541  20.569   0.760  0.00  0.00    -0.648 OA
BRANCH  11  13
HETATM   13  O   UNK N   1      21.520  21.630   2.711  0.00  0.00    -0.775 OA
HETATM   14  H   UNK N   1      22.205  21.601   3.351  0.00  0.00     0.167 HD
ENDBRANCH  11  13
ENDBRANCH  10  11
BRANCH  10  15
HETATM   15  N   UNK N   1      20.162  18.449   1.475  0.00  0.00    -0.418 N 
HETATM   16  H   UNK N   1      20.947  18.103   0.923  0.00  0.00     0.150 HD
HETATM   17  H   UNK N   1      19.248  18.020   1.331  0.00  0.00     0.150 HD
ENDBRANCH  10  15
ENDBRANCH   9  10
ENDBRANCH   8   9
ENDBRANCH   7   8
BRANCH   7  18
HETATM   18  N   UNK N   1      21.722  16.141   3.544  0.00  0.00    -0.426 N 
HETATM   19  H   UNK N   1      21.799  15.130   3.657  0.00  0.00     0.150 HD
HETATM   20  H   UNK N   1      20.948  16.508   2.989  0.00  0.00     0.150 HD
ENDBRANCH   7  18
ENDBRANCH   6   7
ENDBRANCH   1   6
BRANCH   2  21
HETATM   21  O   UNK N   1      20.445  18.146   6.933  0.00  0.00    -0.390 OA
HETATM   22  H   UNK N   1      20.572  18.747   7.683  0.00  0.00     0.210 HD
ENDBRANCH   2  21
BRANCH   3  23
HETATM   23  O   UNK N   1      20.840  16.701   9.075  0.00  0.00    -0.388 OA
HETATM   24  H   UNK N   1      21.513  16.910   9.740  0.00  0.00     0.210 HD
ENDBRANCH   3  23
BRANCH   4  25
HETATM   25  N   UNK N   1      21.038  13.880   8.939  0.00  0.00    -0.297 N 
HETATM   26  C   UNK N   1      20.129  13.486   9.871  0.00  0.00     0.188 A 
HETATM   27  N   UNK N   1      20.718  12.786  10.880  0.00  0.00    -0.346 N 
HETATM   28  C   UNK N   1      22.024  12.776  10.560  0.00  0.00     0.122 A 
ATOM     29  HN  UNK N   1      20.269  12.364  11.693  1.00  0.00     0.167 HD
HETATM   30  C   UNK N   1      23.101  12.243  11.249  0.00  0.00     0.131 A 
HETATM   31  C   UNK N   1      22.217  13.430   9.397  0.00  0.00     0.142 A 
HETATM   32  N   UNK N   1      24.346  12.404  10.711  0.00  0.00    -0.337 N 
HETATM   33  C   UNK N   1      24.523  13.077   9.526  0.00  0.00     0.183 A 
ATOM     34  HN  UNK N   1      25.157  12.021  11.197  1.00  0.00     0.168 HD
HETATM   35  N   UNK N   1      23.449  13.603   8.859  0.00  0.00    -0.336 N 
ATOM     36  HN  UNK N   1      23.572  14.109   7.982  1.00  0.00     0.168 HD
BRANCH  30  37
HETATM   37  N   UNK N   1      22.928  11.571  12.476  0.00  0.00    -0.383 N 
HETATM   38  H   UNK N   1      22.232  10.884  12.580  0.00  0.00     0.157 HD
HETATM   39  H   UNK N   1      23.511  11.793  13.238  0.00  0.00     0.157 HD
ENDBRANCH  30  37
ENDBRANCH   4  25
TORSDOF 13
ENDMDL
MODEL 4
REMARK VINA RESULT:      -6.1      4.360      9.356
REMARK  13 active torsions:
REMARK  status: ('A' for Active; 'I' for Inactive)
REMARK    1  A    between atoms: C_2  and  C_1 
REMARK    2  A    between atoms: C_6  and  C_1 
REMARK    3  A    between atoms: C_7  and  C_2 
REMARK    4  A    between atoms: C_6  and  C_3 
REMARK    5  A    between atoms: C_8  and  C_3 
REMARK    6  A    between atoms: C_6  and  N_16 
REMARK    7  A    between atoms: C_15  and  C_7 
REMARK    8  A    between atoms: C_7  and  N_17 
REMARK    9  A    between atoms: C_10  and  O_26 
REMARK   10  A    between atoms: C_11  and  O_27 
REMARK   11  A    between atoms: N_18  and  C_12 
REMARK   12  A    between atoms: C_14  and  N_25 
REMARK   13  A    between atoms: O_29  and  C_15 
ROOT
HETATM    1  C   UNK N   1      34.897  13.481  11.622  0.00  0.00     0.157 C 
HETATM    2  C   UNK N   1      35.988  14.450  12.123  0.00  0.00     0.180 C 
HETATM    3  C   UNK N   1      36.356  13.862  13.475  0.00  0.00     0.198 C 
HETATM    4  C   UNK N   1      35.075  13.109  13.799  0.00  0.00     0.262 C 
HETATM    5  O   UNK N   1      34.768  12.459  12.591  0.00  0.00    -0.355 OA
ENDROOT
BRANCH   1   6
HETATM    6  C   UNK N   1      35.107  12.915  10.205  0.00  0.00     0.059 C 
BRANCH   6   7
HETATM    7  C   UNK N   1      33.982  13.310   9.233  0.00  0.00     0.076 C 
BRANCH   7   8
HETATM    8  C   UNK N   1      33.546  14.764   9.483  0.00  0.00     0.027 C 
BRANCH   8   9
HETATM    9  C   UNK N   1      34.358  15.885   8.816  0.00  0.00     0.037 C 
BRANCH   9  10
HETATM   10  C   UNK N   1      33.890  17.321   9.056  0.00  0.00     0.173 C 
BRANCH  10  11
HETATM   11  C   UNK N   1      34.581  18.228   8.081  0.00  0.00     0.163 C 
HETATM   12  O   UNK N   1      35.251  19.168   8.482  0.00  0.00    -0.648 OA
BRANCH  11  13
HETATM   13  O   UNK N   1      34.461  18.013   6.757  0.00  0.00    -0.775 OA
HETATM   14  H   UNK N   1      33.732  17.599   6.339  0.00  0.00     0.167 HD
ENDBRANCH  11  13
ENDBRANCH  10  11
BRANCH  10  15
HETATM   15  N   UNK N   1      32.450  17.426   8.885  0.00  0.00    -0.418 N 
HETATM   16  H   UNK N   1      31.823  16.622   8.858  0.00  0.00     0.150 HD
HETATM   17  H   UNK N   1      32.044  18.356   8.788  0.00  0.00     0.150 HD
ENDBRANCH  10  15
ENDBRANCH   9  10
ENDBRANCH   8   9
ENDBRANCH   7   8
BRANCH   7  18
HETATM   18  N   UNK N   1      32.873  12.382   9.384  0.00  0.00    -0.426 N 
HETATM   19  H   UNK N   1      32.576  11.737   8.651  0.00  0.00     0.150 HD
HETATM   20  H   UNK N   1      32.365  12.376  10.269  0.00  0.00     0.150 HD
ENDBRANCH   7  18
ENDBRANCH   6   7
ENDBRANCH   1   6
BRANCH   2  21
HETATM   21  O   UNK N   1      37.101  14.546  11.279  0.00  0.00    -0.390 OA
HETATM   22  H   UNK N   1      38.007  14.200  11.274  0.00  0.00     0.210 HD
ENDBRANCH   2  21
BRANCH   3  23
HETATM   23  O   UNK N   1      37.391  12.931  13.314  0.00  0.00    -0.388 OA
HETATM   24  H   UNK N   1      38.256  12.494  13.317  0.00  0.00     0.210 HD
ENDBRANCH   3  23
BRANCH   4  25
HETATM   25  N   UNK N   1      35.182  12.141  14.900  0.00  0.00    -0.297 N 
HETATM   26  C   UNK N   1      35.143  10.789  14.755  0.00  0.00     0.188 A 
HETATM   27  N   UNK N   1      35.180  10.155  15.960  0.00  0.00    -0.346 N 
HETATM   28  C   UNK N   1      35.218  11.153  16.860  0.00  0.00     0.122 A 
ATOM     29  HN  UNK N   1      35.179   9.151  16.139  1.00  0.00     0.167 HD
HETATM   30  C   UNK N   1      35.223  11.099  18.244  0.00  0.00     0.131 A 
HETATM   31  C   UNK N   1      35.221  12.343  16.226  0.00  0.00     0.142 A 
HETATM   32  N   UNK N   1      35.230  12.280  18.930  0.00  0.00    -0.337 N 
HETATM   33  C   UNK N   1      35.230  13.483  18.266  0.00  0.00     0.183 A 
ATOM     34  HN  UNK N   1      35.235  12.270  19.950  1.00  0.00     0.168 HD
HETATM   35  N   UNK N   1      35.220  13.521  16.897  0.00  0.00    -0.336 N 
ATOM     36  HN  UNK N   1      35.212  14.410  16.396  1.00  0.00     0.168 HD
BRANCH  30  37
HETATM   37  N   UNK N   1      35.202   9.869  18.931  0.00  0.00    -0.383 N 
HETATM   38  H   UNK N   1      35.369   9.023  18.455  0.00  0.00     0.157 HD
HETATM   39  H   UNK N   1      35.017   9.854  19.898  0.00  0.00     0.157 HD
ENDBRANCH  30  37
ENDBRANCH   4  25
TORSDOF 13
ENDMDL
MODEL 5
REMARK VINA RESULT:      -6.1      9.358     12.824
REMARK  13 active torsions:
REMARK  status: ('A' for Active; 'I' for Inactive)
REMARK    1  A    between atoms: C_2  and  C_1 
REMARK    2  A    between atoms: C_6  and  C_1 
REMARK    3  A    between atoms: C_7  and  C_2 
REMARK    4  A    between atoms: C_6  and  C_3 
REMARK    5  A    between atoms: C_8  and  C_3 
REMARK    6  A    between atoms: C_6  and  N_16 
REMARK    7  A    between atoms: C_15  and  C_7 
REMARK    8  A    between atoms: C_7  and  N_17 
REMARK    9  A    between atoms: C_10  and  O_26 
REMARK   10  A    between atoms: C_11  and  O_27 
REMARK   11  A    between atoms: N_18  and  C_12 
REMARK   12  A    between atoms: C_14  and  N_25 
REMARK   13  A    between atoms: O_29  and  C_15 
ROOT
HETATM    1  C   UNK N   1      22.922  15.007   5.981  0.00  0.00     0.157 C 
HETATM    2  C   UNK N   1      23.566  13.774   5.315  0.00  0.00     0.180 C 
HETATM    3  C   UNK N   1      23.909  12.896   6.508  0.00  0.00     0.198 C 
HETATM    4  C   UNK N   1      24.007  13.951   7.599  0.00  0.00     0.262 C 
HETATM    5  O   UNK N   1      22.877  14.756   7.372  0.00  0.00    -0.355 OA
ENDROOT
BRANCH   1   6
HETATM    6  C   UNK N   1      21.550  15.427   5.421  0.00  0.00     0.059 C 
BRANCH   6   7
HETATM    7  C   UNK N   1      21.268  16.929   5.599  0.00  0.00     0.076 C 
BRANCH   7   8
HETATM    8  C   UNK N   1      20.669  17.516   4.310  0.00  0.00     0.027 C 
BRANCH   8   9
HETATM    9  C   UNK N   1      21.365  18.732   3.680  0.00  0.00     0.037 C 
BRANCH   9  10
HETATM   10  C   UNK N   1      20.467  19.803   3.060  0.00  0.00     0.173 C 
BRANCH  10  11
HETATM   11  C   UNK N   1      21.305  20.704   2.200  0.00  0.00     0.163 C 
HETATM   12  O   UNK N   1      21.402  20.494   1.000  0.00  0.00    -0.648 OA
BRANCH  11  13
HETATM   13  O   UNK N   1      21.958  21.746   2.749  0.00  0.00    -0.775 OA
HETATM   14  H   UNK N   1      21.585  22.588   2.922  0.00  0.00     0.167 HD
ENDBRANCH  11  13
ENDBRANCH  10  11
BRANCH  10  15
HETATM   15  N   UNK N   1      19.421  19.194   2.256  0.00  0.00    -0.418 N 
HETATM   16  H   UNK N   1      18.585  19.688   1.945  0.00  0.00     0.150 HD
HETATM   17  H   UNK N   1      19.529  18.216   1.986  0.00  0.00     0.150 HD
ENDBRANCH  10  15
ENDBRANCH   9  10
ENDBRANCH   8   9
ENDBRANCH   7   8
BRANCH   7  18
HETATM   18  N   UNK N   1      22.498  17.604   5.978  0.00  0.00    -0.426 N 
HETATM   19  H   UNK N   1      23.425  17.200   5.845  0.00  0.00     0.150 HD
HETATM   20  H   UNK N   1      22.431  18.532   6.399  0.00  0.00     0.150 HD
ENDBRANCH   7  18
ENDBRANCH   6   7
ENDBRANCH   1   6
BRANCH   2  21
HETATM   21  O   UNK N   1      22.732  13.111   4.408  0.00  0.00    -0.390 OA
HETATM   22  H   UNK N   1      22.078  12.396   4.451  0.00  0.00     0.210 HD
ENDBRANCH   2  21
BRANCH   3  23
HETATM   23  O   UNK N   1      22.825  12.056   6.797  0.00  0.00    -0.388 OA
HETATM   24  H   UNK N   1      22.273  11.337   7.141  0.00  0.00     0.210 HD
ENDBRANCH   3  23
BRANCH   4  25
HETATM   25  N   UNK N   1      24.009  13.429   8.973  0.00  0.00    -0.297 N 
HETATM   26  C   UNK N   1      25.124  13.116   9.686  0.00  0.00     0.188 A 
HETATM   27  N   UNK N   1      24.809  12.574  10.896  0.00  0.00    -0.346 N 
HETATM   28  C   UNK N   1      23.465  12.538  10.904  0.00  0.00     0.122 A 
ATOM     29  HN  UNK N   1      25.448  12.267  11.629  1.00  0.00     0.167 HD
HETATM   30  C   UNK N   1      22.598  12.046  11.865  0.00  0.00     0.131 A 
HETATM   31  C   UNK N   1      22.984  13.050   9.753  0.00  0.00     0.142 A 
HETATM   32  N   UNK N   1      21.258  12.100  11.605  0.00  0.00    -0.337 N 
HETATM   33  C   UNK N   1      20.787  12.623  10.425  0.00  0.00     0.183 A 
ATOM     34  HN  UNK N   1      20.597  11.746  12.296  1.00  0.00     0.168 HD
HETATM   35  N   UNK N   1      21.658  13.101   9.481  0.00  0.00    -0.336 N 
ATOM     36  HN  UNK N   1      21.317  13.485   8.600  1.00  0.00     0.168 HD
BRANCH  30  37
HETATM   37  N   UNK N   1      23.075  11.488  13.068  0.00  0.00    -0.383 N 
HETATM   38  H   UNK N   1      23.492  10.597  13.080  0.00  0.00     0.157 HD
HETATM   39  H   UNK N   1      22.989  11.996  13.908  0.00  0.00     0.157 HD
ENDBRANCH  30  37
ENDBRANCH   4  25
TORSDOF 13
ENDMDL
MODEL 6
REMARK VINA RESULT:      -6.1      6.019     10.884
REMARK  13 active torsions:
REMARK  status: ('A' for Active; 'I' for Inactive)
REMARK    1  A    between atoms: C_2  and  C_1 
REMARK    2  A    between atoms: C_6  and  C_1 
REMARK    3  A    between atoms: C_7  and  C_2 
REMARK    4  A    between atoms: C_6  and  C_3 
REMARK    5  A    between atoms: C_8  and  C_3 
REMARK    6  A    between atoms: C_6  and  N_16 
REMARK    7  A    between atoms: C_15  and  C_7 
REMARK    8  A    between atoms: C_7  and  N_17 
REMARK    9  A    between atoms: C_10  and  O_26 
REMARK   10  A    between atoms: C_11  and  O_27 
REMARK   11  A    between atoms: N_18  and  C_12 
REMARK   12  A    between atoms: C_14  and  N_25 
REMARK   13  A    between atoms: O_29  and  C_15 
ROOT
HETATM    1  C   UNK N   1      25.210  18.838   4.838  0.00  0.00     0.157 C 
HETATM    2  C   UNK N   1      25.923  20.160   4.486  0.00  0.00     0.180 C 
HETATM    3  C   UNK N   1      27.367  19.865   4.858  0.00  0.00     0.198 C 
HETATM    4  C   UNK N   1      27.161  18.764   5.888  0.00  0.00     0.262 C 
HETATM    5  O   UNK N   1      26.202  17.933   5.282  0.00  0.00    -0.355 OA
ENDROOT
BRANCH   1   6
HETATM    6  C   UNK N   1      24.332  18.237   3.725  0.00  0.00     0.059 C 
BRANCH   6   7
HETATM    7  C   UNK N   1      23.142  17.432   4.274  0.00  0.00     0.076 C 
BRANCH   7   8
HETATM    8  C   UNK N   1      21.834  17.888   3.604  0.00  0.00     0.027 C 
BRANCH   8   9
HETATM    9  C   UNK N   1      21.145  19.147   4.151  0.00  0.00     0.037 C 
BRANCH   9  10
HETATM   10  C   UNK N   1      20.568  20.125   3.126  0.00  0.00     0.173 C 
BRANCH  10  11
HETATM   11  C   UNK N   1      21.685  20.657   2.278  0.00  0.00     0.163 C 
HETATM   12  O   UNK N   1      21.633  20.565   1.060  0.00  0.00    -0.648 OA
BRANCH  11  13
HETATM   13  O   UNK N   1      22.755  21.237   2.855  0.00  0.00    -0.775 OA
HETATM   14  H   UNK N   1      23.364  21.804   2.423  0.00  0.00     0.167 HD
ENDBRANCH  11  13
ENDBRANCH  10  11
BRANCH  10  15
HETATM   15  N   UNK N   1      19.586  19.464   2.283  0.00  0.00    -0.418 N 
HETATM   16  H   UNK N   1      19.762  18.590   1.787  0.00  0.00     0.150 HD
HETATM   17  H   UNK N   1      18.669  19.899   2.180  0.00  0.00     0.150 HD
ENDBRANCH  10  15
ENDBRANCH   9  10
ENDBRANCH   8   9
ENDBRANCH   7   8
BRANCH   7  18
HETATM   18  N   UNK N   1      23.088  17.584   5.719  0.00  0.00    -0.426 N 
HETATM   19  H   UNK N   1      23.512  18.366   6.217  0.00  0.00     0.150 HD
HETATM   20  H   UNK N   1      22.601  16.871   6.263  0.00  0.00     0.150 HD
ENDBRANCH   7  18
ENDBRANCH   6   7
ENDBRANCH   1   6
BRANCH   2  21
HETATM   21  O   UNK N   1      25.802  20.536   3.143  0.00  0.00    -0.390 OA
HETATM   22  H   UNK N   1      25.568  20.097   2.311  0.00  0.00     0.210 HD
ENDBRANCH   2  21
BRANCH   3  23
HETATM   23  O   UNK N   1      28.034  19.321   3.753  0.00  0.00    -0.388 OA
HETATM   24  H   UNK N   1      28.486  18.714   3.147  0.00  0.00     0.210 HD
ENDBRANCH   3  23
BRANCH   4  25
HETATM   25  N   UNK N   1      28.368  18.002   6.236  0.00  0.00    -0.297 N 
HETATM   26  C   UNK N   1      28.892  16.990   5.492  0.00  0.00     0.188 A 
HETATM   27  N   UNK N   1      29.962  16.417   6.110  0.00  0.00    -0.346 N 
HETATM   28  C   UNK N   1      30.074  17.087   7.271  0.00  0.00     0.122 A 
ATOM     29  HN  UNK N   1      30.546  15.654   5.769  1.00  0.00     0.167 HD
HETATM   30  C   UNK N   1      30.961  16.903   8.318  0.00  0.00     0.131 A 
HETATM   31  C   UNK N   1      29.120  18.037   7.347  0.00  0.00     0.142 A 
HETATM   32  N   UNK N   1      30.833  17.710   9.413  0.00  0.00    -0.337 N 
HETATM   33  C   UNK N   1      29.853  18.671   9.473  0.00  0.00     0.183 A 
ATOM     34  HN  UNK N   1      31.475  17.597  10.199  1.00  0.00     0.168 HD
HETATM   35  N   UNK N   1      28.979  18.837   8.432  0.00  0.00    -0.336 N 
ATOM     36  HN  UNK N   1      28.244  19.543   8.471  1.00  0.00     0.168 HD
BRANCH  30  37
HETATM   37  N   UNK N   1      31.955  15.905   8.272  0.00  0.00    -0.383 N 
HETATM   38  H   UNK N   1      31.978  15.251   7.537  0.00  0.00     0.157 HD
HETATM   39  H   UNK N   1      32.634  15.861   8.984  0.00  0.00     0.157 HD
ENDBRANCH  30  37
ENDBRANCH   4  25
TORSDOF 13
ENDMDL
MODEL 7
REMARK VINA RESULT:      -6.1      2.194      2.756
REMARK  13 active torsions:
REMARK  status: ('A' for Active; 'I' for Inactive)
REMARK    1  A    between atoms: C_2  and  C_1 
REMARK    2  A    between atoms: C_6  and  C_1 
REMARK    3  A    between atoms: C_7  and  C_2 
REMARK    4  A    between atoms: C_6  and  C_3 
REMARK    5  A    between atoms: C_8  and  C_3 
REMARK    6  A    between atoms: C_6  and  N_16 
REMARK    7  A    between atoms: C_15  and  C_7 
REMARK    8  A    between atoms: C_7  and  N_17 
REMARK    9  A    between atoms: C_10  and  O_26 
REMARK   10  A    between atoms: C_11  and  O_27 
REMARK   11  A    between atoms: N_18  and  C_12 
REMARK   12  A    between atoms: C_14  and  N_25 
REMARK   13  A    between atoms: O_29  and  C_15 
ROOT
HETATM    1  C   UNK N   1      34.012  15.443   9.366  0.00  0.00     0.157 C 
HETATM    2  C   UNK N   1      34.783  16.694   8.897  0.00  0.00     0.180 C 
HETATM    3  C   UNK N   1      33.709  17.490   8.173  0.00  0.00     0.198 C 
HETATM    4  C   UNK N   1      32.750  16.370   7.799  0.00  0.00     0.262 C 
HETATM    5  O   UNK N   1      32.663  15.612   8.980  0.00  0.00    -0.355 OA
ENDROOT
BRANCH   1   6
HETATM    6  C   UNK N   1      34.150  15.097  10.861  0.00  0.00     0.059 C 
BRANCH   6   7
HETATM    7  C   UNK N   1      35.368  14.204  11.156  0.00  0.00     0.076 C 
BRANCH   7   8
HETATM    8  C   UNK N   1      35.012  13.149  12.218  0.00  0.00     0.027 C 
BRANCH   8   9
HETATM    9  C   UNK N   1      36.028  12.883  13.339  0.00  0.00     0.037 C 
BRANCH   9  10
HETATM   10  C   UNK N   1      35.906  13.732  14.605  0.00  0.00     0.173 C 
BRANCH  10  11
HETATM   11  C   UNK N   1      35.133  12.962  15.635  0.00  0.00     0.163 C 
HETATM   12  O   UNK N   1      33.997  12.580  15.395  0.00  0.00    -0.648 OA
BRANCH  11  13
HETATM   13  O   UNK N   1      35.686  12.693  16.833  0.00  0.00    -0.775 OA
HETATM   14  H   UNK N   1      35.609  13.229  17.598  0.00  0.00     0.167 HD
ENDBRANCH  11  13
ENDBRANCH  10  11
BRANCH  10  15
HETATM   15  N   UNK N   1      37.220  14.066  15.128  0.00  0.00    -0.418 N 
HETATM   16  H   UNK N   1      37.522  15.017  15.338  0.00  0.00     0.150 HD
HETATM   17  H   UNK N   1      37.879  13.305  15.296  0.00  0.00     0.150 HD
ENDBRANCH  10  15
ENDBRANCH   9  10
ENDBRANCH   8   9
ENDBRANCH   7   8
BRANCH   7  18
HETATM   18  N   UNK N   1      36.480  15.040  11.579  0.00  0.00    -0.426 N 
HETATM   19  H   UNK N   1      36.892  15.766  10.993  0.00  0.00     0.150 HD
HETATM   20  H   UNK N   1      36.870  14.892  12.511  0.00  0.00     0.150 HD
ENDBRANCH   7  18
ENDBRANCH   6   7
ENDBRANCH   1   6
BRANCH   2  21
HETATM   21  O   UNK N   1      35.362  17.433   9.935  0.00  0.00    -0.390 OA
HETATM   22  H   UNK N   1      35.042  17.960  10.684  0.00  0.00     0.210 HD
ENDBRANCH   2  21
BRANCH   3  23
HETATM   23  O   UNK N   1      33.066  18.342   9.080  0.00  0.00    -0.388 OA
HETATM   24  H   UNK N   1      32.877  19.045   9.721  0.00  0.00     0.210 HD
ENDBRANCH   3  23
BRANCH   4  25
HETATM   25  N   UNK N   1      31.418  16.810   7.361  0.00  0.00    -0.297 N 
HETATM   26  C   UNK N   1      31.030  16.948   6.064  0.00  0.00     0.188 A 
HETATM   27  N   UNK N   1      29.769  17.454   5.970  0.00  0.00    -0.346 N 
HETATM   28  C   UNK N   1      29.393  17.649   7.246  0.00  0.00     0.122 A 
ATOM     29  HN  UNK N   1      29.232  17.641   5.123  1.00  0.00     0.167 HD
HETATM   30  C   UNK N   1      28.221  18.185   7.752  0.00  0.00     0.131 A 
HETATM   31  C   UNK N   1      30.379  17.263   8.080  0.00  0.00     0.142 A 
HETATM   32  N   UNK N   1      28.106  18.306   9.108  0.00  0.00    -0.337 N 
HETATM   33  C   UNK N   1      29.124  17.910   9.942  0.00  0.00     0.183 A 
ATOM     34  HN  UNK N   1      27.253  18.697   9.507  1.00  0.00     0.168 HD
HETATM   35  N   UNK N   1      30.279  17.386   9.426  0.00  0.00    -0.336 N 
ATOM     36  HN  UNK N   1      31.042  17.096  10.037  1.00  0.00     0.168 HD
BRANCH  30  37
HETATM   37  N   UNK N   1      27.182  18.614   6.901  0.00  0.00    -0.383 N 
HETATM   38  H   UNK N   1      26.342  18.105   6.835  0.00  0.00     0.157 HD
HETATM   39  H   UNK N   1      27.298  19.433   6.366  0.00  0.00     0.157 HD
ENDBRANCH  30  37
ENDBRANCH   4  25
TORSDOF 13
ENDMDL
MODEL 8
REMARK VINA RESULT:      -6.0      3.305      8.284
REMARK  13 active torsions:
REMARK  status: ('A' for Active; 'I' for Inactive)
REMARK    1  A    between atoms: C_2  and  C_1 
REMARK    2  A    between atoms: C_6  and  C_1 
REMARK    3  A    between atoms: C_7  and  C_2 
REMARK    4  A    between atoms: C_6  and  C_3 
REMARK    5  A    between atoms: C_8  and  C_3 
REMARK    6  A    between atoms: C_6  and  N_16 
REMARK    7  A    between atoms: C_15  and  C_7 
REMARK    8  A    between atoms: C_7  and  N_17 
REMARK    9  A    between atoms: C_10  and  O_26 
REMARK   10  A    between atoms: C_11  and  O_27 
REMARK   11  A    between atoms: N_18  and  C_12 
REMARK   12  A    between atoms: C_14  and  N_25 
REMARK   13  A    between atoms: O_29  and  C_15 
ROOT
HETATM    1  C   UNK N   1      34.800  14.446  10.170  0.00  0.00     0.157 C 
HETATM    2  C   UNK N   1      36.319  14.350   9.923  0.00  0.00     0.180 C 
HETATM    3  C   UNK N   1      36.842  13.868  11.267  0.00  0.00     0.198 C 
HETATM    4  C   UNK N   1      35.728  14.358  12.180  0.00  0.00     0.262 C 
HETATM    5  O   UNK N   1      34.560  13.994  11.488  0.00  0.00    -0.355 OA
ENDROOT
BRANCH   1   6
HETATM    6  C   UNK N   1      33.909  13.729   9.138  0.00  0.00     0.059 C 
BRANCH   6   7
HETATM    7  C   UNK N   1      32.500  14.339   9.040  0.00  0.00     0.076 C 
BRANCH   7   8
HETATM    8  C   UNK N   1      32.342  15.107   7.717  0.00  0.00     0.027 C 
BRANCH   8   9
HETATM    9  C   UNK N   1      31.917  16.582   7.785  0.00  0.00     0.037 C 
BRANCH   9  10
HETATM   10  C   UNK N   1      32.851  17.606   7.139  0.00  0.00     0.173 C 
BRANCH  10  11
HETATM   11  C   UNK N   1      33.918  17.981   8.124  0.00  0.00     0.163 C 
HETATM   12  O   UNK N   1      34.910  18.592   7.755  0.00  0.00    -0.648 OA
BRANCH  11  13
HETATM   13  O   UNK N   1      33.790  17.642   9.422  0.00  0.00    -0.775 OA
HETATM   14  H   UNK N   1      33.121  17.954   9.999  0.00  0.00     0.167 HD
ENDBRANCH  11  13
ENDBRANCH  10  11
BRANCH  10  15
HETATM   15  N   UNK N   1      33.463  17.057   5.941  0.00  0.00    -0.418 N 
HETATM   16  H   UNK N   1      34.127  16.282   5.947  0.00  0.00     0.150 HD
HETATM   17  H   UNK N   1      33.216  17.470   5.041  0.00  0.00     0.150 HD
ENDBRANCH  10  15
ENDBRANCH   9  10
ENDBRANCH   8   9
ENDBRANCH   7   8
BRANCH   7  18
HETATM   18  N   UNK N   1      32.270  15.197  10.191  0.00  0.00    -0.426 N 
HETATM   19  H   UNK N   1      31.467  15.820  10.276  0.00  0.00     0.150 HD
HETATM   20  H   UNK N   1      32.948  15.175  10.954  0.00  0.00     0.150 HD
ENDBRANCH   7  18
ENDBRANCH   6   7
ENDBRANCH   1   6
BRANCH   2  21
HETATM   21  O   UNK N   1      36.677  13.480   8.887  0.00  0.00    -0.390 OA
HETATM   22  H   UNK N   1      36.497  13.412   7.937  0.00  0.00     0.210 HD
ENDBRANCH   2  21
BRANCH   3  23
HETATM   23  O   UNK N   1      36.852  12.467  11.290  0.00  0.00    -0.388 OA
HETATM   24  H   UNK N   1      36.755  11.542  11.563  0.00  0.00     0.210 HD
ENDBRANCH   3  23
BRANCH   4  25
HETATM   25  N   UNK N   1      35.734  13.784  13.533  0.00  0.00    -0.297 N 
HETATM   26  C   UNK N   1      36.482  14.245  14.572  0.00  0.00     0.188 A 
HETATM   27  N   UNK N   1      36.343  13.460  15.677  0.00  0.00    -0.346 N 
HETATM   28  C   UNK N   1      35.505  12.483  15.287  0.00  0.00     0.122 A 
ATOM     29  HN  UNK N   1      36.775  13.586  16.592  1.00  0.00     0.167 HD
HETATM   30  C   UNK N   1      35.043  11.381  15.986  0.00  0.00     0.131 A 
HETATM   31  C   UNK N   1      35.139  12.677  14.004  0.00  0.00     0.142 A 
HETATM   32  N   UNK N   1      34.215  10.511  15.334  0.00  0.00    -0.337 N 
HETATM   33  C   UNK N   1      33.856  10.724  14.025  0.00  0.00     0.183 A 
ATOM     34  HN  UNK N   1      33.859   9.691  15.826  1.00  0.00     0.168 HD
HETATM   35  N   UNK N   1      34.325  11.816  13.345  0.00  0.00    -0.336 N 
ATOM     36  HN  UNK N   1      34.069  11.978  12.371  1.00  0.00     0.168 HD
BRANCH  30  37
HETATM   37  N   UNK N   1      35.425  11.146  17.322  0.00  0.00    -0.383 N 
HETATM   38  H   UNK N   1      34.758  11.154  18.046  0.00  0.00     0.157 HD
HETATM   39  H   UNK N   1      36.371  10.971  17.534  0.00  0.00     0.157 HD
ENDBRANCH  30  37
ENDBRANCH   4  25
TORSDOF 13
ENDMDL
MODEL 9
REMARK VINA RESULT:      -6.0      6.175     10.956
REMARK  13 active torsions:
REMARK  status: ('A' for Active; 'I' for Inactive)
REMARK    1  A    between atoms: C_2  and  C_1 
REMARK    2  A    between atoms: C_6  and  C_1 
REMARK    3  A    between atoms: C_7  and  C_2 
REMARK    4  A    between atoms: C_6  and  C_3 
REMARK    5  A    between atoms: C_8  and  C_3 
REMARK    6  A    between atoms: C_6  and  N_16 
REMARK    7  A    between atoms: C_15  and  C_7 
REMARK    8  A    between atoms: C_7  and  N_17 
REMARK    9  A    between atoms: C_10  and  O_26 
REMARK   10  A    between atoms: C_11  and  O_27 
REMARK   11  A    between atoms: N_18  and  C_12 
REMARK   12  A    between atoms: C_14  and  N_25 
REMARK   13  A    between atoms: O_29  and  C_15 
ROOT
HETATM    1  C   UNK N   1      25.653  17.667   3.998  0.00  0.00     0.157 C 
HETATM    2  C   UNK N   1      26.213  16.587   3.050  0.00  0.00     0.180 C 
HETATM    3  C   UNK N   1      27.570  16.281   3.664  0.00  0.00     0.198 C 
HETATM    4  C   UNK N   1      27.829  17.583   4.407  0.00  0.00     0.262 C 
HETATM    5  O   UNK N   1      26.598  17.847   5.034  0.00  0.00    -0.355 OA
ENDROOT
BRANCH   1   6
HETATM    6  C   UNK N   1      24.236  17.405   4.543  0.00  0.00     0.059 C 
BRANCH   6   7
HETATM    7  C   UNK N   1      23.304  18.619   4.389  0.00  0.00     0.076 C 
BRANCH   7   8
HETATM    8  C   UNK N   1      22.005  18.208   3.675  0.00  0.00     0.027 C 
BRANCH   8   9
HETATM    9  C   UNK N   1      20.822  19.188   3.710  0.00  0.00     0.037 C 
BRANCH   9  10
HETATM   10  C   UNK N   1      20.242  19.625   2.364  0.00  0.00     0.173 C 
BRANCH  10  11
HETATM   11  C   UNK N   1      21.129  20.681   1.771  0.00  0.00     0.163 C 
HETATM   12  O   UNK N   1      21.305  20.730   0.563  0.00  0.00    -0.648 OA
BRANCH  11  13
HETATM   13  O   UNK N   1      21.738  21.578   2.570  0.00  0.00    -0.775 OA
HETATM   14  H   UNK N   1      21.458  21.814   3.432  0.00  0.00     0.167 HD
ENDBRANCH  11  13
ENDBRANCH  10  11
BRANCH  10  15
HETATM   15  N   UNK N   1      20.150  18.496   1.453  0.00  0.00    -0.418 N 
HETATM   16  H   UNK N   1      19.349  18.321   0.847  0.00  0.00     0.150 HD
HETATM   17  H   UNK N   1      20.932  17.841   1.418  0.00  0.00     0.150 HD
ENDBRANCH  10  15
ENDBRANCH   9  10
ENDBRANCH   8   9
ENDBRANCH   7   8
BRANCH   7  18
HETATM   18  N   UNK N   1      24.004  19.671   3.670  0.00  0.00    -0.426 N 
HETATM   19  H   UNK N   1      24.633  19.493   2.886  0.00  0.00     0.150 HD
HETATM   20  H   UNK N   1      23.860  20.637   3.964  0.00  0.00     0.150 HD
ENDBRANCH   7  18
ENDBRANCH   6   7
ENDBRANCH   1   6
BRANCH   2  21
HETATM   21  O   UNK N   1      25.418  15.440   2.953  0.00  0.00    -0.390 OA
HETATM   22  H   UNK N   1      25.264  14.748   2.292  0.00  0.00     0.210 HD
ENDBRANCH   2  21
BRANCH   3  23
HETATM   23  O   UNK N   1      27.436  15.251   4.604  0.00  0.00    -0.388 OA
HETATM   24  H   UNK N   1      27.559  14.433   5.110  0.00  0.00     0.210 HD
ENDBRANCH   3  23
BRANCH   4  25
HETATM   25  N   UNK N   1      28.917  17.531   5.393  0.00  0.00    -0.297 N 
HETATM   26  C   UNK N   1      30.221  17.272   5.103  0.00  0.00     0.188 A 
HETATM   27  N   UNK N   1      30.981  17.205   6.231  0.00  0.00    -0.346 N 
HETATM   28  C   UNK N   1      30.108  17.408   7.233  0.00  0.00     0.122 A 
ATOM     29  HN  UNK N   1      31.985  17.040   6.299  1.00  0.00     0.167 HD
HETATM   30  C   UNK N   1      30.315  17.405   8.602  0.00  0.00     0.131 A 
HETATM   31  C   UNK N   1      28.872  17.604   6.733  0.00  0.00     0.142 A 
HETATM   32  N   UNK N   1      29.234  17.605   9.413  0.00  0.00    -0.337 N 
HETATM   33  C   UNK N   1      27.981  17.801   8.884  0.00  0.00     0.183 A 
ATOM     34  HN  UNK N   1      29.358  17.609  10.425  1.00  0.00     0.168 HD
HETATM   35  N   UNK N   1      27.791  17.796   7.528  0.00  0.00    -0.336 N 
ATOM     36  HN  UNK N   1      26.863  17.933   7.127  1.00  0.00     0.168 HD
BRANCH  30  37
HETATM   37  N   UNK N   1      31.594  17.183   9.151  0.00  0.00    -0.383 N 
HETATM   38  H   UNK N   1      32.007  16.290   9.123  0.00  0.00     0.157 HD
HETATM   39  H   UNK N   1      32.081  17.931   9.569  0.00  0.00     0.157 HD
ENDBRANCH  30  37
ENDBRANCH   4  25
TORSDOF 13
ENDMDL
