MODEL 1
REMARK VINA RESULT:      -6.1      0.000      0.000
REMARK  8 active torsions:
REMARK  status: ('A' for Active; 'I' for Inactive)
REMARK    1  A    between atoms: C_6  and  C_3 
REMARK    2  A    between atoms: O_20  and  C_3 
REMARK    3  A    between atoms: C_5  and  O_14 
REMARK    4  A    between atoms: C_7  and  N_13 
REMARK    5  A    between atoms: O_15  and  C_8 
REMARK    6  A    between atoms: P_22  and  O_17 
REMARK    7  A    between atoms: P_22  and  O_18 
REMARK    8  A    between atoms: P_22  and  O_20 
ROOT
HETATM    1  C   UNK N   1      31.667  15.047   5.817  0.00  0.00     0.088 C 
HETATM    2  C   UNK N   1      32.927  14.775   5.061  0.00  0.00     0.153 C 
HETATM    3  C   UNK N   1      33.598  16.153   5.089  0.00  0.00     0.177 C 
HETATM    4  C   UNK N   1      31.348  16.400   5.202  0.00  0.00     0.235 C 
HETATM    5  O   UNK N   1      32.564  17.123   5.173  0.00  0.00    -0.356 OA
ENDROOT
BRANCH   4   6
HETATM    6  N   UNK N   1      30.262  17.106   5.908  0.00  0.00    -0.281 N 
HETATM    7  C   UNK N   1      30.356  17.354   7.248  0.00  0.00     0.122 A 
HETATM    8  C   UNK N   1      29.370  18.092   7.904  0.00  0.00     0.077 A 
HETATM    9  C   UNK N   1      28.293  18.587   7.168  0.00  0.00     0.163 A 
HETATM   10 Br   UNK N   1      29.518  18.427   9.780  0.00  0.00    -0.045 Br
HETATM   11  N   UNK N   1      28.209  18.325   5.841  0.00  0.00    -0.288 N 
HETATM   12  C   UNK N   1      29.173  17.591   5.203  0.00  0.00     0.330 A 
ATOM     13  HN  UNK N   1      27.415  18.680   5.307  1.00  0.00     0.172 HD
HETATM   14  O   UNK N   1      29.076  17.396   4.002  0.00  0.00    -0.246 OA
BRANCH   9  15
HETATM   15  O   UNK N   1      27.339  19.325   7.762  0.00  0.00    -0.345 OA
HETATM   16  H   UNK N   1      27.339  20.258   7.675  0.00  0.00     0.219 HD
ENDBRANCH   9  15
ENDBRANCH   4   6
BRANCH   2  17
HETATM   17  O   UNK N   1      33.691  13.748   5.620  0.00  0.00    -0.393 OA
HETATM   18  H   UNK N   1      34.554  13.642   6.052  0.00  0.00     0.210 HD
ENDBRANCH   2  17
BRANCH   3  19
HETATM   19  C   UNK N   1      34.549  16.354   6.275  0.00  0.00     0.215 C 
BRANCH  19  20
HETATM   20  O   UNK N   1      34.576  17.698   6.695  0.00  0.00    -0.294 OA
BRANCH  20  21
HETATM   21  P   UNK N   1      34.102  17.698   8.378  0.00  0.00     0.390 P 
HETATM   22  O   UNK N   1      34.831  16.331   8.280  0.00  0.00    -0.632 OA
BRANCH  21  23
HETATM   23  O   UNK N   1      35.271  17.796   9.658  0.00  0.00    -0.307 OA
HETATM   24  H   UNK N   1      36.087  18.307   9.539  0.00  0.00     0.222 HD
ENDBRANCH  21  23
BRANCH  21  25
HETATM   25  O   UNK N   1      35.253  18.967   8.088  0.00  0.00    -0.307 OA
HETATM   26  H   UNK N   1      35.018  19.904   8.170  0.00  0.00     0.222 HD
ENDBRANCH  21  25
ENDBRANCH  20  21
ENDBRANCH  19  20
ENDBRANCH   3  19
TORSDOF 8
ENDMDL
MODEL 2
REMARK VINA RESULT:      -6.0      4.236      6.913
REMARK  8 active torsions:
REMARK  status: ('A' for Active; 'I' for Inactive)
REMARK    1  A    between atoms: C_6  and  C_3 
REMARK    2  A    between atoms: O_20  and  C_3 
REMARK    3  A    between atoms: C_5  and  O_14 
REMARK    4  A    between atoms: C_7  and  N_13 
REMARK    5  A    between atoms: O_15  and  C_8 
REMARK    6  A    between atoms: P_22  and  O_17 
REMARK    7  A    between atoms: P_22  and  O_18 
REMARK    8  A    between atoms: P_22  and  O_20 
ROOT
HETATM    1  C   UNK N   1      32.860  16.200   8.374  0.00  0.00     0.088 C 
HETATM    2  C   UNK N   1      32.279  17.300   7.547  0.00  0.00     0.153 C 
HETATM    3  C   UNK N   1      33.497  17.732   6.722  0.00  0.00     0.177 C 
HETATM    4  C   UNK N   1      34.185  16.868   8.702  0.00  0.00     0.235 C 
HETATM    5  O   UNK N   1      34.652  17.441   7.495  0.00  0.00    -0.356 OA
ENDROOT
BRANCH   4   6
HETATM    6  N   UNK N   1      35.152  15.944   9.324  0.00  0.00    -0.281 N 
HETATM    7  C   UNK N   1      35.590  14.842   8.647  0.00  0.00     0.122 A 
HETATM    8  C   UNK N   1      36.564  14.010   9.199  0.00  0.00     0.077 A 
HETATM    9  C   UNK N   1      37.096  14.328  10.450  0.00  0.00     0.163 A 
HETATM   10 Br   UNK N   1      37.163  12.471   8.237  0.00  0.00    -0.045 Br
HETATM   11  N   UNK N   1      36.645  15.420  11.113  0.00  0.00    -0.288 N 
HETATM   12  C   UNK N   1      35.681  16.228  10.573  0.00  0.00     0.330 A 
ATOM     13  HN  UNK N   1      37.030  15.645  12.031  1.00  0.00     0.172 HD
HETATM   14  O   UNK N   1      35.317  17.216  11.190  0.00  0.00    -0.246 OA
BRANCH   9  15
HETATM   15  O   UNK N   1      38.057  13.564  10.999  0.00  0.00    -0.345 OA
HETATM   16  H   UNK N   1      38.144  13.510  11.930  0.00  0.00     0.219 HD
ENDBRANCH   9  15
ENDBRANCH   4   6
BRANCH   2  17
HETATM   17  O   UNK N   1      31.180  16.894   6.788  0.00  0.00    -0.393 OA
HETATM   18  H   UNK N   1      30.977  16.691   5.860  0.00  0.00     0.210 HD
ENDBRANCH   2  17
BRANCH   3  19
HETATM   19  C   UNK N   1      33.619  17.009   5.376  0.00  0.00     0.215 C 
BRANCH  19  20
HETATM   20  O   UNK N   1      33.091  17.782   4.323  0.00  0.00    -0.294 OA
BRANCH  20  21
HETATM   21  P   UNK N   1      32.185  16.683   3.310  0.00  0.00     0.390 P 
HETATM   22  O   UNK N   1      32.678  15.717   4.421  0.00  0.00    -0.632 OA
BRANCH  21  23
HETATM   23  O   UNK N   1      30.711  15.941   3.853  0.00  0.00    -0.307 OA
HETATM   24  H   UNK N   1      30.659  15.546   4.738  0.00  0.00     0.222 HD
ENDBRANCH  21  23
BRANCH  21  25
HETATM   25  O   UNK N   1      31.113  17.851   4.021  0.00  0.00    -0.307 OA
HETATM   26  H   UNK N   1      31.236  18.180   4.925  0.00  0.00     0.222 HD
ENDBRANCH  21  25
ENDBRANCH  20  21
ENDBRANCH  19  20
ENDBRANCH   3  19
TORSDOF 8
ENDMDL
MODEL 3
REMARK VINA RESULT:      -6.0      6.189      8.484
REMARK  8 active torsions:
REMARK  status: ('A' for Active; 'I' for Inactive)
REMARK    1  A    between atoms: C_6  and  C_3 
REMARK    2  A    between atoms: O_20  and  C_3 
REMARK    3  A    between atoms: C_5  and  O_14 
REMARK    4  A    between atoms: C_7  and  N_13 
REMARK    5  A    between atoms: O_15  and  C_8 
REMARK    6  A    between atoms: P_22  and  O_17 
REMARK    7  A    between atoms: P_22  and  O_18 
REMARK    8  A    between atoms: P_22  and  O_20 
ROOT
HETATM    1  C   UNK N   1      25.274  19.874   3.025  0.00  0.00     0.088 C 
HETATM    2  C   UNK N   1      26.411  20.076   3.973  0.00  0.00     0.153 C 
HETATM    3  C   UNK N   1      26.039  19.104   5.099  0.00  0.00     0.177 C 
HETATM    4  C   UNK N   1      24.157  19.814   4.054  0.00  0.00     0.235 C 
HETATM    5  O   UNK N   1      24.624  18.985   5.102  0.00  0.00    -0.356 OA
ENDROOT
BRANCH   4   6
HETATM    6  N   UNK N   1      22.875  19.365   3.479  0.00  0.00    -0.281 N 
HETATM    7  C   UNK N   1      22.463  18.072   3.630  0.00  0.00     0.122 A 
HETATM    8  C   UNK N   1      21.215  17.664   3.158  0.00  0.00     0.077 A 
HETATM    9  C   UNK N   1      20.385  18.601   2.541  0.00  0.00     0.163 A 
HETATM   10 Br   UNK N   1      20.658  15.849   3.378  0.00  0.00    -0.045 Br
HETATM   11  N   UNK N   1      20.811  19.879   2.391  0.00  0.00    -0.288 N 
HETATM   12  C   UNK N   1      22.041  20.273   2.846  0.00  0.00     0.330 A 
ATOM     13  HN  UNK N   1      20.206  20.560   1.931  1.00  0.00     0.172 HD
HETATM   14  O   UNK N   1      22.380  21.438   2.713  0.00  0.00    -0.246 OA
BRANCH   9  15
HETATM   15  O   UNK N   1      19.165  18.250   2.100  0.00  0.00    -0.345 OA
HETATM   16  H   UNK N   1      19.011  18.117   1.186  0.00  0.00     0.219 HD
ENDBRANCH   9  15
ENDBRANCH   4   6
BRANCH   2  17
HETATM   17  O   UNK N   1      27.658  19.839   3.392  0.00  0.00    -0.393 OA
HETATM   18  H   UNK N   1      28.083  19.942   2.525  0.00  0.00     0.210 HD
ENDBRANCH   2  17
BRANCH   3  19
HETATM   19  C   UNK N   1      26.644  17.705   4.932  0.00  0.00     0.215 C 
BRANCH  19  20
HETATM   20  O   UNK N   1      27.938  17.631   5.483  0.00  0.00    -0.294 OA
BRANCH  20  21
HETATM   21  P   UNK N   1      28.869  16.606   4.417  0.00  0.00     0.390 P 
HETATM   22  O   UNK N   1      27.556  16.757   3.603  0.00  0.00    -0.632 OA
BRANCH  21  23
HETATM   23  O   UNK N   1      29.439  17.165   2.874  0.00  0.00    -0.307 OA
HETATM   24  H   UNK N   1      29.129  16.745   2.056  0.00  0.00     0.222 HD
ENDBRANCH  21  23
BRANCH  21  25
HETATM   25  O   UNK N   1      29.627  18.164   4.549  0.00  0.00    -0.307 OA
HETATM   26  H   UNK N   1      30.469  18.365   4.113  0.00  0.00     0.222 HD
ENDBRANCH  21  25
ENDBRANCH  20  21
ENDBRANCH  19  20
ENDBRANCH   3  19
TORSDOF 8
ENDMDL
MODEL 4
REMARK VINA RESULT:      -5.9     12.238     14.834
REMARK  8 active torsions:
REMARK  status: ('A' for Active; 'I' for Inactive)
REMARK    1  A    between atoms: C_6  and  C_3 
REMARK    2  A    between atoms: O_20  and  C_3 
REMARK    3  A    between atoms: C_5  and  O_14 
REMARK    4  A    between atoms: C_7  and  N_13 
REMARK    5  A    between atoms: O_15  and  C_8 
REMARK    6  A    between atoms: P_22  and  O_17 
REMARK    7  A    between atoms: P_22  and  O_18 
REMARK    8  A    between atoms: P_22  and  O_20 
ROOT
HETATM    1  C   UNK N   1      27.760  24.079  -3.310  0.00  0.00     0.088 C 
HETATM    2  C   UNK N   1      27.333  25.486  -3.578  0.00  0.00     0.153 C 
HETATM    3  C   UNK N   1      28.008  25.752  -4.929  0.00  0.00     0.177 C 
HETATM    4  C   UNK N   1      29.202  24.210  -3.774  0.00  0.00     0.235 C 
HETATM    5  O   UNK N   1      29.166  24.932  -4.990  0.00  0.00    -0.356 OA
ENDROOT
BRANCH   4   6
HETATM    6  N   UNK N   1      29.886  22.908  -3.885  0.00  0.00    -0.281 N 
HETATM    7  C   UNK N   1      29.850  22.205  -5.055  0.00  0.00     0.122 A 
HETATM    8  C   UNK N   1      30.563  21.013  -5.190  0.00  0.00     0.077 A 
HETATM    9  C   UNK N   1      31.325  20.555  -4.115  0.00  0.00     0.163 A 
HETATM   10 Br   UNK N   1      30.498  20.044  -6.836  0.00  0.00    -0.045 Br
HETATM   11  N   UNK N   1      31.344  21.259  -2.956  0.00  0.00    -0.288 N 
HETATM   12  C   UNK N   1      30.634  22.423  -2.825  0.00  0.00     0.330 A 
ATOM     13  HN  UNK N   1      31.895  20.917  -2.169  1.00  0.00     0.172 HD
HETATM   14  O   UNK N   1      30.694  23.041  -1.774  0.00  0.00    -0.246 OA
BRANCH   9  15
HETATM   15  O   UNK N   1      32.046  19.426  -4.218  0.00  0.00    -0.345 OA
HETATM   16  H   UNK N   1      31.623  18.590  -4.212  0.00  0.00     0.219 HD
ENDBRANCH   9  15
ENDBRANCH   4   6
BRANCH   2  17
HETATM   17  O   UNK N   1      25.947  25.648  -3.581  0.00  0.00    -0.393 OA
HETATM   18  H   UNK N   1      25.273  26.098  -4.115  0.00  0.00     0.210 HD
ENDBRANCH   2  17
BRANCH   3  19
HETATM   19  C   UNK N   1      27.120  25.429  -6.137  0.00  0.00     0.215 C 
BRANCH  19  20
HETATM   20  O   UNK N   1      27.508  24.225  -6.757  0.00  0.00    -0.294 OA
BRANCH  20  21
HETATM   21  P   UNK N   1      26.116  23.169  -6.697  0.00  0.00     0.390 P 
HETATM   22  O   UNK N   1      25.442  24.552  -6.493  0.00  0.00    -0.632 OA
BRANCH  21  23
HETATM   23  O   UNK N   1      24.899  23.186  -7.935  0.00  0.00    -0.307 OA
HETATM   24  H   UNK N   1      24.333  22.410  -8.076  0.00  0.00     0.222 HD
ENDBRANCH  21  23
BRANCH  21  25
HETATM   25  O   UNK N   1      26.826  23.121  -8.282  0.00  0.00    -0.307 OA
HETATM   26  H   UNK N   1      27.624  22.605  -8.473  0.00  0.00     0.222 HD
ENDBRANCH  21  25
ENDBRANCH  20  21
ENDBRANCH  19  20
ENDBRANCH   3  19
TORSDOF 8
ENDMDL
MODEL 5
REMARK VINA RESULT:      -5.9     10.151     11.847
REMARK  8 active torsions:
REMARK  status: ('A' for Active; 'I' for Inactive)
REMARK    1  A    between atoms: C_6  and  C_3 
REMARK    2  A    between atoms: O_20  and  C_3 
REMARK    3  A    between atoms: C_5  and  O_14 
REMARK    4  A    between atoms: C_7  and  N_13 
REMARK    5  A    between atoms: O_15  and  C_8 
REMARK    6  A    between atoms: P_22  and  O_17 
REMARK    7  A    between atoms: P_22  and  O_18 
REMARK    8  A    between atoms: P_22  and  O_20 
ROOT
HETATM    1  C   UNK N   1      20.068  14.778   5.386  0.00  0.00     0.088 C 
HETATM    2  C   UNK N   1      19.363  15.871   4.650  0.00  0.00     0.153 C 
HETATM    3  C   UNK N   1      20.029  17.115   5.248  0.00  0.00     0.177 C 
HETATM    4  C   UNK N   1      20.072  15.428   6.761  0.00  0.00     0.235 C 
HETATM    5  O   UNK N   1      20.446  16.778   6.563  0.00  0.00    -0.356 OA
ENDROOT
BRANCH   4   6
HETATM    6  N   UNK N   1      20.932  14.716   7.725  0.00  0.00    -0.281 N 
HETATM    7  C   UNK N   1      22.220  14.399   7.401  0.00  0.00     0.122 A 
HETATM    8  C   UNK N   1      23.062  13.799   8.338  0.00  0.00     0.077 A 
HETATM    9  C   UNK N   1      22.572  13.540   9.619  0.00  0.00     0.163 A 
HETATM   10 Br   UNK N   1      24.860  13.361   7.863  0.00  0.00    -0.045 Br
HETATM   11  N   UNK N   1      21.289  13.853   9.924  0.00  0.00    -0.288 N 
HETATM   12  C   UNK N   1      20.463  14.432   8.998  0.00  0.00     0.330 A 
ATOM     13  HN  UNK N   1      20.932  13.654  10.858  1.00  0.00     0.172 HD
HETATM   14  O   UNK N   1      19.321  14.720   9.316  0.00  0.00    -0.246 OA
BRANCH   9  15
HETATM   15  O   UNK N   1      23.363  12.989  10.556  0.00  0.00    -0.345 OA
HETATM   16  H   UNK N   1      23.653  12.103  10.471  0.00  0.00     0.219 HD
ENDBRANCH   9  15
ENDBRANCH   4   6
BRANCH   2  17
HETATM   17  O   UNK N   1      19.480  15.762   3.263  0.00  0.00    -0.393 OA
HETATM   18  H   UNK N   1      18.897  15.649   2.495  0.00  0.00     0.210 HD
ENDBRANCH   2  17
BRANCH   3  19
HETATM   19  C   UNK N   1      21.252  17.600   4.461  0.00  0.00     0.215 C 
BRANCH  19  20
HETATM   20  O   UNK N   1      21.464  18.982   4.634  0.00  0.00    -0.294 OA
BRANCH  20  21
HETATM   21  P   UNK N   1      21.176  19.724   3.078  0.00  0.00     0.390 P 
HETATM   22  O   UNK N   1      20.276  20.600   3.990  0.00  0.00    -0.632 OA
BRANCH  21  23
HETATM   23  O   UNK N   1      21.719  21.333   2.716  0.00  0.00    -0.307 OA
HETATM   24  H   UNK N   1      22.439  21.476   2.081  0.00  0.00     0.222 HD
ENDBRANCH  21  23
BRANCH  21  25
HETATM   25  O   UNK N   1      22.834  19.952   3.543  0.00  0.00    -0.307 OA
HETATM   26  H   UNK N   1      23.566  19.816   2.922  0.00  0.00     0.222 HD
ENDBRANCH  21  25
ENDBRANCH  20  21
ENDBRANCH  19  20
ENDBRANCH   3  19
TORSDOF 8
ENDMDL
MODEL 6
REMARK VINA RESULT:      -5.8      8.505     10.948
REMARK  8 active torsions:
REMARK  status: ('A' for Active; 'I' for Inactive)
REMARK    1  A    between atoms: C_6  and  C_3 
REMARK    2  A    between atoms: O_20  and  C_3 
REMARK    3  A    between atoms: C_5  and  O_14 
REMARK    4  A    between atoms: C_7  and  N_13 
REMARK    5  A    between atoms: O_15  and  C_8 
REMARK    6  A    between atoms: P_22  and  O_17 
REMARK    7  A    between atoms: P_22  and  O_18 
REMARK    8  A    between atoms: P_22  and  O_20 
ROOT
HETATM    1  C   UNK N   1      22.340  15.295   4.590  0.00  0.00     0.088 C 
HETATM    2  C   UNK N   1      22.294  14.316   5.718  0.00  0.00     0.153 C 
HETATM    3  C   UNK N   1      22.036  15.244   6.911  0.00  0.00     0.177 C 
HETATM    4  C   UNK N   1      23.145  16.377   5.291  0.00  0.00     0.235 C 
HETATM    5  O   UNK N   1      22.592  16.510   6.587  0.00  0.00    -0.356 OA
ENDROOT
BRANCH   4   6
HETATM    6  N   UNK N   1      23.178  17.644   4.535  0.00  0.00    -0.281 N 
HETATM    7  C   UNK N   1      22.032  18.163   4.006  0.00  0.00     0.122 A 
HETATM    8  C   UNK N   1      22.045  19.400   3.360  0.00  0.00     0.077 A 
HETATM    9  C   UNK N   1      23.245  20.107   3.276  0.00  0.00     0.163 A 
HETATM   10 Br   UNK N   1      20.430  20.110   2.624  0.00  0.00    -0.045 Br
HETATM   11  N   UNK N   1      24.377  19.574   3.800  0.00  0.00    -0.288 N 
HETATM   12  C   UNK N   1      24.362  18.355   4.422  0.00  0.00     0.330 A 
ATOM     13  HN  UNK N   1      25.254  20.090   3.728  1.00  0.00     0.172 HD
HETATM   14  O   UNK N   1      25.396  17.919   4.901  0.00  0.00    -0.246 OA
BRANCH   9  15
HETATM   15  O   UNK N   1      23.289  21.314   2.687  0.00  0.00    -0.345 OA
HETATM   16  H   UNK N   1      23.529  22.074   3.178  0.00  0.00     0.219 HD
ENDBRANCH   9  15
ENDBRANCH   4   6
BRANCH   2  17
HETATM   17  O   UNK N   1      21.332  13.320   5.541  0.00  0.00    -0.393 OA
HETATM   18  H   UNK N   1      20.967  12.788   4.815  0.00  0.00     0.210 HD
ENDBRANCH   2  17
BRANCH   3  19
HETATM   19  C   UNK N   1      20.550  15.436   7.235  0.00  0.00     0.215 C 
BRANCH  19  20
HETATM   20  O   UNK N   1      19.994  14.280   7.819  0.00  0.00    -0.294 OA
BRANCH  20  21
HETATM   21  P   UNK N   1      20.723  14.128   9.401  0.00  0.00     0.390 P 
HETATM   22  O   UNK N   1      19.237  14.360   9.785  0.00  0.00    -0.632 OA
BRANCH  21  23
HETATM   23  O   UNK N   1      20.383  12.779  10.440  0.00  0.00    -0.307 OA
HETATM   24  H   UNK N   1      19.580  12.770  10.985  0.00  0.00     0.222 HD
ENDBRANCH  21  23
BRANCH  21  25
HETATM   25  O   UNK N   1      20.851  12.622   8.544  0.00  0.00    -0.307 OA
HETATM   26  H   UNK N   1      20.105  12.245   8.053  0.00  0.00     0.222 HD
ENDBRANCH  21  25
ENDBRANCH  20  21
ENDBRANCH  19  20
ENDBRANCH   3  19
TORSDOF 8
ENDMDL
MODEL 7
REMARK VINA RESULT:      -5.8      2.094      2.781
REMARK  8 active torsions:
REMARK  status: ('A' for Active; 'I' for Inactive)
REMARK    1  A    between atoms: C_6  and  C_3 
REMARK    2  A    between atoms: O_20  and  C_3 
REMARK    3  A    between atoms: C_5  and  O_14 
REMARK    4  A    between atoms: C_7  and  N_13 
REMARK    5  A    between atoms: O_15  and  C_8 
REMARK    6  A    between atoms: P_22  and  O_17 
REMARK    7  A    between atoms: P_22  and  O_18 
REMARK    8  A    between atoms: P_22  and  O_20 
ROOT
HETATM    1  C   UNK N   1      33.350  15.699   7.027  0.00  0.00     0.088 C 
HETATM    2  C   UNK N   1      34.767  15.995   7.394  0.00  0.00     0.153 C 
HETATM    3  C   UNK N   1      34.600  17.262   8.241  0.00  0.00     0.177 C 
HETATM    4  C   UNK N   1      32.911  17.125   6.735  0.00  0.00     0.235 C 
HETATM    5  O   UNK N   1      33.431  17.924   7.781  0.00  0.00    -0.356 OA
ENDROOT
BRANCH   4   6
HETATM    6  N   UNK N   1      31.451  17.250   6.571  0.00  0.00    -0.281 N 
HETATM    7  C   UNK N   1      30.638  17.353   7.664  0.00  0.00     0.122 A 
HETATM    8  C   UNK N   1      29.265  17.553   7.512  0.00  0.00     0.077 A 
HETATM    9  C   UNK N   1      28.736  17.662   6.226  0.00  0.00     0.163 A 
HETATM   10 Br   UNK N   1      28.145  17.691   9.054  0.00  0.00    -0.045 Br
HETATM   11  N   UNK N   1      29.554  17.550   5.151  0.00  0.00    -0.288 N 
HETATM   12  C   UNK N   1      30.898  17.342   5.304  0.00  0.00     0.330 A 
ATOM     13  HN  UNK N   1      29.162  17.621   4.211  1.00  0.00     0.172 HD
HETATM   14  O   UNK N   1      31.607  17.270   4.312  0.00  0.00    -0.246 OA
BRANCH   9  15
HETATM   15  O   UNK N   1      27.423  17.883   6.042  0.00  0.00    -0.345 OA
HETATM   16  H   UNK N   1      27.028  17.733   5.206  0.00  0.00     0.219 HD
ENDBRANCH   9  15
ENDBRANCH   4   6
BRANCH   2  17
HETATM   17  O   UNK N   1      35.396  14.937   8.053  0.00  0.00    -0.393 OA
HETATM   18  H   UNK N   1      35.745  14.742   8.938  0.00  0.00     0.210 HD
ENDBRANCH   2  17
BRANCH   3  19
HETATM   19  C   UNK N   1      34.443  16.986   9.741  0.00  0.00     0.215 C 
BRANCH  19  20
HETATM   20  O   UNK N   1      35.663  17.146  10.427  0.00  0.00    -0.294 OA
BRANCH  20  21
HETATM   21  P   UNK N   1      35.764  15.826  11.568  0.00  0.00     0.390 P 
HETATM   22  O   UNK N   1      34.482  15.437  10.784  0.00  0.00    -0.632 OA
BRANCH  21  23
HETATM   23  O   UNK N   1      36.106  14.201  11.060  0.00  0.00    -0.307 OA
HETATM   24  H   UNK N   1      36.057  13.961  10.121  0.00  0.00     0.222 HD
ENDBRANCH  21  23
BRANCH  21  25
HETATM   25  O   UNK N   1      37.120  15.774  10.483  0.00  0.00    -0.307 OA
HETATM   26  H   UNK N   1      38.022  15.972  10.777  0.00  0.00     0.222 HD
ENDBRANCH  21  25
ENDBRANCH  20  21
ENDBRANCH  19  20
ENDBRANCH   3  19
TORSDOF 8
ENDMDL
MODEL 8
REMARK VINA RESULT:      -5.8      6.228      8.003
REMARK  8 active torsions:
REMARK  status: ('A' for Active; 'I' for Inactive)
REMARK    1  A    between atoms: C_6  and  C_3 
REMARK    2  A    between atoms: O_20  and  C_3 
REMARK    3  A    between atoms: C_5  and  O_14 
REMARK    4  A    between atoms: C_7  and  N_13 
REMARK    5  A    between atoms: O_15  and  C_8 
REMARK    6  A    between atoms: P_22  and  O_17 
REMARK    7  A    between atoms: P_22  and  O_18 
REMARK    8  A    between atoms: P_22  and  O_20 
ROOT
HETATM    1  C   UNK N   1      35.792  15.420  11.771  0.00  0.00     0.088 C 
HETATM    2  C   UNK N   1      35.996  16.090  10.451  0.00  0.00     0.153 C 
HETATM    3  C   UNK N   1      35.019  15.311   9.564  0.00  0.00     0.177 C 
HETATM    4  C   UNK N   1      35.723  13.988  11.265  0.00  0.00     0.235 C 
HETATM    5  O   UNK N   1      34.892  14.010  10.119  0.00  0.00    -0.356 OA
ENDROOT
BRANCH   4   6
HETATM    6  N   UNK N   1      35.270  13.039  12.299  0.00  0.00    -0.281 N 
HETATM    7  C   UNK N   1      35.327  13.376  13.621  0.00  0.00     0.122 A 
HETATM    8  C   UNK N   1      34.826  12.514  14.597  0.00  0.00     0.077 A 
HETATM    9  C   UNK N   1      34.250  11.306  14.201  0.00  0.00     0.163 A 
HETATM   10 Br   UNK N   1      34.917  13.004  16.442  0.00  0.00    -0.045 Br
HETATM   11  N   UNK N   1      34.208  10.982  12.886  0.00  0.00    -0.288 N 
HETATM   12  C   UNK N   1      34.711  11.825  11.932  0.00  0.00     0.330 A 
ATOM     13  HN  UNK N   1      33.794  10.093  12.601  1.00  0.00     0.172 HD
HETATM   14  O   UNK N   1      34.634  11.508  10.756  0.00  0.00    -0.246 OA
BRANCH   9  15
HETATM   15  O   UNK N   1      33.731  10.465  15.111  0.00  0.00    -0.345 OA
HETATM   16  H   UNK N   1      33.135  10.778  15.762  0.00  0.00     0.219 HD
ENDBRANCH   9  15
ENDBRANCH   4   6
BRANCH   2  17
HETATM   17  O   UNK N   1      35.768  17.467  10.494  0.00  0.00    -0.393 OA
HETATM   18  H   UNK N   1      35.955  18.248   9.949  0.00  0.00     0.210 HD
ENDBRANCH   2  17
BRANCH   3  19
HETATM   19  C   UNK N   1      33.623  15.941   9.481  0.00  0.00     0.215 C 
BRANCH  19  20
HETATM   20  O   UNK N   1      33.647  17.162   8.779  0.00  0.00    -0.294 OA
BRANCH  20  21
HETATM   21  P   UNK N   1      34.161  16.786   7.152  0.00  0.00     0.390 P 
HETATM   22  O   UNK N   1      32.627  16.916   6.950  0.00  0.00    -0.632 OA
BRANCH  21  23
HETATM   23  O   UNK N   1      34.043  17.943   5.863  0.00  0.00    -0.307 OA
HETATM   24  H   UNK N   1      33.554  17.727   5.053  0.00  0.00     0.222 HD
ENDBRANCH  21  23
BRANCH  21  25
HETATM   25  O   UNK N   1      34.795  18.331   7.629  0.00  0.00    -0.307 OA
HETATM   26  H   UNK N   1      35.727  18.567   7.501  0.00  0.00     0.222 HD
ENDBRANCH  21  25
ENDBRANCH  20  21
ENDBRANCH  19  20
ENDBRANCH   3  19
TORSDOF 8
ENDMDL
MODEL 9
REMARK VINA RESULT:      -5.7      3.474      5.114
REMARK  8 active torsions:
REMARK  status: ('A' for Active; 'I' for Inactive)
REMARK    1  A    between atoms: C_6  and  C_3 
REMARK    2  A    between atoms: O_20  and  C_3 
REMARK    3  A    between atoms: C_5  and  O_14 
REMARK    4  A    between atoms: C_7  and  N_13 
REMARK    5  A    between atoms: O_15  and  C_8 
REMARK    6  A    between atoms: P_22  and  O_17 
REMARK    7  A    between atoms: P_22  and  O_18 
REMARK    8  A    between atoms: P_22  and  O_20 
ROOT
HETATM    1  C   UNK N   1      33.869  17.773   6.721  0.00  0.00     0.088 C 
HETATM    2  C   UNK N   1      33.943  18.395   8.077  0.00  0.00     0.153 C 
HETATM    3  C   UNK N   1      33.604  17.199   8.975  0.00  0.00     0.177 C 
HETATM    4  C   UNK N   1      32.624  16.931   6.949  0.00  0.00     0.235 C 
HETATM    5  O   UNK N   1      32.778  16.326   8.219  0.00  0.00    -0.356 OA
ENDROOT
BRANCH   4   6
HETATM    6  N   UNK N   1      32.383  15.963   5.863  0.00  0.00    -0.281 N 
HETATM    7  C   UNK N   1      33.427  15.464   5.136  0.00  0.00     0.122 A 
HETATM    8  C   UNK N   1      33.213  14.488   4.163  0.00  0.00     0.077 A 
HETATM    9  C   UNK N   1      31.916  14.016   3.952  0.00  0.00     0.163 A 
HETATM   10 Br   UNK N   1      34.686  13.805   3.156  0.00  0.00    -0.045 Br
HETATM   11  N   UNK N   1      30.890  14.526   4.675  0.00  0.00    -0.288 N 
HETATM   12  C   UNK N   1      31.102  15.492   5.621  0.00  0.00     0.330 A 
ATOM     13  HN  UNK N   1      29.942  14.185   4.511  1.00  0.00     0.172 HD
HETATM   14  O   UNK N   1      30.156  15.911   6.269  0.00  0.00    -0.246 OA
BRANCH   9  15
HETATM   15  O   UNK N   1      31.677  13.056   3.042  0.00  0.00    -0.345 OA
HETATM   16  H   UNK N   1      31.879  12.161   3.232  0.00  0.00     0.219 HD
ENDBRANCH   9  15
ENDBRANCH   4   6
BRANCH   2  17
HETATM   17  O   UNK N   1      35.179  18.986   8.343  0.00  0.00    -0.393 OA
HETATM   18  H   UNK N   1      35.877  19.452   7.856  0.00  0.00     0.210 HD
ENDBRANCH   2  17
BRANCH   3  19
HETATM   19  C   UNK N   1      34.833  16.415   9.450  0.00  0.00     0.215 C 
BRANCH  19  20
HETATM   20  O   UNK N   1      34.810  16.212  10.844  0.00  0.00    -0.294 OA
BRANCH  20  21
HETATM   21  P   UNK N   1      35.102  14.507  11.099  0.00  0.00     0.390 P 
HETATM   22  O   UNK N   1      35.878  15.119  12.297  0.00  0.00    -0.632 OA
BRANCH  21  23
HETATM   23  O   UNK N   1      34.436  13.657  12.458  0.00  0.00    -0.307 OA
HETATM   24  H   UNK N   1      34.762  13.835  13.355  0.00  0.00     0.222 HD
ENDBRANCH  21  23
BRANCH  21  25
HETATM   25  O   UNK N   1      33.411  14.853  11.293  0.00  0.00    -0.307 OA
HETATM   26  H   UNK N   1      32.779  14.181  11.593  0.00  0.00     0.222 HD
ENDBRANCH  21  25
ENDBRANCH  20  21
ENDBRANCH  19  20
ENDBRANCH   3  19
TORSDOF 8
ENDMDL
