REMARK  11 active torsions:
REMARK  status: ('A' for Active; 'I' for Inactive)
REMARK    1  A    between atoms: C_6  and  C_7 
REMARK    2  A    between atoms: C_7  and  N_8 
REMARK    3  A    between atoms: C_11  and  C_12 
REMARK    4  A    between atoms: C_12  and  C_13 
REMARK    5  A    between atoms: C_13  and  O_14 
REMARK    6  A    between atoms: P_15  and  O_14 
REMARK    7  A    between atoms: P_15  and  O_16 
REMARK    8  A    between atoms: P_15  and  O_18 
REMARK    9  A    between atoms: O_18  and  P_19 
REMARK   10  A    between atoms: P_19  and  O_20 
REMARK   11  A    between atoms: C_25  and  N_26 
ROOT
HETATM    1  N   UNK N   1      -3.204   4.349   0.074  0.00  0.00    -0.349 N 
HETATM    2  C   UNK N   1      -3.928   5.434   0.474  0.00  0.00     0.141 A 
HETATM    3  S   UNK N   1      -3.260   6.781  -0.216  0.00  0.00    -0.087 SA
HETATM    4  C   UNK N   1      -2.029   6.038  -1.023  0.00  0.00     0.008 A 
HETATM    5  C   UNK N   1      -2.154   4.671  -0.763  0.00  0.00     0.021 A 
HETATM    6  C   UNK N   1      -1.181   3.657  -1.272  0.00  0.00     0.069 C 
ENDROOT
BRANCH   1   7
HETATM    7  C   UNK N   1      -3.405   3.003   0.616  0.00  0.00     0.172 C 
BRANCH   7   8
HETATM    8  C   UNK N   1      -4.835   2.544   0.627  0.00  0.00     0.019 A 
HETATM    9  C   UNK N   1      -5.815   3.311   1.257  0.00  0.00     0.102 A 
HETATM   10  N   UNK N   1      -7.096   2.867   1.319  0.00  0.00    -0.355 N 
HETATM   11  C   UNK N   1      -7.437   1.667   0.786  0.00  0.00     0.078 A 
ATOM     12  HN  UNK N   1      -7.808   3.441   1.770  1.00  0.00     0.166 HD
HETATM   13  C   UNK N   1      -8.842   1.191   0.884  0.00  0.00     0.089 C 
HETATM   14  N   UNK N   1      -6.499   0.894   0.180  0.00  0.00    -0.332 N 
HETATM   15  C   UNK N   1      -5.205   1.307   0.087  0.00  0.00     0.109 A 
ATOM     16  HN  UNK N   1      -6.769  -0.008  -0.212  1.00  0.00     0.168 HD
BRANCH  15  17
HETATM   17  N   UNK N   1      -4.248   0.468  -0.519  0.00  0.00    -0.385 N 
HETATM   18  H   UNK N   1      -4.421  -0.404  -0.943  0.00  0.00     0.157 HD
HETATM   19  H   UNK N   1      -3.315   0.785  -0.519  0.00  0.00     0.157 HD
ENDBRANCH  15  17
ENDBRANCH   7   8
ENDBRANCH   1   7
BRANCH   4  20
HETATM   20  C   UNK N   1      -0.905   6.710  -1.726  0.00  0.00     0.075 C 
BRANCH  20  21
HETATM   21  C   UNK N   1      -0.021   7.404  -0.686  0.00  0.00     0.185 C 
BRANCH  21  22
HETATM   22  O   UNK N   1       0.339   6.524   0.355  0.00  0.00    -0.296 OA
BRANCH  22  23
HETATM   23  P   UNK N   1       1.786   5.733  -0.196  0.00  0.00     0.402 P 
HETATM   24  O   UNK N   1       2.362   6.766   0.812  0.00  0.00    -0.631 OA
BRANCH  23  25
HETATM   25  O   UNK N   1       0.859   4.599   0.741  0.00  0.00    -0.307 OA
HETATM   26  H   UNK N   1       0.052   4.731   1.264  0.00  0.00     0.222 HD
ENDBRANCH  23  25
BRANCH  23  27
HETATM   27  O   UNK N   1       2.861   4.753   0.758  0.00  0.00    -0.188 OA
BRANCH  27  28
HETATM   28  P   UNK N   1       4.296   4.475  -0.213  0.00  0.00     0.414 P 
HETATM   29  O   UNK N   1       4.345   2.863  -0.853  0.00  0.00    -0.624 OA
HETATM   30  O   UNK N   1       4.337   5.448  -1.427  0.00  0.00    -0.624 OA
BRANCH  28  31
HETATM   31  O   UNK N   1       5.728   4.806   0.709  0.00  0.00    -0.300 OA
HETATM   32  H   UNK N   1       6.288   4.205   1.224  0.00  0.00     0.223 HD
ENDBRANCH  28  31
ENDBRANCH  27  28
ENDBRANCH  23  27
ENDBRANCH  22  23
ENDBRANCH  21  22
ENDBRANCH  20  21
ENDBRANCH   4  20
TORSDOF 11
