REMARK  11 active torsions:
REMARK  status: ('A' for Active; 'I' for Inactive)
REMARK    1  A    between atoms: C_3  and  C_1 
REMARK    2  A    between atoms: O_6  and  C_1 
REMARK    3  A    between atoms: C_4  and  C_2 
REMARK    4  A    between atoms: O_13  and  C_2 
REMARK    5  A    between atoms: C_5  and  C_3 
REMARK    6  A    between atoms: C_5  and  C_4 
REMARK    7  A    between atoms: C_4  and  O_8 
REMARK    8  A    between atoms: C_5  and  O_9 
REMARK    9  A    between atoms: P_14  and  O_10 
REMARK   10  A    between atoms: P_14  and  O_11 
REMARK   11  A    between atoms: P_14  and  O_13 
ROOT
HETATM    1  C   UNK N   1       1.068  -1.272   0.509  0.00  0.00     0.178 C 
ENDROOT
BRANCH   1   2
HETATM    2  C   UNK N   1       2.280  -0.455   0.955  0.00  0.00     0.215 C 
BRANCH   2   3
HETATM    3  O   UNK N   1       2.987   0.089  -0.123  0.00  0.00    -0.294 OA
BRANCH   3   4
HETATM    4  P   UNK N   1       4.594   0.318   0.506  0.00  0.00     0.390 P 
HETATM    5  O   UNK N   1       4.185   1.768   0.133  0.00  0.00    -0.632 OA
BRANCH   4   6
HETATM    6  O   UNK N   1       5.904   0.832  -0.509  0.00  0.00    -0.307 OA
HETATM    7  H   UNK N   1       6.519   0.342  -1.076  0.00  0.00     0.222 HD
ENDBRANCH   4   6
BRANCH   4   8
HETATM    8  O   UNK N   1       4.672  -0.647  -0.935  0.00  0.00    -0.307 OA
HETATM    9  H   UNK N   1       4.226  -0.955  -1.740  0.00  0.00     0.222 HD
ENDBRANCH   4   8
ENDBRANCH   3   4
ENDBRANCH   2   3
ENDBRANCH   1   2
BRANCH   1  10
HETATM   10  C   UNK N   1      -0.062  -0.392  -0.063  0.00  0.00     0.220 C 
BRANCH  10  11
HETATM   11  C   UNK N   1      -1.301  -1.221  -0.349  0.00  0.00     0.181 C 
HETATM   12  O   UNK N   1      -1.238  -2.154  -1.134  0.00  0.00    -0.293 OA
BRANCH  11  13
HETATM   13  C   UNK N   1      -2.611  -0.931   0.319  0.00  0.00     0.245 C 
BRANCH  13  14
HETATM   14  O   UNK N   1      -3.099   0.307  -0.101  0.00  0.00    -0.393 OA
HETATM   15  H   UNK N   1      -2.524   1.031  -0.392  0.00  0.00     0.209 HD
ENDBRANCH  13  14
ENDBRANCH  11  13
ENDBRANCH  10  11
BRANCH  10  16
HETATM   16  O   UNK N   1      -0.368   0.620   0.854  0.00  0.00    -0.385 OA
HETATM   17  H   UNK N   1       0.133   1.154   1.490  0.00  0.00     0.210 HD
ENDBRANCH  10  16
ENDBRANCH   1  10
BRANCH   1  18
HETATM   18  O   UNK N   1       1.470  -2.230  -0.427  0.00  0.00    -0.390 OA
HETATM   19  H   UNK N   1       1.034  -2.804  -1.076  0.00  0.00     0.210 HD
ENDBRANCH   1  18
TORSDOF 11
