REMARK  1 active torsions:
REMARK  status: ('A' for Active; 'I' for Inactive)
REMARK    1  A    between atoms: O_1  and  C_2 
ROOT
HETATM    1  C   UNK N   1       1.785  -0.307   0.000  0.00  0.00     0.067 A 
HETATM    2  C   UNK N   1       0.613  -1.072  -0.000  0.00  0.00     0.036 A 
HETATM    3  C   UNK N   1      -0.635  -0.439  -0.000  0.00  0.00     0.004 A 
HETATM    4  C   UNK N   1      -0.709   0.957  -0.000  0.00  0.00     0.024 A 
HETATM    5  C   UNK N   1       0.464   1.719   0.000  0.00  0.00     0.036 A 
HETATM    6 Cl   UNK N   1       0.377   3.464  -0.000  0.00  0.00    -0.084 Cl
HETATM    7  C   UNK N   1       1.710   1.087   0.000  0.00  0.00     0.060 A 
ENDROOT
BRANCH   1   8
HETATM    8  O   UNK N   1       2.983  -0.912  -0.000  0.00  0.00    -0.361 OA
HETATM    9  H   UNK N   1       3.036  -1.848  -0.000  0.00  0.00     0.217 HD
ENDBRANCH   1   8
TORSDOF 1
