MODEL 1
REMARK VINA RESULT:      -9.3      0.000      0.000
REMARK  5 active torsions:
REMARK  status: ('A' for Active; 'I' for Inactive)
REMARK    1  A    between atoms: C_9  and  N_13 
REMARK    2  A    between atoms: C_16  and  C_17 
REMARK    3  A    between atoms: C_17  and  C_18 
REMARK    4  A    between atoms: C_18  and  C_19 
REMARK    5  A    between atoms: N_27  and  C_28 
ROOT
HETATM    1  N   UNK N   1      21.805  15.856   5.850  0.00  0.00    -0.172 N 
HETATM    2  N   UNK N   1      21.346  15.948   7.086  0.00  0.00    -0.261 N 
ATOM      3  HN  UNK N   1      21.060  16.797   7.573  1.00  0.00     0.191 HD
HETATM    4  C   UNK N   1      21.332  14.698   7.569  0.00  0.00     0.137 A 
HETATM    5  N   UNK N   1      21.779  13.828   6.643  0.00  0.00    -0.259 N 
ATOM      6  HN  UNK N   1      21.875  12.817   6.739  1.00  0.00     0.191 HD
HETATM    7  N   UNK N   1      22.069  14.567   5.578  0.00  0.00    -0.149 N 
ENDROOT
BRANCH   1   8
HETATM    8  C   UNK N   1      21.937  17.065   5.054  0.00  0.00     0.078 A 
HETATM    9  C   UNK N   1      20.841  17.484   4.280  0.00  0.00     0.051 A 
HETATM   10  C   UNK N   1      20.911  18.642   3.492  0.00  0.00     0.051 A 
HETATM   11  C   UNK N   1      19.823  19.065   2.719  0.00  0.00     0.271 A 
HETATM   12  C   UNK N   1      22.095  19.401   3.473  0.00  0.00     0.049 A 
HETATM   13  N   UNK N   1      19.936  20.203   1.964  0.00  0.00    -0.263 N 
HETATM   14  O   UNK N   1      18.781  18.433   2.710  0.00  0.00    -0.266 OA
HETATM   15  N   UNK N   1      21.061  20.921   1.948  0.00  0.00    -0.263 N 
HETATM   16  H   UNK N   1      19.169  20.498   1.422  0.00  0.00     0.190 HD
HETATM   17  C   UNK N   1      22.155  20.553   2.685  0.00  0.00     0.271 A 
HETATM   18  H   UNK N   1      21.105  21.734   1.393  0.00  0.00     0.190 HD
HETATM   19  O   UNK N   1      23.167  21.233   2.647  0.00  0.00    -0.266 OA
HETATM   20  C   UNK N   1      23.186  18.990   4.239  0.00  0.00     0.020 A 
HETATM   21  C   UNK N   1      23.096  17.837   5.014  0.00  0.00     0.034 A 
ENDBRANCH   1   8
BRANCH   7  22
HETATM   22  C   UNK N   1      22.585  13.964   4.366  0.00  0.00     0.191 A 
HETATM   23  N   UNK N   1      22.095  14.173   3.121  0.00  0.00    -0.333 N 
HETATM   24  C   UNK N   1      22.775  13.475   2.161  0.00  0.00     0.051 A 
ATOM     25  HN  UNK N   1      21.304  14.785   2.921  1.00  0.00     0.168 HD
HETATM   26  C   UNK N   1      23.826  12.693   2.629  0.00  0.00     0.035 A 
HETATM   27  C   UNK N   1      22.466  13.520   0.805  0.00  0.00     0.031 A 
HETATM   28  S   UNK N   1      23.874  12.904   4.272  0.00  0.00    -0.048 SA
HETATM   29  C   UNK N   1      24.610  11.927   1.773  0.00  0.00     0.021 A 
HETATM   30  C   UNK N   1      24.306  11.964   0.399  0.00  0.00     0.002 A 
HETATM   31  C   UNK N   1      23.240  12.756  -0.081  0.00  0.00     0.002 A 
ENDBRANCH   7  22
BRANCH   4  32
HETATM   32  C   UNK N   1      20.885  14.365   8.925  0.00  0.00     0.052 C 
BRANCH  32  33
HETATM   33  C   UNK N   1      21.088  13.118   9.365  0.00  0.00     0.015 C 
BRANCH  33  34
HETATM   34  C   UNK N   1      22.219  12.707  10.200  0.00  0.00    -0.036 A 
HETATM   35  C   UNK N   1      23.510  12.790   9.666  0.00  0.00     0.011 A 
HETATM   36  C   UNK N   1      24.615  12.408  10.430  0.00  0.00     0.001 A 
HETATM   37  C   UNK N   1      24.432  11.941  11.735  0.00  0.00     0.000 A 
HETATM   38  C   UNK N   1      23.143  11.856  12.274  0.00  0.00     0.001 A 
HETATM   39  C   UNK N   1      22.037  12.239  11.509  0.00  0.00     0.011 A 
ENDBRANCH  33  34
ENDBRANCH  32  33
ENDBRANCH   4  32
TORSDOF 5
ENDMDL
MODEL 2
REMARK VINA RESULT:      -9.2     13.197     15.272
REMARK  5 active torsions:
REMARK  status: ('A' for Active; 'I' for Inactive)
REMARK    1  A    between atoms: C_9  and  N_13 
REMARK    2  A    between atoms: C_16  and  C_17 
REMARK    3  A    between atoms: C_17  and  C_18 
REMARK    4  A    between atoms: C_18  and  C_19 
REMARK    5  A    between atoms: N_27  and  C_28 
ROOT
HETATM    1  N   UNK N   1      35.775  14.131  11.463  0.00  0.00    -0.172 N 
HETATM    2  N   UNK N   1      35.403  14.277  12.722  0.00  0.00    -0.261 N 
ATOM      3  HN  UNK N   1      34.540  14.703  13.062  1.00  0.00     0.191 HD
HETATM    4  C   UNK N   1      36.389  13.754  13.463  0.00  0.00     0.137 A 
HETATM    5  N   UNK N   1      37.373  13.282  12.674  0.00  0.00    -0.259 N 
ATOM      6  HN  UNK N   1      38.241  12.833  12.968  1.00  0.00     0.191 HD
HETATM    7  N   UNK N   1      36.974  13.525  11.431  0.00  0.00    -0.149 N 
ENDROOT
BRANCH   1   8
HETATM    8  C   UNK N   1      34.899  14.610  10.407  0.00  0.00     0.078 A 
HETATM    9  C   UNK N   1      35.048  15.933   9.956  0.00  0.00     0.051 A 
HETATM   10  C   UNK N   1      34.231  16.449   8.941  0.00  0.00     0.051 A 
HETATM   11  C   UNK N   1      34.375  17.765   8.487  0.00  0.00     0.271 A 
HETATM   12  C   UNK N   1      33.244  15.633   8.359  0.00  0.00     0.049 A 
HETATM   13  N   UNK N   1      33.554  18.228   7.492  0.00  0.00    -0.263 N 
HETATM   14  O   UNK N   1      35.219  18.502   8.967  0.00  0.00    -0.266 OA
HETATM   15  N   UNK N   1      32.618  17.452   6.942  0.00  0.00    -0.263 N 
HETATM   16  H   UNK N   1      33.658  19.154   7.176  0.00  0.00     0.190 HD
HETATM   17  C   UNK N   1      32.435  16.156   7.347  0.00  0.00     0.271 A 
HETATM   18  H   UNK N   1      32.046  17.818   6.228  0.00  0.00     0.190 HD
HETATM   19  O   UNK N   1      31.570  15.475   6.823  0.00  0.00    -0.266 OA
HETATM   20  C   UNK N   1      33.090  14.319   8.801  0.00  0.00     0.020 A 
HETATM   21  C   UNK N   1      33.912  13.826   9.811  0.00  0.00     0.034 A 
ENDBRANCH   1   8
BRANCH   7  22
HETATM   22  C   UNK N   1      37.791  13.150  10.295  0.00  0.00     0.191 A 
HETATM   23  N   UNK N   1      38.293  14.009   9.377  0.00  0.00    -0.333 N 
HETATM   24  C   UNK N   1      39.029  13.381   8.411  0.00  0.00     0.051 A 
ATOM     25  HN  UNK N   1      38.139  15.017   9.403  1.00  0.00     0.168 HD
HETATM   26  C   UNK N   1      39.127  12.000   8.544  0.00  0.00     0.035 A 
HETATM   27  C   UNK N   1      39.651  14.042   7.356  0.00  0.00     0.031 A 
HETATM   28  S   UNK N   1      38.266  11.596   9.902  0.00  0.00    -0.048 SA
HETATM   29  C   UNK N   1      39.842  11.222   7.640  0.00  0.00     0.021 A 
HETATM   30  C   UNK N   1      40.475  11.881   6.568  0.00  0.00     0.002 A 
HETATM   31  C   UNK N   1      40.379  13.283   6.428  0.00  0.00     0.002 A 
ENDBRANCH   7  22
BRANCH   4  32
HETATM   32  C   UNK N   1      36.363  13.718  14.929  0.00  0.00     0.052 C 
BRANCH  32  33
HETATM   33  C   UNK N   1      35.342  13.092  15.524  0.00  0.00     0.015 C 
BRANCH  33  34
HETATM   34  C   UNK N   1      35.343  12.645  16.920  0.00  0.00    -0.036 A 
HETATM   35  C   UNK N   1      35.150  13.598  17.926  0.00  0.00     0.011 A 
HETATM   36  C   UNK N   1      35.145  13.212  19.269  0.00  0.00     0.001 A 
HETATM   37  C   UNK N   1      35.333  11.870  19.609  0.00  0.00     0.000 A 
HETATM   38  C   UNK N   1      35.526  10.913  18.606  0.00  0.00     0.001 A 
HETATM   39  C   UNK N   1      35.531  11.299  17.262  0.00  0.00     0.011 A 
ENDBRANCH  33  34
ENDBRANCH  32  33
ENDBRANCH   4  32
TORSDOF 5
ENDMDL
MODEL 3
REMARK VINA RESULT:      -9.2      2.801      3.879
REMARK  5 active torsions:
REMARK  status: ('A' for Active; 'I' for Inactive)
REMARK    1  A    between atoms: C_9  and  N_13 
REMARK    2  A    between atoms: C_16  and  C_17 
REMARK    3  A    between atoms: C_17  and  C_18 
REMARK    4  A    between atoms: C_18  and  C_19 
REMARK    5  A    between atoms: N_27  and  C_28 
ROOT
HETATM    1  N   UNK N   1      22.604  15.406   5.865  0.00  0.00    -0.172 N 
HETATM    2  N   UNK N   1      21.775  14.498   6.347  0.00  0.00    -0.261 N 
ATOM      3  HN  UNK N   1      20.756  14.507   6.293  1.00  0.00     0.191 HD
HETATM    4  C   UNK N   1      22.543  13.561   6.920  0.00  0.00     0.137 A 
HETATM    5  N   UNK N   1      23.846  13.881   6.799  0.00  0.00    -0.259 N 
ATOM      6  HN  UNK N   1      24.647  13.350   7.141  1.00  0.00     0.191 HD
HETATM    7  N   UNK N   1      23.866  15.033   6.139  0.00  0.00    -0.149 N 
ENDROOT
BRANCH   1   8
HETATM    8  C   UNK N   1      22.061  16.564   5.175  0.00  0.00     0.078 A 
HETATM    9  C   UNK N   1      21.578  16.402   3.865  0.00  0.00     0.051 A 
HETATM   10  C   UNK N   1      21.043  17.484   3.151  0.00  0.00     0.051 A 
HETATM   11  C   UNK N   1      20.560  17.329   1.846  0.00  0.00     0.271 A 
HETATM   12  C   UNK N   1      20.986  18.754   3.751  0.00  0.00     0.049 A 
HETATM   13  N   UNK N   1      20.045  18.413   1.186  0.00  0.00    -0.263 N 
HETATM   14  O   UNK N   1      20.592  16.243   1.294  0.00  0.00    -0.266 OA
HETATM   15  N   UNK N   1      19.993  19.619   1.757  0.00  0.00    -0.263 N 
HETATM   16  H   UNK N   1      19.706  18.301   0.268  0.00  0.00     0.190 HD
HETATM   17  C   UNK N   1      20.451  19.826   3.031  0.00  0.00     0.271 A 
HETATM   18  H   UNK N   1      19.616  20.375   1.252  0.00  0.00     0.190 HD
HETATM   19  O   UNK N   1      20.388  20.941   3.523  0.00  0.00    -0.266 OA
HETATM   20  C   UNK N   1      21.464  18.923   5.050  0.00  0.00     0.020 A 
HETATM   21  C   UNK N   1      21.991  17.835   5.742  0.00  0.00     0.034 A 
ENDBRANCH   1   8
BRANCH   7  22
HETATM   22  C   UNK N   1      25.116  15.692   5.820  0.00  0.00     0.191 A 
HETATM   23  N   UNK N   1      26.041  16.089   6.726  0.00  0.00    -0.333 N 
HETATM   24  C   UNK N   1      27.127  16.685   6.146  0.00  0.00     0.051 A 
ATOM     25  HN  UNK N   1      25.940  15.957   7.732  1.00  0.00     0.168 HD
HETATM   26  C   UNK N   1      27.084  16.775   4.759  0.00  0.00     0.035 A 
HETATM   27  C   UNK N   1      28.213  17.179   6.860  0.00  0.00     0.031 A 
HETATM   28  S   UNK N   1      25.651  16.086   4.287  0.00  0.00    -0.048 SA
HETATM   29  C   UNK N   1      28.114  17.355   4.026  0.00  0.00     0.021 A 
HETATM   30  C   UNK N   1      29.219  17.859   4.739  0.00  0.00     0.002 A 
HETATM   31  C   UNK N   1      29.268  17.771   6.147  0.00  0.00     0.002 A 
ENDBRANCH   7  22
BRANCH   4  32
HETATM   32  C   UNK N   1      22.001  12.368   7.578  0.00  0.00     0.052 C 
BRANCH  32  33
HETATM   33  C   UNK N   1      21.499  12.504   8.811  0.00  0.00     0.015 C 
BRANCH  33  34
HETATM   34  C   UNK N   1      22.259  12.290  10.045  0.00  0.00    -0.036 A 
HETATM   35  C   UNK N   1      23.654  12.221   9.967  0.00  0.00     0.011 A 
HETATM   36  C   UNK N   1      24.414  12.018  11.121  0.00  0.00     0.001 A 
HETATM   37  C   UNK N   1      23.780  11.883  12.359  0.00  0.00     0.000 A 
HETATM   38  C   UNK N   1      22.385  11.951  12.442  0.00  0.00     0.001 A 
HETATM   39  C   UNK N   1      21.624  12.155  11.287  0.00  0.00     0.011 A 
ENDBRANCH  33  34
ENDBRANCH  32  33
ENDBRANCH   4  32
TORSDOF 5
ENDMDL
MODEL 4
REMARK VINA RESULT:      -9.0      3.970      5.473
REMARK  5 active torsions:
REMARK  status: ('A' for Active; 'I' for Inactive)
REMARK    1  A    between atoms: C_9  and  N_13 
REMARK    2  A    between atoms: C_16  and  C_17 
REMARK    3  A    between atoms: C_17  and  C_18 
REMARK    4  A    between atoms: C_18  and  C_19 
REMARK    5  A    between atoms: N_27  and  C_28 
ROOT
HETATM    1  N   UNK N   1      24.932  15.578   5.615  0.00  0.00    -0.172 N 
HETATM    2  N   UNK N   1      24.095  14.569   5.452  0.00  0.00    -0.261 N 
ATOM      3  HN  UNK N   1      23.264  14.550   4.861  1.00  0.00     0.191 HD
HETATM    4  C   UNK N   1      24.559  13.575   6.222  0.00  0.00     0.137 A 
HETATM    5  N   UNK N   1      25.680  13.958   6.863  0.00  0.00    -0.259 N 
ATOM      6  HN  UNK N   1      26.242  13.405   7.510  1.00  0.00     0.191 HD
HETATM    7  N   UNK N   1      25.898  15.209   6.473  0.00  0.00    -0.149 N 
ENDROOT
BRANCH   1   8
HETATM    8  C   UNK N   1      24.691  16.819   4.899  0.00  0.00     0.078 A 
HETATM    9  C   UNK N   1      23.366  17.270   4.760  0.00  0.00     0.051 A 
HETATM   10  C   UNK N   1      23.074  18.460   4.079  0.00  0.00     0.051 A 
HETATM   11  C   UNK N   1      21.757  18.915   3.938  0.00  0.00     0.271 A 
HETATM   12  C   UNK N   1      24.119  19.220   3.524  0.00  0.00     0.049 A 
HETATM   13  N   UNK N   1      21.517  20.084   3.265  0.00  0.00    -0.263 N 
HETATM   14  O   UNK N   1      20.826  18.283   4.406  0.00  0.00    -0.266 OA
HETATM   15  N   UNK N   1      22.511  20.803   2.738  0.00  0.00    -0.263 N 
HETATM   16  H   UNK N   1      20.590  20.400   3.167  0.00  0.00     0.190 HD
HETATM   17  C   UNK N   1      23.817  20.405   2.847  0.00  0.00     0.271 A 
HETATM   18  H   UNK N   1      22.301  21.638   2.261  0.00  0.00     0.190 HD
HETATM   19  O   UNK N   1      24.701  21.086   2.354  0.00  0.00    -0.266 OA
HETATM   20  C   UNK N   1      25.435  18.778   3.657  0.00  0.00     0.020 A 
HETATM   21  C   UNK N   1      25.704  17.594   4.337  0.00  0.00     0.034 A 
ENDBRANCH   1   8
BRANCH   7  22
HETATM   22  C   UNK N   1      27.035  15.959   6.966  0.00  0.00     0.191 A 
HETATM   23  N   UNK N   1      27.049  16.701   8.099  0.00  0.00    -0.333 N 
HETATM   24  C   UNK N   1      28.256  17.303   8.322  0.00  0.00     0.051 A 
ATOM     25  HN  UNK N   1      26.245  16.800   8.719  1.00  0.00     0.168 HD
HETATM   26  C   UNK N   1      29.232  17.049   7.364  0.00  0.00     0.035 A 
HETATM   27  C   UNK N   1      28.526  18.117   9.418  0.00  0.00     0.031 A 
HETATM   28  S   UNK N   1      28.535  16.053   6.237  0.00  0.00    -0.048 SA
HETATM   29  C   UNK N   1      30.509  17.591   7.454  0.00  0.00     0.021 A 
HETATM   30  C   UNK N   1      30.794  18.416   8.558  0.00  0.00     0.002 A 
HETATM   31  C   UNK N   1      29.807  18.677   9.534  0.00  0.00     0.002 A 
ENDBRANCH   7  22
BRANCH   4  32
HETATM   32  C   UNK N   1      23.908  12.265   6.324  0.00  0.00     0.052 C 
BRANCH  32  33
HETATM   33  C   UNK N   1      22.685  12.212   6.864  0.00  0.00     0.015 C 
BRANCH  33  34
HETATM   34  C   UNK N   1      22.412  12.256   8.303  0.00  0.00    -0.036 A 
HETATM   35  C   UNK N   1      23.222  11.505   9.161  0.00  0.00     0.011 A 
HETATM   36  C   UNK N   1      22.994  11.521  10.540  0.00  0.00     0.001 A 
HETATM   37  C   UNK N   1      21.951  12.290  11.064  0.00  0.00     0.000 A 
HETATM   38  C   UNK N   1      21.137  13.042  10.210  0.00  0.00     0.001 A 
HETATM   39  C   UNK N   1      21.366  13.026   8.831  0.00  0.00     0.011 A 
ENDBRANCH  33  34
ENDBRANCH  32  33
ENDBRANCH   4  32
TORSDOF 5
ENDMDL
MODEL 5
REMARK VINA RESULT:      -8.9      3.237      6.706
REMARK  5 active torsions:
REMARK  status: ('A' for Active; 'I' for Inactive)
REMARK    1  A    between atoms: C_9  and  N_13 
REMARK    2  A    between atoms: C_16  and  C_17 
REMARK    3  A    between atoms: C_17  and  C_18 
REMARK    4  A    between atoms: C_18  and  C_19 
REMARK    5  A    between atoms: N_27  and  C_28 
ROOT
HETATM    1  N   UNK N   1      24.544  15.926   4.356  0.00  0.00    -0.172 N 
HETATM    2  N   UNK N   1      25.701  16.266   3.816  0.00  0.00    -0.261 N 
ATOM      3  HN  UNK N   1      25.858  16.614   2.870  1.00  0.00     0.191 HD
HETATM    4  C   UNK N   1      26.626  16.060   4.763  0.00  0.00     0.137 A 
HETATM    5  N   UNK N   1      26.053  15.594   5.890  0.00  0.00    -0.259 N 
ATOM      6  HN  UNK N   1      26.517  15.352   6.765  1.00  0.00     0.191 HD
HETATM    7  N   UNK N   1      24.755  15.516   5.618  0.00  0.00    -0.149 N 
ENDROOT
BRANCH   1   8
HETATM    8  C   UNK N   1      23.332  16.040   3.561  0.00  0.00     0.078 A 
HETATM    9  C   UNK N   1      22.533  17.187   3.713  0.00  0.00     0.051 A 
HETATM   10  C   UNK N   1      21.354  17.352   2.973  0.00  0.00     0.051 A 
HETATM   11  C   UNK N   1      20.555  18.492   3.119  0.00  0.00     0.271 A 
HETATM   12  C   UNK N   1      20.959  16.357   2.062  0.00  0.00     0.049 A 
HETATM   13  N   UNK N   1      19.410  18.611   2.376  0.00  0.00    -0.263 N 
HETATM   14  O   UNK N   1      20.865  19.376   3.899  0.00  0.00    -0.266 OA
HETATM   15  N   UNK N   1      19.037  17.665   1.511  0.00  0.00    -0.263 N 
HETATM   16  H   UNK N   1      18.850  19.414   2.481  0.00  0.00     0.190 HD
HETATM   17  C   UNK N   1      19.782  16.530   1.329  0.00  0.00     0.271 A 
HETATM   18  H   UNK N   1      18.208  17.785   0.994  0.00  0.00     0.190 HD
HETATM   19  O   UNK N   1      19.411  15.685   0.531  0.00  0.00    -0.266 OA
HETATM   20  C   UNK N   1      21.746  15.216   1.906  0.00  0.00     0.020 A 
HETATM   21  C   UNK N   1      22.914  15.072   2.651  0.00  0.00     0.034 A 
ENDBRANCH   1   8
BRANCH   7  22
HETATM   22  C   UNK N   1      23.809  15.048   6.610  0.00  0.00     0.191 A 
HETATM   23  N   UNK N   1      22.628  15.641   6.902  0.00  0.00    -0.333 N 
HETATM   24  C   UNK N   1      21.934  14.984   7.881  0.00  0.00     0.051 A 
ATOM     25  HN  UNK N   1      22.291  16.488   6.443  1.00  0.00     0.168 HD
HETATM   26  C   UNK N   1      22.556  13.848   8.388  0.00  0.00     0.035 A 
HETATM   27  C   UNK N   1      20.694  15.394   8.360  0.00  0.00     0.031 A 
HETATM   28  S   UNK N   1      23.992  13.696   7.575  0.00  0.00    -0.048 SA
HETATM   29  C   UNK N   1      21.974  13.075   9.387  0.00  0.00     0.021 A 
HETATM   30  C   UNK N   1      20.718  13.480   9.879  0.00  0.00     0.002 A 
HETATM   31  C   UNK N   1      20.083  14.632   9.369  0.00  0.00     0.002 A 
ENDBRANCH   7  22
BRANCH   4  32
HETATM   32  C   UNK N   1      28.055  16.319   4.562  0.00  0.00     0.052 C 
BRANCH  32  33
HETATM   33  C   UNK N   1      28.434  17.571   4.282  0.00  0.00     0.015 C 
BRANCH  33  34
HETATM   34  C   UNK N   1      27.976  18.758   5.008  0.00  0.00    -0.036 A 
HETATM   35  C   UNK N   1      28.161  18.806   6.394  0.00  0.00     0.011 A 
HETATM   36  C   UNK N   1      27.738  19.921   7.123  0.00  0.00     0.001 A 
HETATM   37  C   UNK N   1      27.128  20.992   6.466  0.00  0.00     0.000 A 
HETATM   38  C   UNK N   1      26.941  20.949   5.080  0.00  0.00     0.001 A 
HETATM   39  C   UNK N   1      27.364  19.834   4.351  0.00  0.00     0.011 A 
ENDBRANCH  33  34
ENDBRANCH  32  33
ENDBRANCH   4  32
TORSDOF 5
ENDMDL
MODEL 6
REMARK VINA RESULT:      -8.8      3.362      7.158
REMARK  5 active torsions:
REMARK  status: ('A' for Active; 'I' for Inactive)
REMARK    1  A    between atoms: C_9  and  N_13 
REMARK    2  A    between atoms: C_16  and  C_17 
REMARK    3  A    between atoms: C_17  and  C_18 
REMARK    4  A    between atoms: C_18  and  C_19 
REMARK    5  A    between atoms: N_27  and  C_28 
ROOT
HETATM    1  N   UNK N   1      23.280  15.286   3.426  0.00  0.00    -0.172 N 
HETATM    2  N   UNK N   1      24.304  15.653   2.676  0.00  0.00    -0.261 N 
ATOM      3  HN  UNK N   1      24.327  15.719   1.658  1.00  0.00     0.191 HD
HETATM    4  C   UNK N   1      25.307  15.921   3.523  0.00  0.00     0.137 A 
HETATM    5  N   UNK N   1      24.915  15.724   4.797  0.00  0.00    -0.259 N 
ATOM      6  HN  UNK N   1      25.472  15.851   5.642  1.00  0.00     0.191 HD
HETATM    7  N   UNK N   1      23.649  15.328   4.718  0.00  0.00    -0.149 N 
ENDROOT
BRANCH   1   8
HETATM    8  C   UNK N   1      22.027  14.927   2.785  0.00  0.00     0.078 A 
HETATM    9  C   UNK N   1      21.478  15.809   1.838  0.00  0.00     0.051 A 
HETATM   10  C   UNK N   1      20.271  15.515   1.188  0.00  0.00     0.051 A 
HETATM   11  C   UNK N   1      19.720  16.390   0.244  0.00  0.00     0.271 A 
HETATM   12  C   UNK N   1      19.594  14.319   1.484  0.00  0.00     0.049 A 
HETATM   13  N   UNK N   1      18.538  16.062  -0.367  0.00  0.00    -0.263 N 
HETATM   14  O   UNK N   1      20.278  17.436  -0.038  0.00  0.00    -0.266 OA
HETATM   15  N   UNK N   1      17.897  14.925  -0.085  0.00  0.00    -0.263 N 
HETATM   16  H   UNK N   1      18.153  16.679  -1.031  0.00  0.00     0.190 HD
HETATM   17  C   UNK N   1      18.392  14.034   0.830  0.00  0.00     0.271 A 
HETATM   18  H   UNK N   1      17.050  14.723  -0.544  0.00  0.00     0.190 HD
HETATM   19  O   UNK N   1      17.781  13.005   1.065  0.00  0.00    -0.266 OA
HETATM   20  C   UNK N   1      20.133  13.439   2.422  0.00  0.00     0.020 A 
HETATM   21  C   UNK N   1      21.332  13.750   3.057  0.00  0.00     0.034 A 
ENDBRANCH   1   8
BRANCH   7  22
HETATM   22  C   UNK N   1      22.886  15.018   5.909  0.00  0.00     0.191 A 
HETATM   23  N   UNK N   1      23.040  13.907   6.666  0.00  0.00    -0.333 N 
HETATM   24  C   UNK N   1      22.186  13.871   7.734  0.00  0.00     0.051 A 
ATOM     25  HN  UNK N   1      23.720  13.173   6.463  1.00  0.00     0.168 HD
HETATM   26  C   UNK N   1      21.332  14.963   7.846  0.00  0.00     0.035 A 
HETATM   27  C   UNK N   1      22.147  12.836   8.662  0.00  0.00     0.031 A 
HETATM   28  S   UNK N   1      21.679  15.965   6.572  0.00  0.00    -0.048 SA
HETATM   29  C   UNK N   1      20.407  15.070   8.879  0.00  0.00     0.021 A 
HETATM   30  C   UNK N   1      20.358  14.028   9.824  0.00  0.00     0.002 A 
HETATM   31  C   UNK N   1      21.223  12.917   9.716  0.00  0.00     0.002 A 
ENDBRANCH   7  22
BRANCH   4  32
HETATM   32  C   UNK N   1      26.634  16.366   3.085  0.00  0.00     0.052 C 
BRANCH  32  33
HETATM   33  C   UNK N   1      27.450  16.904   3.998  0.00  0.00     0.015 C 
BRANCH  33  34
HETATM   34  C   UNK N   1      27.325  18.267   4.522  0.00  0.00    -0.036 A 
HETATM   35  C   UNK N   1      27.793  18.532   5.813  0.00  0.00     0.011 A 
HETATM   36  C   UNK N   1      27.692  19.819   6.348  0.00  0.00     0.001 A 
HETATM   37  C   UNK N   1      27.120  20.845   5.591  0.00  0.00     0.000 A 
HETATM   38  C   UNK N   1      26.650  20.585   4.299  0.00  0.00     0.001 A 
HETATM   39  C   UNK N   1      26.752  19.297   3.764  0.00  0.00     0.011 A 
ENDBRANCH  33  34
ENDBRANCH  32  33
ENDBRANCH   4  32
TORSDOF 5
ENDMDL
MODEL 7
REMARK VINA RESULT:      -8.8     12.996     15.196
REMARK  5 active torsions:
REMARK  status: ('A' for Active; 'I' for Inactive)
REMARK    1  A    between atoms: C_9  and  N_13 
REMARK    2  A    between atoms: C_16  and  C_17 
REMARK    3  A    between atoms: C_17  and  C_18 
REMARK    4  A    between atoms: C_18  and  C_19 
REMARK    5  A    between atoms: N_27  and  C_28 
ROOT
HETATM    1  N   UNK N   1      35.275  13.348  11.774  0.00  0.00    -0.172 N 
HETATM    2  N   UNK N   1      34.509  13.184  12.838  0.00  0.00    -0.261 N 
ATOM      3  HN  UNK N   1      33.790  13.822  13.181  1.00  0.00     0.191 HD
HETATM    4  C   UNK N   1      34.867  12.010  13.375  0.00  0.00     0.137 A 
HETATM    5  N   UNK N   1      35.851  11.441  12.653  0.00  0.00    -0.259 N 
ATOM      6  HN  UNK N   1      36.312  10.549  12.832  1.00  0.00     0.191 HD
HETATM    7  N   UNK N   1      36.093  12.288  11.659  0.00  0.00    -0.149 N 
ENDROOT
BRANCH   1   8
HETATM    8  C   UNK N   1      35.120  14.548  10.970  0.00  0.00     0.078 A 
HETATM    9  C   UNK N   1      34.184  14.540   9.921  0.00  0.00     0.051 A 
HETATM   10  C   UNK N   1      33.991  15.669   9.112  0.00  0.00     0.051 A 
HETATM   11  C   UNK N   1      33.061  15.667   8.067  0.00  0.00     0.271 A 
HETATM   12  C   UNK N   1      34.746  16.832   9.349  0.00  0.00     0.049 A 
HETATM   13  N   UNK N   1      32.906  16.793   7.302  0.00  0.00    -0.263 N 
HETATM   14  O   UNK N   1      32.389  14.677   7.832  0.00  0.00    -0.266 OA
HETATM   15  N   UNK N   1      33.623  17.895   7.528  0.00  0.00    -0.263 N 
HETATM   16  H   UNK N   1      32.250  16.788   6.567  0.00  0.00     0.190 HD
HETATM   17  C   UNK N   1      34.547  17.952   8.537  0.00  0.00     0.271 A 
HETATM   18  H   UNK N   1      33.485  18.686   6.958  0.00  0.00     0.190 HD
HETATM   19  O   UNK N   1      35.185  18.976   8.717  0.00  0.00    -0.266 OA
HETATM   20  C   UNK N   1      35.677  16.847  10.388  0.00  0.00     0.020 A 
HETATM   21  C   UNK N   1      35.852  15.715  11.179  0.00  0.00     0.034 A 
ENDBRANCH   1   8
BRANCH   7  22
HETATM   22  C   UNK N   1      37.107  12.005  10.665  0.00  0.00     0.191 A 
HETATM   23  N   UNK N   1      37.094  10.951   9.815  0.00  0.00    -0.333 N 
HETATM   24  C   UNK N   1      38.178  10.930   8.981  0.00  0.00     0.051 A 
ATOM     25  HN  UNK N   1      36.355  10.248   9.798  1.00  0.00     0.168 HD
HETATM   26  C   UNK N   1      39.079  11.975   9.154  0.00  0.00     0.035 A 
HETATM   27  C   UNK N   1      38.396   9.950   8.018  0.00  0.00     0.031 A 
HETATM   28  S   UNK N   1      38.477  12.918  10.377  0.00  0.00    -0.048 SA
HETATM   29  C   UNK N   1      40.229  12.090   8.381  0.00  0.00     0.021 A 
HETATM   30  C   UNK N   1      40.461  11.103   7.402  0.00  0.00     0.002 A 
HETATM   31  C   UNK N   1      39.548  10.040   7.222  0.00  0.00     0.002 A 
ENDBRANCH   7  22
BRANCH   4  32
HETATM   32  C   UNK N   1      34.248  11.456  14.583  0.00  0.00     0.052 C 
BRANCH  32  33
HETATM   33  C   UNK N   1      35.052  11.033  15.565  0.00  0.00     0.015 C 
BRANCH  33  34
HETATM   34  C   UNK N   1      35.127  11.640  16.896  0.00  0.00    -0.036 A 
HETATM   35  C   UNK N   1      35.269  10.802  18.007  0.00  0.00     0.011 A 
HETATM   36  C   UNK N   1      35.344  11.342  19.293  0.00  0.00     0.001 A 
HETATM   37  C   UNK N   1      35.275  12.727  19.472  0.00  0.00     0.000 A 
HETATM   38  C   UNK N   1      35.133  13.570  18.364  0.00  0.00     0.001 A 
HETATM   39  C   UNK N   1      35.058  13.028  17.077  0.00  0.00     0.011 A 
ENDBRANCH  33  34
ENDBRANCH  32  33
ENDBRANCH   4  32
TORSDOF 5
ENDMDL
MODEL 8
REMARK VINA RESULT:      -8.7      4.134      7.859
REMARK  5 active torsions:
REMARK  status: ('A' for Active; 'I' for Inactive)
REMARK    1  A    between atoms: C_9  and  N_13 
REMARK    2  A    between atoms: C_16  and  C_17 
REMARK    3  A    between atoms: C_17  and  C_18 
REMARK    4  A    between atoms: C_18  and  C_19 
REMARK    5  A    between atoms: N_27  and  C_28 
ROOT
HETATM    1  N   UNK N   1      24.746  14.921   6.694  0.00  0.00    -0.172 N 
HETATM    2  N   UNK N   1      25.900  15.341   7.181  0.00  0.00    -0.261 N 
ATOM      3  HN  UNK N   1      26.185  15.353   8.161  1.00  0.00     0.191 HD
HETATM    4  C   UNK N   1      26.620  15.750   6.128  0.00  0.00     0.137 A 
HETATM    5  N   UNK N   1      25.922  15.587   4.987  0.00  0.00    -0.259 N 
ATOM      6  HN  UNK N   1      26.225  15.813   4.040  1.00  0.00     0.191 HD
HETATM    7  N   UNK N   1      24.757  15.069   5.359  0.00  0.00    -0.149 N 
ENDROOT
BRANCH   1   8
HETATM    8  C   UNK N   1      23.738  14.409   7.607  0.00  0.00     0.078 A 
HETATM    9  C   UNK N   1      24.147  13.580   8.666  0.00  0.00     0.051 A 
HETATM   10  C   UNK N   1      23.219  13.057   9.577  0.00  0.00     0.051 A 
HETATM   11  C   UNK N   1      23.620  12.231  10.634  0.00  0.00     0.271 A 
HETATM   12  C   UNK N   1      21.854  13.364   9.434  0.00  0.00     0.049 A 
HETATM   13  N   UNK N   1      22.678  11.742  11.501  0.00  0.00    -0.263 N 
HETATM   14  O   UNK N   1      24.794  11.943  10.789  0.00  0.00    -0.266 OA
HETATM   15  N   UNK N   1      21.383  12.035  11.363  0.00  0.00    -0.263 N 
HETATM   16  H   UNK N   1      22.964  11.162  12.243  0.00  0.00     0.190 HD
HETATM   17  C   UNK N   1      20.936  12.838  10.348  0.00  0.00     0.271 A 
HETATM   18  H   UNK N   1      20.734  11.666  12.006  0.00  0.00     0.190 HD
HETATM   19  O   UNK N   1      19.745  13.086  10.251  0.00  0.00    -0.266 OA
HETATM   20  C   UNK N   1      21.441  14.186   8.386  0.00  0.00     0.020 A 
HETATM   21  C   UNK N   1      22.379  14.695   7.492  0.00  0.00     0.034 A 
ENDBRANCH   1   8
BRANCH   7  22
HETATM   22  C   UNK N   1      23.733  14.754   4.384  0.00  0.00     0.191 A 
HETATM   23  N   UNK N   1      22.970  15.663   3.732  0.00  0.00    -0.333 N 
HETATM   24  C   UNK N   1      22.082  15.086   2.867  0.00  0.00     0.051 A 
ATOM     25  HN  UNK N   1      23.049  16.671   3.871  1.00  0.00     0.168 HD
HETATM   26  C   UNK N   1      22.123  13.697   2.815  0.00  0.00     0.035 A 
HETATM   27  C   UNK N   1      21.188  15.805   2.080  0.00  0.00     0.031 A 
HETATM   28  S   UNK N   1      23.300  13.221   3.881  0.00  0.00    -0.048 SA
HETATM   29  C   UNK N   1      21.281  12.967   1.983  0.00  0.00     0.021 A 
HETATM   30  C   UNK N   1      20.371  13.684   1.181  0.00  0.00     0.002 A 
HETATM   31  C   UNK N   1      20.325  15.094   1.231  0.00  0.00     0.002 A 
ENDBRANCH   7  22
BRANCH   4  32
HETATM   32  C   UNK N   1      27.977  16.294   6.243  0.00  0.00     0.052 C 
BRANCH  32  33
HETATM   33  C   UNK N   1      28.345  17.252   5.384  0.00  0.00     0.015 C 
BRANCH  33  34
HETATM   34  C   UNK N   1      27.814  18.617   5.387  0.00  0.00    -0.036 A 
HETATM   35  C   UNK N   1      27.821  19.335   6.587  0.00  0.00     0.011 A 
HETATM   36  C   UNK N   1      27.323  20.640   6.631  0.00  0.00     0.001 A 
HETATM   37  C   UNK N   1      26.816  21.231   5.471  0.00  0.00     0.000 A 
HETATM   38  C   UNK N   1      26.806  20.517   4.267  0.00  0.00     0.001 A 
HETATM   39  C   UNK N   1      27.304  19.211   4.224  0.00  0.00     0.011 A 
ENDBRANCH  33  34
ENDBRANCH  32  33
ENDBRANCH   4  32
TORSDOF 5
ENDMDL
MODEL 9
REMARK VINA RESULT:      -8.7      4.932      5.944
REMARK  5 active torsions:
REMARK  status: ('A' for Active; 'I' for Inactive)
REMARK    1  A    between atoms: C_9  and  N_13 
REMARK    2  A    between atoms: C_16  and  C_17 
REMARK    3  A    between atoms: C_17  and  C_18 
REMARK    4  A    between atoms: C_18  and  C_19 
REMARK    5  A    between atoms: N_27  and  C_28 
ROOT
HETATM    1  N   UNK N   1      25.837  17.871   4.887  0.00  0.00    -0.172 N 
HETATM    2  N   UNK N   1      26.586  18.513   5.766  0.00  0.00    -0.261 N 
ATOM      3  HN  UNK N   1      26.469  19.474   6.088  1.00  0.00     0.191 HD
HETATM    4  C   UNK N   1      27.532  17.645   6.151  0.00  0.00     0.137 A 
HETATM    5  N   UNK N   1      27.377  16.467   5.517  0.00  0.00    -0.259 N 
ATOM      6  HN  UNK N   1      27.952  15.630   5.617  1.00  0.00     0.191 HD
HETATM    7  N   UNK N   1      26.316  16.625   4.733  0.00  0.00    -0.149 N 
ENDROOT
BRANCH   1   8
HETATM    8  C   UNK N   1      24.711  18.562   4.281  0.00  0.00     0.078 A 
HETATM    9  C   UNK N   1      23.424  18.021   4.443  0.00  0.00     0.051 A 
HETATM   10  C   UNK N   1      22.300  18.643   3.880  0.00  0.00     0.051 A 
HETATM   11  C   UNK N   1      21.016  18.110   4.038  0.00  0.00     0.271 A 
HETATM   12  C   UNK N   1      22.459  19.829   3.141  0.00  0.00     0.049 A 
HETATM   13  N   UNK N   1      19.946  18.752   3.471  0.00  0.00    -0.263 N 
HETATM   14  O   UNK N   1      20.840  17.084   4.672  0.00  0.00    -0.266 OA
HETATM   15  N   UNK N   1      20.099  19.877   2.769  0.00  0.00    -0.263 N 
HETATM   16  H   UNK N   1      19.044  18.374   3.583  0.00  0.00     0.190 HD
HETATM   17  C   UNK N   1      21.333  20.442   2.584  0.00  0.00     0.271 A 
HETATM   18  H   UNK N   1      19.307  20.311   2.376  0.00  0.00     0.190 HD
HETATM   19  O   UNK N   1      21.437  21.471   1.937  0.00  0.00    -0.266 OA
HETATM   20  C   UNK N   1      23.733  20.371   2.976  0.00  0.00     0.020 A 
HETATM   21  C   UNK N   1      24.835  19.737   3.543  0.00  0.00     0.034 A 
ENDBRANCH   1   8
BRANCH   7  22
HETATM   22  C   UNK N   1      25.842  15.549   3.887  0.00  0.00     0.191 A 
HETATM   23  N   UNK N   1      25.247  15.710   2.682  0.00  0.00    -0.333 N 
HETATM   24  C   UNK N   1      24.900  14.521   2.101  0.00  0.00     0.051 A 
ATOM     25  HN  UNK N   1      25.075  16.619   2.253  1.00  0.00     0.168 HD
HETATM   26  C   UNK N   1      25.216  13.386   2.840  0.00  0.00     0.035 A 
HETATM   27  C   UNK N   1      24.276  14.416   0.862  0.00  0.00     0.031 A 
HETATM   28  S   UNK N   1      25.939  13.918   4.234  0.00  0.00    -0.048 SA
HETATM   29  C   UNK N   1      24.926  12.105   2.381  0.00  0.00     0.021 A 
HETATM   30  C   UNK N   1      24.294  11.987   1.128  0.00  0.00     0.002 A 
HETATM   31  C   UNK N   1      23.971  13.136   0.374  0.00  0.00     0.002 A 
ENDBRANCH   7  22
BRANCH   4  32
HETATM   32  C   UNK N   1      28.574  17.971   7.129  0.00  0.00     0.052 C 
BRANCH  32  33
HETATM   33  C   UNK N   1      29.521  17.057   7.368  0.00  0.00     0.015 C 
BRANCH  33  34
HETATM   34  C   UNK N   1      30.957  17.283   7.187  0.00  0.00    -0.036 A 
HETATM   35  C   UNK N   1      31.715  17.685   8.292  0.00  0.00     0.011 A 
HETATM   36  C   UNK N   1      33.088  17.911   8.160  0.00  0.00     0.001 A 
HETATM   37  C   UNK N   1      33.706  17.734   6.919  0.00  0.00     0.000 A 
HETATM   38  C   UNK N   1      32.953  17.332   5.811  0.00  0.00     0.001 A 
HETATM   39  C   UNK N   1      31.579  17.106   5.944  0.00  0.00     0.011 A 
ENDBRANCH  33  34
ENDBRANCH  32  33
ENDBRANCH   4  32
TORSDOF 5
ENDMDL
