REMARK  9 active torsions:
REMARK  status: ('A' for Active; 'I' for Inactive)
REMARK    1  A    between atoms: C_25  and  C_17 
REMARK    2  A    between atoms: C_26  and  C_18 
REMARK    3  A    between atoms: C_27  and  C_19 
REMARK    4  A    between atoms: O_30  and  C_20 
REMARK    5  A    between atoms: C_25  and  C_21 
REMARK    6  A    between atoms: C_22  and  N_29 
REMARK    7  A    between atoms: O_31  and  C_23 
REMARK    8  A    between atoms: C_24  and  O_35 
REMARK       I    between atoms: N_29  and  C_26 
REMARK    9  A    between atoms: O_35  and  C_27 
ROOT
HETATM    1  C   UNK N   1      -3.862  -9.808   0.873  0.00  0.00     0.022 C 
HETATM    2  C   UNK N   1      -3.631  -9.413  -0.582  0.00  0.00     0.036 C 
HETATM    3  C   UNK N   1      -5.269  -9.429   1.345  0.00  0.00     0.114 C 
HETATM    4  C   UNK N   1      -5.162  -7.077   0.939  0.00  0.00     0.141 C 
HETATM    5  C   UNK N   1      -3.739  -6.945   0.366  0.00  0.00     0.131 C 
HETATM    6  C   UNK N   1      -3.295  -7.922  -0.783  0.00  0.00     0.156 C 
HETATM    7  N   UNK N   1      -5.831  -8.321   0.579  0.00  0.00    -0.419 N 
HETATM    8  H   UNK N   1      -6.581  -8.405  -0.107  0.00  0.00     0.153 HD
ENDROOT
BRANCH   6   9
HETATM    9  O   UNK N   1      -1.932  -7.774  -1.007  0.00  0.00    -0.310 OA
BRANCH   9  10
HETATM   10  C   UNK N   1      -1.021  -7.773   0.002  0.00  0.00     0.293 C 
HETATM   11  O   UNK N   1      -1.205  -8.429   1.018  0.00  0.00    -0.259 OA
BRANCH  10  12
HETATM   12  C   UNK N   1      -0.003  -6.734  -0.010  0.00  0.00     0.039 A 
HETATM   13  C   UNK N   1       0.300  -6.057   1.178  0.00  0.00     0.018 A 
HETATM   14  C   UNK N   1       1.223  -5.017   1.171  0.00  0.00     0.016 A 
HETATM   15  C   UNK N   1       1.862  -4.666  -0.019  0.00  0.00     0.015 A 
HETATM   16  C   UNK N   1       1.573  -5.358  -1.202  0.00  0.00     0.016 A 
HETATM   17  C   UNK N   1       0.598  -6.351  -1.210  0.00  0.00     0.018 A 
BRANCH  15  18
HETATM   18  C   UNK N   1       3.060  -3.836   0.052  0.00  0.00     0.195 C 
HETATM   19  O   UNK N   1       2.968  -2.642   0.296  0.00  0.00    -0.287 OA
BRANCH  18  20
HETATM   20  C   UNK N   1       4.380  -4.524   0.021  0.00  0.00     0.048 A 
HETATM   21  C   UNK N   1       4.403  -5.932   0.028  0.00  0.00     0.018 A 
HETATM   22  C   UNK N   1       5.604  -6.633   0.062  0.00  0.00     0.001 A 
HETATM   23  C   UNK N   1       6.809  -5.935   0.087  0.00  0.00     0.003 A 
HETATM   24  C   UNK N   1       6.809  -4.537   0.072  0.00  0.00     0.037 A 
HETATM   25  C   UNK N   1       5.603  -3.826   0.044  0.00  0.00     0.079 A 
BRANCH  25  26
HETATM   26  O   UNK N   1       5.634  -2.483   0.037  0.00  0.00    -0.360 OA
HETATM   27  H   UNK N   1       6.456  -2.033   0.032  0.00  0.00     0.217 HD
ENDBRANCH  25  26
ENDBRANCH  18  20
ENDBRANCH  15  18
ENDBRANCH  10  12
ENDBRANCH   9  10
ENDBRANCH   6   9
BRANCH   5  28
HETATM   28  N   UNK N   1      -3.325  -5.572   0.054  0.00  0.00    -0.348 N 
HETATM   29  C   UNK N   1      -4.086  -4.459  -0.149  0.00  0.00     0.252 C 
HETATM   30  O   UNK N   1      -3.534  -3.364  -0.108  0.00  0.00    -0.268 OA
HETATM   31  H   UNK N   1      -2.353  -5.434  -0.020  0.00  0.00     0.163 HD
BRANCH  29  32
HETATM   32  C   UNK N   1      -5.553  -4.498  -0.328  0.00  0.00     0.032 A 
HETATM   33  C   UNK N   1      -6.351  -3.531   0.294  0.00  0.00     0.020 A 
HETATM   34  C   UNK N   1      -7.744  -3.640   0.255  0.00  0.00     0.037 A 
HETATM   35  C   UNK N   1      -8.344  -4.702  -0.428  0.00  0.00     0.065 A 
HETATM   36  C   UNK N   1      -7.556  -5.629  -1.111  0.00  0.00     0.037 A 
HETATM   37  C   UNK N   1      -6.166  -5.525  -1.066  0.00  0.00     0.020 A 
BRANCH  35  38
HETATM   38  O   UNK N   1      -9.679  -4.833  -0.427  0.00  0.00    -0.361 OA
HETATM   39  H   UNK N   1     -10.224  -4.071  -0.425  0.00  0.00     0.217 HD
ENDBRANCH  35  38
ENDBRANCH  29  32
ENDBRANCH   5  28
TORSDOF 9
