REMARK  11 active torsions:
REMARK  status: ('A' for Active; 'I' for Inactive)
REMARK    1  A    between atoms: C_2  and  N_3 
REMARK    2  A    between atoms: C_2  and  C_20 
REMARK    3  A    between atoms: N_3  and  C_4 
REMARK    4  A    between atoms: C_4  and  C_5 
REMARK    5  A    between atoms: C_6  and  O_7 
REMARK    6  A    between atoms: C_13  and  C_14 
REMARK    7  A    between atoms: C_14  and  O_15 
REMARK    8  A    between atoms: O_15  and  P_16 
REMARK    9  A    between atoms: P_16  and  O_17 
REMARK   10  A    between atoms: P_16  and  O_18 
REMARK   11  A    between atoms: C_20  and  O_21 
ROOT
HETATM    1  C   UNK N   1      -3.235   0.001  -0.077  0.00  0.00     0.004 A 
HETATM    2  C   UNK N   1      -3.061  -1.363  -0.381  0.00  0.00     0.096 A 
HETATM    3  C   UNK N   1      -4.124  -2.254  -0.176  0.00  0.00     0.039 A 
HETATM    4  C   UNK N   1      -3.966  -3.707  -0.472  0.00  0.00     0.071 C 
HETATM    5  N   UNK N   1      -5.310  -1.799   0.304  0.00  0.00    -0.367 N 
ATOM      6  HN  UNK N   1      -6.076  -2.458   0.442  1.00  0.00     0.165 HD
HETATM    7  C   UNK N   1      -5.503  -0.487   0.606  0.00  0.00     0.098 A 
HETATM    8  C   UNK N   1      -4.475   0.440   0.424  0.00  0.00    -0.008 A 
ENDROOT
BRANCH   1   9
HETATM    9  C   UNK N   1      -2.106   0.968  -0.276  0.00  0.00     0.157 C 
BRANCH   9  10
HETATM   10  N   UNK N   1      -1.024   0.657   0.643  0.00  0.00    -0.405 N 
HETATM   11  H   UNK N   1      -1.121   0.279   1.586  0.00  0.00     0.154 HD
BRANCH  10  12
HETATM   12  C   UNK N   1       0.223   0.987  -0.030  0.00  0.00     0.171 C 
HETATM   13  C   UNK N   1       0.823   2.230   0.601  0.00  0.00     0.043 C 
BRANCH  12  14
HETATM   14  C   UNK N   1       1.196  -0.156   0.055  0.00  0.00     0.162 C 
HETATM   15  O   UNK N   1       0.902  -1.184   0.646  0.00  0.00    -0.648 OA
BRANCH  14  16
HETATM   16  O   UNK N   1       2.400  -0.053  -0.539  0.00  0.00    -0.775 OA
HETATM   17  H   UNK N   1       2.881  -0.743  -0.953  0.00  0.00     0.167 HD
ENDBRANCH  14  16
ENDBRANCH  12  14
ENDBRANCH  10  12
ENDBRANCH   9  10
ENDBRANCH   1   9
BRANCH   2  18
HETATM   18  O   UNK N   1      -1.884  -1.811  -0.858  0.00  0.00    -0.358 OA
HETATM   19  H   UNK N   1      -1.745  -2.677  -1.190  0.00  0.00     0.217 HD
ENDBRANCH   2  18
BRANCH   8  20
HETATM   20  C   UNK N   1      -4.719   1.862   0.830  0.00  0.00     0.221 C 
BRANCH  20  21
HETATM   21  O   UNK N   1      -4.582   2.746  -0.245  0.00  0.00    -0.292 OA
BRANCH  21  22
HETATM   22  P   UNK N   1      -4.571   4.315   0.508  0.00  0.00     0.391 P 
HETATM   23  O   UNK N   1      -3.266   4.380  -0.331  0.00  0.00    -0.632 OA
BRANCH  22  24
HETATM   24  O   UNK N   1      -4.810   5.777  -0.396  0.00  0.00    -0.307 OA
HETATM   25  H   UNK N   1      -4.169   6.301  -0.901  0.00  0.00     0.222 HD
ENDBRANCH  22  24
BRANCH  22  26
HETATM   26  O   UNK N   1      -5.920   4.181  -0.578  0.00  0.00    -0.307 OA
HETATM   27  H   UNK N   1      -6.362   4.796  -1.184  0.00  0.00     0.222 HD
ENDBRANCH  22  26
ENDBRANCH  21  22
ENDBRANCH  20  21
ENDBRANCH   8  20
TORSDOF 11
