MODEL 1
REMARK VINA RESULT:      -5.8      0.000      0.000
REMARK  4 active torsions:
REMARK  status: ('A' for Active; 'I' for Inactive)
REMARK    1  A    between atoms: O_1  and  C_2 
REMARK    2  A    between atoms: C_2  and  C_3 
REMARK    3  A    between atoms: C_3  and  N_4 
REMARK    4  A    between atoms: N_4  and  C_5 
ROOT
HETATM    1  C   UNK N   1      33.685  17.210   8.442  0.00  0.00     0.133 A 
HETATM    2  N   UNK N   1      34.447  17.179   7.304  0.00  0.00    -0.337 N 
ATOM      3  HN  UNK N   1      35.464  17.140   7.378  1.00  0.00     0.168 HD
HETATM    4  C   UNK N   1      33.854  17.201   6.059  0.00  0.00     0.183 A 
HETATM    5  N   UNK N   1      32.488  17.254   5.936  0.00  0.00    -0.336 N 
ATOM      6  HN  UNK N   1      32.041  17.270   5.019  1.00  0.00     0.168 HD
HETATM    7  C   UNK N   1      31.755  17.284   7.073  0.00  0.00     0.145 A 
HETATM    8  C   UNK N   1      32.319  17.263   8.304  0.00  0.00     0.123 A 
HETATM    9  N   UNK N   1      31.369  17.302   9.260  0.00  0.00    -0.336 N 
ATOM     10  HN  UNK N   1      31.489  17.298  10.274  1.00  0.00     0.168 HD
HETATM   11  C   UNK N   1      30.215  17.346   8.549  0.00  0.00     0.113 A 
HETATM   12  C   UNK N   1      28.933  17.396   9.078  0.00  0.00     0.049 A 
HETATM   13  C   UNK N   1      27.863  17.437   8.171  0.00  0.00     0.005 A 
HETATM   14  C   UNK N   1      28.104  17.426   6.780  0.00  0.00     0.018 A 
HETATM   15  C   UNK N   1      29.424  17.374   6.303  0.00  0.00     0.100 A 
HETATM   16  N   UNK N   1      30.427  17.336   7.214  0.00  0.00    -0.292 N 
ENDROOT
BRANCH   1  17
HETATM   17  N   UNK N   1      34.251  17.190   9.736  0.00  0.00    -0.372 N 
HETATM   18  H   UNK N   1      34.074  17.955  10.329  0.00  0.00     0.161 HD
BRANCH  17  19
HETATM   19  C   UNK N   1      35.065  16.123  10.236  0.00  0.00     0.147 C 
BRANCH  19  20
HETATM   20  C   UNK N   1      34.194  14.885  10.298  0.00  0.00     0.183 C 
BRANCH  20  21
HETATM   21  O   UNK N   1      33.063  15.136  11.067  0.00  0.00    -0.399 OA
HETATM   22  H   UNK N   1      32.562  15.958  10.941  0.00  0.00     0.209 HD
ENDBRANCH  20  21
ENDBRANCH  19  20
ENDBRANCH  17  19
ENDBRANCH   1  17
TORSDOF 4
ENDMDL
MODEL 2
REMARK VINA RESULT:      -5.8      8.104     11.281
REMARK  4 active torsions:
REMARK  status: ('A' for Active; 'I' for Inactive)
REMARK    1  A    between atoms: O_1  and  C_2 
REMARK    2  A    between atoms: C_2  and  C_3 
REMARK    3  A    between atoms: C_3  and  N_4 
REMARK    4  A    between atoms: N_4  and  C_5 
ROOT
HETATM    1  C   UNK N   1      21.652  18.869   4.139  0.00  0.00     0.133 A 
HETATM    2  N   UNK N   1      21.189  17.868   4.951  0.00  0.00    -0.337 N 
ATOM      3  HN  UNK N   1      20.186  17.688   5.008  1.00  0.00     0.168 HD
HETATM    4  C   UNK N   1      22.063  17.101   5.692  0.00  0.00     0.183 A 
HETATM    5  N   UNK N   1      23.416  17.326   5.631  0.00  0.00    -0.336 N 
ATOM      6  HN  UNK N   1      24.069  16.764   6.175  1.00  0.00     0.168 HD
HETATM    7  C   UNK N   1      23.852  18.320   4.822  0.00  0.00     0.145 A 
HETATM    8  C   UNK N   1      23.009  19.083   4.087  0.00  0.00     0.123 A 
HETATM    9  N   UNK N   1      23.698  19.996   3.372  0.00  0.00    -0.336 N 
ATOM     10  HN  UNK N   1      23.338  20.703   2.731  1.00  0.00     0.168 HD
HETATM   11  C   UNK N   1      24.987  19.745   3.712  0.00  0.00     0.113 A 
HETATM   12  C   UNK N   1      26.101  20.424   3.238  0.00  0.00     0.049 A 
HETATM   13  C   UNK N   1      27.357  20.011   3.712  0.00  0.00     0.005 A 
HETATM   14  C   UNK N   1      27.458  18.947   4.633  0.00  0.00     0.018 A 
HETATM   15  C   UNK N   1      26.295  18.297   5.077  0.00  0.00     0.100 A 
HETATM   16  N   UNK N   1      25.104  18.728   4.593  0.00  0.00    -0.292 N 
ENDROOT
BRANCH   1  17
HETATM   17  N   UNK N   1      20.793  19.678   3.363  0.00  0.00    -0.372 N 
HETATM   18  H   UNK N   1      20.365  20.449   3.801  0.00  0.00     0.161 HD
BRANCH  17  19
HETATM   19  C   UNK N   1      20.507  19.444   1.979  0.00  0.00     0.147 C 
BRANCH  19  20
HETATM   20  C   UNK N   1      20.747  20.748   1.245  0.00  0.00     0.183 C 
BRANCH  20  21
HETATM   21  O   UNK N   1      20.617  20.555  -0.126  0.00  0.00    -0.399 OA
HETATM   22  H   UNK N   1      19.735  20.510  -0.528  0.00  0.00     0.209 HD
ENDBRANCH  20  21
ENDBRANCH  19  20
ENDBRANCH  17  19
ENDBRANCH   1  17
TORSDOF 4
ENDMDL
MODEL 3
REMARK VINA RESULT:      -5.7      6.123      8.938
REMARK  4 active torsions:
REMARK  status: ('A' for Active; 'I' for Inactive)
REMARK    1  A    between atoms: O_1  and  C_2 
REMARK    2  A    between atoms: C_2  and  C_3 
REMARK    3  A    between atoms: C_3  and  N_4 
REMARK    4  A    between atoms: N_4  and  C_5 
ROOT
HETATM    1  C   UNK N   1      36.313  13.523  12.262  0.00  0.00     0.133 A 
HETATM    2  N   UNK N   1      35.526  12.477  11.856  0.00  0.00    -0.337 N 
ATOM      3  HN  UNK N   1      35.513  12.208  10.872  1.00  0.00     0.168 HD
HETATM    4  C   UNK N   1      34.751  11.786  12.763  0.00  0.00     0.183 A 
HETATM    5  N   UNK N   1      34.753  12.131  14.092  0.00  0.00    -0.336 N 
ATOM      6  HN  UNK N   1      34.184  11.625  14.769  1.00  0.00     0.168 HD
HETATM    7  C   UNK N   1      35.538  13.167  14.471  0.00  0.00     0.145 A 
HETATM    8  C   UNK N   1      36.305  13.858  13.595  0.00  0.00     0.123 A 
HETATM    9  N   UNK N   1      36.985  14.834  14.229  0.00  0.00    -0.336 N 
ATOM     10  HN  UNK N   1      37.638  15.512  13.834  1.00  0.00     0.168 HD
HETATM   11  C   UNK N   1      36.592  14.697  15.520  0.00  0.00     0.113 A 
HETATM   12  C   UNK N   1      37.014  15.477  16.587  0.00  0.00     0.049 A 
HETATM   13  C   UNK N   1      36.488  15.175  17.853  0.00  0.00     0.005 A 
HETATM   14  C   UNK N   1      35.568  14.116  18.010  0.00  0.00     0.018 A 
HETATM   15  C   UNK N   1      35.178  13.361  16.893  0.00  0.00     0.100 A 
HETATM   16  N   UNK N   1      35.710  13.687  15.689  0.00  0.00    -0.292 N 
ENDROOT
BRANCH   1  17
HETATM   17  N   UNK N   1      37.121  14.258  11.367  0.00  0.00    -0.372 N 
HETATM   18  H   UNK N   1      38.098  14.185  11.462  0.00  0.00     0.161 HD
BRANCH  17  19
HETATM   19  C   UNK N   1      36.604  15.101  10.331  0.00  0.00     0.147 C 
BRANCH  19  20
HETATM   20  C   UNK N   1      35.663  16.091  10.986  0.00  0.00     0.183 C 
BRANCH  20  21
HETATM   21  O   UNK N   1      35.871  17.364  10.467  0.00  0.00    -0.399 OA
HETATM   22  H   UNK N   1      36.205  18.073  11.039  0.00  0.00     0.209 HD
ENDBRANCH  20  21
ENDBRANCH  19  20
ENDBRANCH  17  19
ENDBRANCH   1  17
TORSDOF 4
ENDMDL
MODEL 4
REMARK VINA RESULT:      -5.6      2.395      4.248
REMARK  4 active torsions:
REMARK  status: ('A' for Active; 'I' for Inactive)
REMARK    1  A    between atoms: O_1  and  C_2 
REMARK    2  A    between atoms: C_2  and  C_3 
REMARK    3  A    between atoms: C_3  and  N_4 
REMARK    4  A    between atoms: N_4  and  C_5 
ROOT
HETATM    1  C   UNK N   1      31.642  17.479   8.524  0.00  0.00     0.133 A 
HETATM    2  N   UNK N   1      32.885  17.740   9.037  0.00  0.00    -0.337 N 
ATOM      3  HN  UNK N   1      32.996  17.885  10.041  1.00  0.00     0.168 HD
HETATM    4  C   UNK N   1      33.987  17.810   8.211  0.00  0.00     0.183 A 
HETATM    5  N   UNK N   1      33.860  17.619   6.857  0.00  0.00    -0.336 N 
ATOM      6  HN  UNK N   1      34.670  17.669   6.239  1.00  0.00     0.168 HD
HETATM    7  C   UNK N   1      32.623  17.362   6.372  0.00  0.00     0.145 A 
HETATM    8  C   UNK N   1      31.530  17.289   7.167  0.00  0.00     0.123 A 
HETATM    9  N   UNK N   1      30.429  17.022   6.435  0.00  0.00    -0.336 N 
ATOM     10  HN  UNK N   1      29.467  16.910   6.754  1.00  0.00     0.168 HD
HETATM   11  C   UNK N   1      30.912  16.938   5.170  0.00  0.00     0.113 A 
HETATM   12  C   UNK N   1      30.166  16.676   4.029  0.00  0.00     0.049 A 
HETATM   13  C   UNK N   1      30.854  16.630   2.807  0.00  0.00     0.005 A 
HETATM   14  C   UNK N   1      32.249  16.845   2.763  0.00  0.00     0.018 A 
HETATM   15  C   UNK N   1      32.950  17.107   3.951  0.00  0.00     0.100 A 
HETATM   16  N   UNK N   1      32.246  17.142   5.109  0.00  0.00    -0.292 N 
ENDROOT
BRANCH   1  17
HETATM   17  N   UNK N   1      30.487  17.398   9.333  0.00  0.00    -0.372 N 
HETATM   18  H   UNK N   1      30.190  16.507   9.626  0.00  0.00     0.161 HD
BRANCH  17  19
HETATM   19  C   UNK N   1      29.723  18.535   9.752  0.00  0.00     0.147 C 
BRANCH  19  20
HETATM   20  C   UNK N   1      28.497  18.603   8.865  0.00  0.00     0.183 C 
BRANCH  20  21
HETATM   21  O   UNK N   1      27.439  17.925   9.460  0.00  0.00    -0.399 OA
HETATM   22  H   UNK N   1      27.612  17.152  10.021  0.00  0.00     0.209 HD
ENDBRANCH  20  21
ENDBRANCH  19  20
ENDBRANCH  17  19
ENDBRANCH   1  17
TORSDOF 4
ENDMDL
MODEL 5
REMARK VINA RESULT:      -5.5      2.873      6.051
REMARK  4 active torsions:
REMARK  status: ('A' for Active; 'I' for Inactive)
REMARK    1  A    between atoms: O_1  and  C_2 
REMARK    2  A    between atoms: C_2  and  C_3 
REMARK    3  A    between atoms: C_3  and  N_4 
REMARK    4  A    between atoms: N_4  and  C_5 
ROOT
HETATM    1  C   UNK N   1      28.234  17.620   7.448  0.00  0.00     0.133 A 
HETATM    2  N   UNK N   1      27.866  17.878   8.742  0.00  0.00    -0.337 N 
ATOM      3  HN  UNK N   1      26.876  17.950   8.980  1.00  0.00     0.168 HD
HETATM    4  C   UNK N   1      28.818  18.043   9.726  0.00  0.00     0.183 A 
HETATM    5  N   UNK N   1      30.155  17.951   9.427  0.00  0.00    -0.336 N 
ATOM      6  HN  UNK N   1      30.866  18.071  10.148  1.00  0.00     0.168 HD
HETATM    7  C   UNK N   1      30.497  17.695   8.142  0.00  0.00     0.145 A 
HETATM    8  C   UNK N   1      29.576  17.531   7.163  0.00  0.00     0.123 A 
HETATM    9  N   UNK N   1      30.180  17.288   5.982  0.00  0.00    -0.336 N 
ATOM     10  HN  UNK N   1      29.749  17.124   5.072  1.00  0.00     0.168 HD
HETATM   11  C   UNK N   1      31.498  17.315   6.298  0.00  0.00     0.113 A 
HETATM   12  C   UNK N   1      32.551  17.118   5.415  0.00  0.00     0.049 A 
HETATM   13  C   UNK N   1      33.852  17.185   5.939  0.00  0.00     0.005 A 
HETATM   14  C   UNK N   1      34.057  17.443   7.311  0.00  0.00     0.018 A 
HETATM   15  C   UNK N   1      32.952  17.634   8.156  0.00  0.00     0.100 A 
HETATM   16  N   UNK N   1      31.714  17.561   7.609  0.00  0.00    -0.292 N 
ENDROOT
BRANCH   1  17
HETATM   17  N   UNK N   1      27.292  17.445   6.410  0.00  0.00    -0.372 N 
HETATM   18  H   UNK N   1      26.957  16.535   6.240  0.00  0.00     0.161 HD
BRANCH  17  19
HETATM   19  C   UNK N   1      26.797  18.511   5.592  0.00  0.00     0.147 C 
BRANCH  19  20
HETATM   20  C   UNK N   1      27.282  18.254   4.179  0.00  0.00     0.183 C 
BRANCH  20  21
HETATM   21  O   UNK N   1      28.523  18.849   3.985  0.00  0.00    -0.399 OA
HETATM   22  H   UNK N   1      28.711  19.719   4.374  0.00  0.00     0.209 HD
ENDBRANCH  20  21
ENDBRANCH  19  20
ENDBRANCH  17  19
ENDBRANCH   1  17
TORSDOF 4
ENDMDL
MODEL 6
REMARK VINA RESULT:      -5.5      6.329      9.745
REMARK  4 active torsions:
REMARK  status: ('A' for Active; 'I' for Inactive)
REMARK    1  A    between atoms: O_1  and  C_2 
REMARK    2  A    between atoms: C_2  and  C_3 
REMARK    3  A    between atoms: C_3  and  N_4 
REMARK    4  A    between atoms: N_4  and  C_5 
ROOT
HETATM    1  C   UNK N   1      36.758  13.503  13.041  0.00  0.00     0.133 A 
HETATM    2  N   UNK N   1      37.406  12.619  12.219  0.00  0.00    -0.337 N 
ATOM      3  HN  UNK N   1      37.665  12.905  11.275  1.00  0.00     0.168 HD
HETATM    4  C   UNK N   1      37.710  11.346  12.654  0.00  0.00     0.183 A 
HETATM    5  N   UNK N   1      37.371  10.940  13.920  0.00  0.00    -0.336 N 
ATOM      6  HN  UNK N   1      37.592  10.001  14.250  1.00  0.00     0.168 HD
HETATM    7  C   UNK N   1      36.732  11.829  14.716  0.00  0.00     0.145 A 
HETATM    8  C   UNK N   1      36.424  13.083  14.307  0.00  0.00     0.123 A 
HETATM    9  N   UNK N   1      35.793  13.759  15.288  0.00  0.00    -0.336 N 
ATOM     10  HN  UNK N   1      35.442  14.717  15.273  1.00  0.00     0.168 HD
HETATM   11  C   UNK N   1      35.736  12.857  16.299  0.00  0.00     0.113 A 
HETATM   12  C   UNK N   1      35.173  13.070  17.549  0.00  0.00     0.049 A 
HETATM   13  C   UNK N   1      35.215  12.005  18.464  0.00  0.00     0.005 A 
HETATM   14  C   UNK N   1      35.810  10.777  18.104  0.00  0.00     0.018 A 
HETATM   15  C   UNK N   1      36.364  10.621  16.823  0.00  0.00     0.100 A 
HETATM   16  N   UNK N   1      36.303  11.674  15.972  0.00  0.00    -0.292 N 
ENDROOT
BRANCH   1  17
HETATM   17  N   UNK N   1      36.427  14.815  12.637  0.00  0.00    -0.372 N 
HETATM   18  H   UNK N   1      36.983  15.555  12.972  0.00  0.00     0.161 HD
BRANCH  17  19
HETATM   19  C   UNK N   1      35.333  15.132  11.769  0.00  0.00     0.147 C 
BRANCH  19  20
HETATM   20  C   UNK N   1      35.832  16.164  10.777  0.00  0.00     0.183 C 
BRANCH  20  21
HETATM   21  O   UNK N   1      35.058  17.316  10.858  0.00  0.00    -0.399 OA
HETATM   22  H   UNK N   1      34.424  17.425  11.585  0.00  0.00     0.209 HD
ENDBRANCH  20  21
ENDBRANCH  19  20
ENDBRANCH  17  19
ENDBRANCH   1  17
TORSDOF 4
ENDMDL
MODEL 7
REMARK VINA RESULT:      -5.4      6.094      9.574
REMARK  4 active torsions:
REMARK  status: ('A' for Active; 'I' for Inactive)
REMARK    1  A    between atoms: O_1  and  C_2 
REMARK    2  A    between atoms: C_2  and  C_3 
REMARK    3  A    between atoms: C_3  and  N_4 
REMARK    4  A    between atoms: N_4  and  C_5 
ROOT
HETATM    1  C   UNK N   1      36.197  14.220  13.454  0.00  0.00     0.133 A 
HETATM    2  N   UNK N   1      36.855  15.292  13.997  0.00  0.00    -0.337 N 
ATOM      3  HN  UNK N   1      37.139  16.067  13.397  1.00  0.00     0.168 HD
HETATM    4  C   UNK N   1      37.139  15.335  15.346  0.00  0.00     0.183 A 
HETATM    5  N   UNK N   1      36.767  14.304  16.172  0.00  0.00    -0.336 N 
ATOM      6  HN  UNK N   1      36.973  14.327  17.170  1.00  0.00     0.168 HD
HETATM    7  C   UNK N   1      36.118  13.254  15.615  0.00  0.00     0.145 A 
HETATM    8  C   UNK N   1      35.831  13.195  14.293  0.00  0.00     0.123 A 
HETATM    9  N   UNK N   1      35.183  12.048  14.001  0.00  0.00    -0.336 N 
ATOM     10  HN  UNK N   1      34.842  11.726  13.095  1.00  0.00     0.168 HD
HETATM   11  C   UNK N   1      35.096  11.427  15.203  0.00  0.00     0.113 A 
HETATM   12  C   UNK N   1      34.506  10.194  15.442  0.00  0.00     0.049 A 
HETATM   13  C   UNK N   1      34.518   9.719  16.763  0.00  0.00     0.005 A 
HETATM   14  C   UNK N   1      35.111  10.483  17.791  0.00  0.00     0.018 A 
HETATM   15  C   UNK N   1      35.693  11.725  17.489  0.00  0.00     0.100 A 
HETATM   16  N   UNK N   1      35.659  12.144  16.201  0.00  0.00    -0.292 N 
ENDROOT
BRANCH   1  17
HETATM   17  N   UNK N   1      35.887  14.135  12.079  0.00  0.00    -0.372 N 
HETATM   18  H   UNK N   1      36.355  13.457  11.542  0.00  0.00     0.161 HD
BRANCH  17  19
HETATM   19  C   UNK N   1      34.933  14.977  11.421  0.00  0.00     0.147 C 
BRANCH  19  20
HETATM   20  C   UNK N   1      35.696  15.823  10.421  0.00  0.00     0.183 C 
BRANCH  20  21
HETATM   21  O   UNK N   1      36.975  16.089  10.899  0.00  0.00    -0.399 OA
HETATM   22  H   UNK N   1      37.134  16.872  11.450  0.00  0.00     0.209 HD
ENDBRANCH  20  21
ENDBRANCH  19  20
ENDBRANCH  17  19
ENDBRANCH   1  17
TORSDOF 4
ENDMDL
MODEL 8
REMARK VINA RESULT:      -5.3     12.544     13.638
REMARK  4 active torsions:
REMARK  status: ('A' for Active; 'I' for Inactive)
REMARK    1  A    between atoms: O_1  and  C_2 
REMARK    2  A    between atoms: C_2  and  C_3 
REMARK    3  A    between atoms: C_3  and  N_4 
REMARK    4  A    between atoms: N_4  and  C_5 
ROOT
HETATM    1  C   UNK N   1      19.823  17.981   2.025  0.00  0.00     0.133 A 
HETATM    2  N   UNK N   1      19.644  17.564   0.732  0.00  0.00    -0.337 N 
ATOM      3  HN  UNK N   1      19.548  18.256  -0.012  1.00  0.00     0.168 HD
HETATM    4  C   UNK N   1      19.592  16.221   0.426  0.00  0.00     0.183 A 
HETATM    5  N   UNK N   1      19.719  15.274   1.412  0.00  0.00    -0.336 N 
ATOM      6  HN  UNK N   1      19.682  14.278   1.194  1.00  0.00     0.168 HD
HETATM    7  C   UNK N   1      19.895  15.707   2.682  0.00  0.00     0.145 A 
HETATM    8  C   UNK N   1      19.948  17.022   3.002  0.00  0.00     0.123 A 
HETATM    9  N   UNK N   1      20.130  17.179   4.329  0.00  0.00    -0.336 N 
ATOM     10  HN  UNK N   1      20.208  18.047   4.860  1.00  0.00     0.168 HD
HETATM   11  C   UNK N   1      20.182  15.904   4.787  0.00  0.00     0.113 A 
HETATM   12  C   UNK N   1      20.359  15.520   6.109  0.00  0.00     0.049 A 
HETATM   13  C   UNK N   1      20.386  14.144   6.382  0.00  0.00     0.005 A 
HETATM   14  C   UNK N   1      20.237  13.205   5.338  0.00  0.00     0.018 A 
HETATM   15  C   UNK N   1      20.062  13.654   4.019  0.00  0.00     0.100 A 
HETATM   16  N   UNK N   1      20.042  14.991   3.801  0.00  0.00    -0.292 N 
ENDROOT
BRANCH   1  17
HETATM   17  N   UNK N   1      19.881  19.346   2.383  0.00  0.00    -0.372 N 
HETATM   18  H   UNK N   1      19.087  19.747   2.804  0.00  0.00     0.161 HD
BRANCH  17  19
HETATM   19  C   UNK N   1      21.026  20.181   2.169  0.00  0.00     0.147 C 
BRANCH  19  20
HETATM   20  C   UNK N   1      20.667  21.161   1.071  0.00  0.00     0.183 C 
BRANCH  20  21
HETATM   21  O   UNK N   1      20.601  20.504  -0.153  0.00  0.00    -0.399 OA
HETATM   22  H   UNK N   1      21.196  20.763  -0.875  0.00  0.00     0.209 HD
ENDBRANCH  20  21
ENDBRANCH  19  20
ENDBRANCH  17  19
ENDBRANCH   1  17
TORSDOF 4
ENDMDL
MODEL 9
REMARK VINA RESULT:      -5.2      9.740     11.636
REMARK  4 active torsions:
REMARK  status: ('A' for Active; 'I' for Inactive)
REMARK    1  A    between atoms: O_1  and  C_2 
REMARK    2  A    between atoms: C_2  and  C_3 
REMARK    3  A    between atoms: C_3  and  N_4 
REMARK    4  A    between atoms: N_4  and  C_5 
ROOT
HETATM    1  C   UNK N   1      20.920  16.247   7.443  0.00  0.00     0.133 A 
HETATM    2  N   UNK N   1      21.766  16.624   6.434  0.00  0.00    -0.337 N 
ATOM      3  HN  UNK N   1      21.519  17.415   5.837  1.00  0.00     0.168 HD
HETATM    4  C   UNK N   1      22.948  15.948   6.215  0.00  0.00     0.183 A 
HETATM    5  N   UNK N   1      23.300  14.882   7.006  0.00  0.00    -0.336 N 
ATOM      6  HN  UNK N   1      24.172  14.376   6.852  1.00  0.00     0.168 HD
HETATM    7  C   UNK N   1      22.449  14.526   7.997  0.00  0.00     0.145 A 
HETATM    8  C   UNK N   1      21.285  15.178   8.226  0.00  0.00     0.123 A 
HETATM    9  N   UNK N   1      20.630  14.625   9.267  0.00  0.00    -0.336 N 
ATOM     10  HN  UNK N   1      19.733  14.898   9.670  1.00  0.00     0.168 HD
HETATM   11  C   UNK N   1      21.452  13.616   9.648  0.00  0.00     0.113 A 
HETATM   12  C   UNK N   1      21.225  12.732  10.694  0.00  0.00     0.049 A 
HETATM   13  C   UNK N   1      22.201  11.751  10.931  0.00  0.00     0.005 A 
HETATM   14  C   UNK N   1      23.358  11.686  10.127  0.00  0.00     0.018 A 
HETATM   15  C   UNK N   1      23.533  12.608   9.082  0.00  0.00     0.100 A 
HETATM   16  N   UNK N   1      22.566  13.538   8.888  0.00  0.00    -0.292 N 
ENDROOT
BRANCH   1  17
HETATM   17  N   UNK N   1      19.701  16.912   7.701  0.00  0.00    -0.372 N 
HETATM   18  H   UNK N   1      18.944  16.738   7.097  0.00  0.00     0.161 HD
BRANCH  17  19
HETATM   19  C   UNK N   1      19.501  17.822   8.789  0.00  0.00     0.147 C 
BRANCH  19  20
HETATM   20  C   UNK N   1      18.162  17.485   9.414  0.00  0.00     0.183 C 
BRANCH  20  21
HETATM   21  O   UNK N   1      17.917  16.120   9.312  0.00  0.00    -0.399 OA
HETATM   22  H   UNK N   1      18.248  15.515   9.995  0.00  0.00     0.209 HD
ENDBRANCH  20  21
ENDBRANCH  19  20
ENDBRANCH  17  19
ENDBRANCH   1  17
TORSDOF 4
ENDMDL
