MODEL 1
REMARK VINA RESULT:      -8.0      0.000      0.000
REMARK WARNING: 32 MAX_TORS EXCEEDED!!!
REMARK  36 active torsions:
REMARK  status: ('A' for Active; 'I' for Inactive)
REMARK    1  A    between atoms: C_14  and  C_4 
REMARK    2  A    between atoms: C_16  and  C_4 
REMARK    3  A    between atoms: C_15  and  C_5 
REMARK    4  A    between atoms: C_17  and  C_5 
REMARK    5  A    between atoms: C_11  and  C_6 
REMARK    6  A    between atoms: C_22  and  C_6 
REMARK    7  A    between atoms: C_32  and  C_11 
REMARK    8  A    between atoms: N_43  and  C_14 
REMARK    9  A    between atoms: N_45  and  C_15 
REMARK   10  A    between atoms: N_47  and  C_16 
REMARK   11  A    between atoms: N_47  and  C_17 
REMARK   12  A    between atoms: C_29  and  C_20 
REMARK   13  A    between atoms: O_48  and  C_20 
REMARK   14  A    between atoms: C_30  and  C_21 
REMARK   15  A    between atoms: O_49  and  C_21 
REMARK   16  A    between atoms: C_26  and  C_22 
REMARK   17  A    between atoms: C_24  and  O_50 
REMARK   18  A    between atoms: C_33  and  C_29 
REMARK   19  A    between atoms: C_29  and  O_51 
REMARK   20  A    between atoms: C_34  and  C_30 
REMARK   21  A    between atoms: C_30  and  O_52 
REMARK   22  A    between atoms: C_31  and  O_53 
REMARK       I    between atoms: N_47  and  C_32 
REMARK   23  A    between atoms: C_35  and  C_33 
REMARK   24  A    between atoms: C_33  and  O_55 
REMARK   25  A    between atoms: C_36  and  C_34 
REMARK   26  A    between atoms: C_34  and  O_56 
REMARK   27  A    between atoms: C_37  and  C_35 
REMARK   28  A    between atoms: C_35  and  O_57 
REMARK   29  A    between atoms: C_38  and  C_36 
REMARK   30  A    between atoms: C_36  and  O_58 
REMARK   31  A    between atoms: C_39  and  C_37 
REMARK   32  A    between atoms: C_37  and  O_59 
REMARK   33  A    between atoms: C_40  and  C_38 
REMARK   34  A    between atoms: C_38  and  O_60 
REMARK   35  A    between atoms: O_61  and  C_39 
REMARK   36  A    between atoms: O_62  and  C_40 
ROOT
HETATM    1  C   UNK N   1      28.960  15.016   4.526  0.00  0.00     0.219 C 
HETATM    2  N   UNK N   1      29.465  16.102   5.184  0.00  0.00    -0.352 N 
HETATM    3  O   UNK N   1      28.853  13.952   5.111  0.00  0.00    -0.273 OA
ENDROOT
BRANCH   2   4
HETATM    4  C   UNK N   1      30.006  15.883   6.508  0.00  0.00     0.127 C 
BRANCH   4   5
HETATM    5  C   UNK N   1      30.184  17.238   7.212  0.00  0.00     0.039 C 
BRANCH   5   6
HETATM    6  C   UNK N   1      31.608  17.552   7.710  0.00  0.00     0.123 C 
BRANCH   6   7
HETATM    7  N   UNK N   1      32.674  17.157   6.792  0.00  0.00    -0.372 N 
HETATM    8  C   UNK N   1      33.936  17.232   7.105  0.00  0.00     0.143 C 
ATOM      9  HN  UNK N   1      32.418  16.806   5.869  1.00  0.00     0.161 HD
BRANCH   8  10
HETATM   10  C   UNK N   1      34.354  17.737   8.474  0.00  0.00     0.223 C 
BRANCH  10  11
HETATM   11  C   UNK N   1      35.130  16.854   9.499  0.00  0.00     0.186 C 
BRANCH  11  12
HETATM   12  C   UNK N   1      35.129  15.307   9.428  0.00  0.00     0.180 C 
BRANCH  12  13
HETATM   13  C   UNK N   1      36.301  14.791  10.322  0.00  0.00     0.173 C 
BRANCH  13  14
HETATM   14  C   UNK N   1      35.852  13.995  11.540  0.00  0.00     0.198 C 
BRANCH  14  15
HETATM   15  O   UNK N   1      34.650  14.487  12.044  0.00  0.00    -0.398 OA
HETATM   16  H   UNK N   1      33.994  14.664  12.736  0.00  0.00     0.209 HD
ENDBRANCH  14  15
ENDBRANCH  13  14
BRANCH  13  17
HETATM   17  O   UNK N   1      37.134  15.836  10.732  0.00  0.00    -0.391 OA
HETATM   18  H   UNK N   1      37.681  15.741  11.528  0.00  0.00     0.210 HD
ENDBRANCH  13  17
ENDBRANCH  12  13
BRANCH  12  19
HETATM   19  O   UNK N   1      35.369  14.893   8.118  0.00  0.00    -0.390 OA
HETATM   20  H   UNK N   1      34.916  14.112   7.761  0.00  0.00     0.210 HD
ENDBRANCH  12  19
ENDBRANCH  11  12
BRANCH  11  21
HETATM   21  O   UNK N   1      34.847  17.242  10.805  0.00  0.00    -0.390 OA
HETATM   22  H   UNK N   1      35.361  16.907  11.557  0.00  0.00     0.210 HD
ENDBRANCH  11  21
ENDBRANCH  10  11
BRANCH  10  23
HETATM   23  O   UNK N   1      34.914  19.010   8.356  0.00  0.00    -0.385 OA
HETATM   24  H   UNK N   1      35.703  19.251   8.865  0.00  0.00     0.210 HD
ENDBRANCH  10  23
ENDBRANCH   8  10
BRANCH   8  25
HETATM   25  O   UNK N   1      34.863  16.814   6.220  0.00  0.00    -0.348 OA
HETATM   26  H   UNK N   1      35.534  16.230   5.926  0.00  0.00     0.219 HD
ENDBRANCH   8  25
ENDBRANCH   6   7
ENDBRANCH   5   6
ENDBRANCH   4   5
ENDBRANCH   2   4
BRANCH   2  27
HETATM   27  C   UNK N   1      29.675  17.435   4.635  0.00  0.00     0.127 C 
BRANCH  27  28
HETATM   28  C   UNK N   1      28.578  18.143   3.832  0.00  0.00     0.039 C 
BRANCH  28  29
HETATM   29  C   UNK N   1      27.424  18.606   4.728  0.00  0.00     0.123 C 
BRANCH  29  30
HETATM   30  N   UNK N   1      26.372  19.125   3.895  0.00  0.00    -0.372 N 
HETATM   31  C   UNK N   1      25.368  19.753   4.400  0.00  0.00     0.143 C 
ATOM     32  HN  UNK N   1      26.424  18.994   2.884  1.00  0.00     0.161 HD
BRANCH  31  33
HETATM   33  C   UNK N   1      24.433  20.482   3.488  0.00  0.00     0.223 C 
BRANCH  33  34
HETATM   34  C   UNK N   1      23.203  19.622   3.147  0.00  0.00     0.186 C 
BRANCH  34  35
HETATM   35  C   UNK N   1      21.896  20.451   3.119  0.00  0.00     0.180 C 
BRANCH  35  36
HETATM   36  C   UNK N   1      20.893  19.899   2.087  0.00  0.00     0.173 C 
BRANCH  36  37
HETATM   37  C   UNK N   1      20.437  20.979   1.110  0.00  0.00     0.198 C 
BRANCH  37  38
HETATM   38  O   UNK N   1      20.653  20.584  -0.211  0.00  0.00    -0.398 OA
HETATM   39  H   UNK N   1      20.501  20.200  -1.089  0.00  0.00     0.209 HD
ENDBRANCH  37  38
ENDBRANCH  36  37
BRANCH  36  40
HETATM   40  O   UNK N   1      19.774  19.356   2.722  0.00  0.00    -0.391 OA
HETATM   41  H   UNK N   1      19.378  18.535   2.390  0.00  0.00     0.210 HD
ENDBRANCH  36  40
ENDBRANCH  35  36
BRANCH  35  42
HETATM   42  O   UNK N   1      22.190  21.775   2.775  0.00  0.00    -0.390 OA
HETATM   43  H   UNK N   1      22.305  22.444   3.469  0.00  0.00     0.210 HD
ENDBRANCH  35  42
ENDBRANCH  34  35
BRANCH  34  44
HETATM   44  O   UNK N   1      23.106  18.595   4.092  0.00  0.00    -0.390 OA
HETATM   45  H   UNK N   1      22.271  18.440   4.559  0.00  0.00     0.210 HD
ENDBRANCH  34  44
ENDBRANCH  33  34
BRANCH  33  46
HETATM   46  O   UNK N   1      25.150  20.804   2.333  0.00  0.00    -0.385 OA
HETATM   47  H   UNK N   1      26.090  20.575   2.256  0.00  0.00     0.210 HD
ENDBRANCH  33  46
ENDBRANCH  31  33
BRANCH  31  48
HETATM   48  O   UNK N   1      25.215  19.849   5.738  0.00  0.00    -0.348 OA
HETATM   49  H   UNK N   1      25.007  19.154   6.331  0.00  0.00     0.219 HD
ENDBRANCH  31  48
ENDBRANCH  29  30
ENDBRANCH  28  29
ENDBRANCH  27  28
ENDBRANCH   2  27
BRANCH   1  50
HETATM   50  C   UNK N   1      28.673  15.021   3.050  0.00  0.00     0.103 C 
BRANCH  50  51
HETATM   51  C   UNK N   1      27.493  14.228   2.537  0.00  0.00     0.014 C 
BRANCH  51  52
HETATM   52  C   UNK N   1      26.131  14.490   3.152  0.00  0.00    -0.013 C 
HETATM   53  C   UNK N   1      25.784  15.873   2.638  0.00  0.00     0.010 C 
BRANCH  52  54
HETATM   54  C   UNK N   1      25.071  13.343   2.928  0.00  0.00     0.000 C 
HETATM   55  C   UNK N   1      23.717  13.834   2.320  0.00  0.00     0.006 C 
HETATM   56  C   UNK N   1      22.637  13.721   3.402  0.00  0.00     0.006 C 
HETATM   57  C   UNK N   1      23.485  13.556   4.632  0.00  0.00     0.001 C 
HETATM   58  C   UNK N   1      22.918  13.065   5.939  0.00  0.00    -0.005 C 
HETATM   59  C   UNK N   1      24.594  12.573   4.166  0.00  0.00    -0.010 C 
HETATM   60  C   UNK N   1      21.619  13.717   6.400  0.00  0.00     0.006 C 
HETATM   61  C   UNK N   1      24.023  13.342   7.017  0.00  0.00     0.001 C 
HETATM   62  C   UNK N   1      21.175  13.010   7.689  0.00  0.00     0.006 C 
HETATM   63  C   UNK N   1      22.254  13.112   8.781  0.00  0.00    -0.004 C 
HETATM   64  C   UNK N   1      21.822  12.331  10.024  0.00  0.00     0.037 C 
HETATM   65  C   UNK N   1      23.643  12.594   8.304  0.00  0.00    -0.036 C 
HETATM   66  C   UNK N   1      22.853  12.463  11.151  0.00  0.00     0.118 C 
HETATM   67  C   UNK N   1      24.265  12.101  10.686  0.00  0.00     0.032 C 
HETATM   68  C   UNK N   1      24.657  12.868   9.422  0.00  0.00     0.012 C 
HETATM   69  C   UNK N   1      23.623  11.081   8.025  0.00  0.00     0.016 C 
HETATM   70  C   UNK N   1      25.483  13.083   6.529  0.00  0.00     0.038 C 
HETATM   71  C   UNK N   1      25.564  12.153   5.322  0.00  0.00     0.127 C 
HETATM   72  C   UNK N   1      23.989  11.241   3.654  0.00  0.00     0.018 C 
BRANCH  66  73
HETATM   73  O   UNK N   1      22.493  11.607  12.190  0.00  0.00    -0.396 OA
HETATM   74  H   UNK N   1      23.075  11.217  12.861  0.00  0.00     0.210 HD
ENDBRANCH  66  73
BRANCH  71  75
HETATM   75  O   UNK N   1      26.878  12.005   4.871  0.00  0.00    -0.395 OA
HETATM   76  H   UNK N   1      27.163  11.180   4.449  0.00  0.00     0.210 HD
ENDBRANCH  71  75
ENDBRANCH  52  54
ENDBRANCH  51  52
ENDBRANCH  50  51
ENDBRANCH   1  50
TORSDOF 36
ENDMDL
MODEL 2
REMARK VINA RESULT:      -7.9      2.931     11.549
REMARK WARNING: 32 MAX_TORS EXCEEDED!!!
REMARK  36 active torsions:
REMARK  status: ('A' for Active; 'I' for Inactive)
REMARK    1  A    between atoms: C_14  and  C_4 
REMARK    2  A    between atoms: C_16  and  C_4 
REMARK    3  A    between atoms: C_15  and  C_5 
REMARK    4  A    between atoms: C_17  and  C_5 
REMARK    5  A    between atoms: C_11  and  C_6 
REMARK    6  A    between atoms: C_22  and  C_6 
REMARK    7  A    between atoms: C_32  and  C_11 
REMARK    8  A    between atoms: N_43  and  C_14 
REMARK    9  A    between atoms: N_45  and  C_15 
REMARK   10  A    between atoms: N_47  and  C_16 
REMARK   11  A    between atoms: N_47  and  C_17 
REMARK   12  A    between atoms: C_29  and  C_20 
REMARK   13  A    between atoms: O_48  and  C_20 
REMARK   14  A    between atoms: C_30  and  C_21 
REMARK   15  A    between atoms: O_49  and  C_21 
REMARK   16  A    between atoms: C_26  and  C_22 
REMARK   17  A    between atoms: C_24  and  O_50 
REMARK   18  A    between atoms: C_33  and  C_29 
REMARK   19  A    between atoms: C_29  and  O_51 
REMARK   20  A    between atoms: C_34  and  C_30 
REMARK   21  A    between atoms: C_30  and  O_52 
REMARK   22  A    between atoms: C_31  and  O_53 
REMARK       I    between atoms: N_47  and  C_32 
REMARK   23  A    between atoms: C_35  and  C_33 
REMARK   24  A    between atoms: C_33  and  O_55 
REMARK   25  A    between atoms: C_36  and  C_34 
REMARK   26  A    between atoms: C_34  and  O_56 
REMARK   27  A    between atoms: C_37  and  C_35 
REMARK   28  A    between atoms: C_35  and  O_57 
REMARK   29  A    between atoms: C_38  and  C_36 
REMARK   30  A    between atoms: C_36  and  O_58 
REMARK   31  A    between atoms: C_39  and  C_37 
REMARK   32  A    between atoms: C_37  and  O_59 
REMARK   33  A    between atoms: C_40  and  C_38 
REMARK   34  A    between atoms: C_38  and  O_60 
REMARK   35  A    between atoms: O_61  and  C_39 
REMARK   36  A    between atoms: O_62  and  C_40 
ROOT
HETATM    1  C   UNK N   1      27.441  17.150   4.819  0.00  0.00     0.219 C 
HETATM    2  N   UNK N   1      26.201  16.651   5.113  0.00  0.00    -0.352 N 
HETATM    3  O   UNK N   1      27.541  18.243   4.290  0.00  0.00    -0.273 OA
ENDROOT
BRANCH   2   4
HETATM    4  C   UNK N   1      25.058  17.388   4.621  0.00  0.00     0.127 C 
BRANCH   4   5
HETATM    5  C   UNK N   1      23.954  16.396   4.219  0.00  0.00     0.039 C 
BRANCH   5   6
HETATM    6  C   UNK N   1      22.741  17.004   3.487  0.00  0.00     0.123 C 
BRANCH   6   7
HETATM    7  N   UNK N   1      21.895  16.030   2.801  0.00  0.00    -0.372 N 
HETATM    8  C   UNK N   1      20.595  16.118   2.781  0.00  0.00     0.143 C 
ATOM      9  HN  UNK N   1      22.341  15.251   2.316  1.00  0.00     0.161 HD
BRANCH   8  10
HETATM   10  C   UNK N   1      19.897  17.270   3.480  0.00  0.00     0.223 C 
BRANCH  10  11
HETATM   11  C   UNK N   1      19.567  18.616   2.765  0.00  0.00     0.186 C 
BRANCH  11  12
HETATM   12  C   UNK N   1      19.958  19.990   3.362  0.00  0.00     0.180 C 
BRANCH  12  13
HETATM   13  C   UNK N   1      20.632  20.826   2.229  0.00  0.00     0.173 C 
BRANCH  13  14
HETATM   14  C   UNK N   1      21.060  20.006   1.020  0.00  0.00     0.198 C 
BRANCH  14  15
HETATM   15  O   UNK N   1      20.665  20.619  -0.167  0.00  0.00    -0.398 OA
HETATM   16  H   UNK N   1      20.681  20.773  -1.124  0.00  0.00     0.209 HD
ENDBRANCH  14  15
ENDBRANCH  13  14
BRANCH  13  17
HETATM   17  O   UNK N   1      21.725  21.554   2.708  0.00  0.00    -0.391 OA
HETATM   18  H   UNK N   1      21.929  22.428   2.339  0.00  0.00     0.210 HD
ENDBRANCH  13  17
ENDBRANCH  12  13
BRANCH  12  19
HETATM   19  O   UNK N   1      20.892  19.814   4.384  0.00  0.00    -0.390 OA
HETATM   20  H   UNK N   1      20.627  19.408   5.225  0.00  0.00     0.210 HD
ENDBRANCH  12  19
ENDBRANCH  11  12
BRANCH  11  21
HETATM   21  O   UNK N   1      18.230  18.660   2.379  0.00  0.00    -0.390 OA
HETATM   22  H   UNK N   1      17.515  18.456   3.002  0.00  0.00     0.210 HD
ENDBRANCH  11  21
ENDBRANCH  10  11
BRANCH  10  23
HETATM   23  O   UNK N   1      18.809  16.789   4.210  0.00  0.00    -0.385 OA
HETATM   24  H   UNK N   1      18.930  16.094   4.875  0.00  0.00     0.210 HD
ENDBRANCH  10  23
ENDBRANCH   8  10
BRANCH   8  25
HETATM   25  O   UNK N   1      19.881  15.203   2.095  0.00  0.00    -0.348 OA
HETATM   26  H   UNK N   1      19.393  14.911   1.351  0.00  0.00     0.219 HD
ENDBRANCH   8  25
ENDBRANCH   6   7
ENDBRANCH   5   6
ENDBRANCH   4   5
ENDBRANCH   2   4
BRANCH   2  27
HETATM   27  C   UNK N   1      25.902  15.364   5.725  0.00  0.00     0.127 C 
BRANCH  27  28
HETATM   28  C   UNK N   1      25.961  15.176   7.245  0.00  0.00     0.039 C 
BRANCH  28  29
HETATM   29  C   UNK N   1      25.107  13.991   7.707  0.00  0.00     0.123 C 
BRANCH  29  30
HETATM   30  N   UNK N   1      23.763  14.174   7.224  0.00  0.00    -0.372 N 
HETATM   31  C   UNK N   1      22.830  13.337   7.515  0.00  0.00     0.143 C 
ATOM     32  HN  UNK N   1      23.547  14.983   6.641  1.00  0.00     0.161 HD
BRANCH  31  33
HETATM   33  C   UNK N   1      21.411  13.692   7.201  0.00  0.00     0.223 C 
BRANCH  33  34
HETATM   34  C   UNK N   1      20.772  14.502   8.342  0.00  0.00     0.186 C 
BRANCH  34  35
HETATM   35  C   UNK N   1      20.604  15.997   7.980  0.00  0.00     0.180 C 
BRANCH  35  36
HETATM   36  C   UNK N   1      19.244  16.548   8.451  0.00  0.00     0.173 C 
BRANCH  36  37
HETATM   37  C   UNK N   1      19.373  17.957   9.023  0.00  0.00     0.198 C 
BRANCH  37  38
HETATM   38  O   UNK N   1      18.209  18.334   9.696  0.00  0.00    -0.398 OA
HETATM   39  H   UNK N   1      17.584  18.511  10.416  0.00  0.00     0.209 HD
ENDBRANCH  37  38
ENDBRANCH  36  37
BRANCH  36  40
HETATM   40  O   UNK N   1      18.678  15.714   9.417  0.00  0.00    -0.391 OA
HETATM   41  H   UNK N   1      17.753  15.432   9.334  0.00  0.00     0.210 HD
ENDBRANCH  36  40
ENDBRANCH  35  36
BRANCH  35  42
HETATM   42  O   UNK N   1      20.681  16.153   6.592  0.00  0.00    -0.390 OA
HETATM   43  H   UNK N   1      20.868  15.387   6.026  0.00  0.00     0.210 HD
ENDBRANCH  35  42
ENDBRANCH  34  35
BRANCH  34  44
HETATM   44  O   UNK N   1      21.573  14.365   9.482  0.00  0.00    -0.390 OA
HETATM   45  H   UNK N   1      21.308  13.763  10.194  0.00  0.00     0.210 HD
ENDBRANCH  34  44
ENDBRANCH  33  34
BRANCH  33  46
HETATM   46  O   UNK N   1      20.722  12.493   6.996  0.00  0.00    -0.385 OA
HETATM   47  H   UNK N   1      20.403  11.973   7.750  0.00  0.00     0.210 HD
ENDBRANCH  33  46
ENDBRANCH  31  33
BRANCH  31  48
HETATM   48  O   UNK N   1      23.105  12.202   8.193  0.00  0.00    -0.348 OA
HETATM   49  H   UNK N   1      23.489  11.421   7.847  0.00  0.00     0.219 HD
ENDBRANCH  31  48
ENDBRANCH  29  30
ENDBRANCH  28  29
ENDBRANCH  27  28
ENDBRANCH   2  27
BRANCH   1  50
HETATM   50  C   UNK N   1      28.699  16.341   4.971  0.00  0.00     0.103 C 
BRANCH  50  51
HETATM   51  C   UNK N   1      29.551  16.548   6.202  0.00  0.00     0.014 C 
BRANCH  51  52
HETATM   52  C   UNK N   1      30.883  15.826   6.283  0.00  0.00    -0.013 C 
HETATM   53  C   UNK N   1      30.746  14.737   5.239  0.00  0.00     0.010 C 
BRANCH  52  54
HETATM   54  C   UNK N   1      32.149  16.762   6.197  0.00  0.00     0.000 C 
HETATM   55  C   UNK N   1      33.026  16.536   4.922  0.00  0.00     0.006 C 
HETATM   56  C   UNK N   1      34.346  15.891   5.356  0.00  0.00     0.006 C 
HETATM   57  C   UNK N   1      33.997  15.440   6.747  0.00  0.00     0.001 C 
HETATM   58  C   UNK N   1      35.048  15.040   7.751  0.00  0.00    -0.005 C 
HETATM   59  C   UNK N   1      33.193  16.642   7.316  0.00  0.00    -0.010 C 
HETATM   60  C   UNK N   1      36.131  14.090   7.252  0.00  0.00     0.006 C 
HETATM   61  C   UNK N   1      34.277  14.344   8.926  0.00  0.00     0.001 C 
HETATM   62  C   UNK N   1      37.139  13.893   8.394  0.00  0.00     0.006 C 
HETATM   63  C   UNK N   1      36.454  13.329   9.651  0.00  0.00    -0.004 C 
HETATM   64  C   UNK N   1      37.461  13.220  10.798  0.00  0.00     0.037 C 
HETATM   65  C   UNK N   1      35.240  14.190  10.113  0.00  0.00    -0.036 C 
HETATM   66  C   UNK N   1      36.819  12.605  12.047  0.00  0.00     0.118 C 
HETATM   67  C   UNK N   1      35.537  13.334  12.454  0.00  0.00     0.032 C 
HETATM   68  C   UNK N   1      34.563  13.462  11.281  0.00  0.00     0.012 C 
HETATM   69  C   UNK N   1      35.679  15.583  10.595  0.00  0.00     0.016 C 
HETATM   70  C   UNK N   1      32.911  15.008   9.287  0.00  0.00     0.038 C 
HETATM   71  C   UNK N   1      32.796  16.456   8.819  0.00  0.00     0.127 C 
HETATM   72  C   UNK N   1      34.029  17.946   7.284  0.00  0.00     0.018 C 
BRANCH  66  73
HETATM   73  O   UNK N   1      37.727  12.680  13.101  0.00  0.00    -0.396 OA
HETATM   74  H   UNK N   1      37.774  13.360  13.792  0.00  0.00     0.210 HD
ENDBRANCH  66  73
BRANCH  71  75
HETATM   75  O   UNK N   1      31.536  16.990   9.095  0.00  0.00    -0.395 OA
HETATM   76  H   UNK N   1      30.864  16.457   9.548  0.00  0.00     0.210 HD
ENDBRANCH  71  75
ENDBRANCH  52  54
ENDBRANCH  51  52
ENDBRANCH  50  51
ENDBRANCH   1  50
TORSDOF 36
ENDMDL
MODEL 3
REMARK VINA RESULT:      -7.9      2.076      8.519
REMARK WARNING: 32 MAX_TORS EXCEEDED!!!
REMARK  36 active torsions:
REMARK  status: ('A' for Active; 'I' for Inactive)
REMARK    1  A    between atoms: C_14  and  C_4 
REMARK    2  A    between atoms: C_16  and  C_4 
REMARK    3  A    between atoms: C_15  and  C_5 
REMARK    4  A    between atoms: C_17  and  C_5 
REMARK    5  A    between atoms: C_11  and  C_6 
REMARK    6  A    between atoms: C_22  and  C_6 
REMARK    7  A    between atoms: C_32  and  C_11 
REMARK    8  A    between atoms: N_43  and  C_14 
REMARK    9  A    between atoms: N_45  and  C_15 
REMARK   10  A    between atoms: N_47  and  C_16 
REMARK   11  A    between atoms: N_47  and  C_17 
REMARK   12  A    between atoms: C_29  and  C_20 
REMARK   13  A    between atoms: O_48  and  C_20 
REMARK   14  A    between atoms: C_30  and  C_21 
REMARK   15  A    between atoms: O_49  and  C_21 
REMARK   16  A    between atoms: C_26  and  C_22 
REMARK   17  A    between atoms: C_24  and  O_50 
REMARK   18  A    between atoms: C_33  and  C_29 
REMARK   19  A    between atoms: C_29  and  O_51 
REMARK   20  A    between atoms: C_34  and  C_30 
REMARK   21  A    between atoms: C_30  and  O_52 
REMARK   22  A    between atoms: C_31  and  O_53 
REMARK       I    between atoms: N_47  and  C_32 
REMARK   23  A    between atoms: C_35  and  C_33 
REMARK   24  A    between atoms: C_33  and  O_55 
REMARK   25  A    between atoms: C_36  and  C_34 
REMARK   26  A    between atoms: C_34  and  O_56 
REMARK   27  A    between atoms: C_37  and  C_35 
REMARK   28  A    between atoms: C_35  and  O_57 
REMARK   29  A    between atoms: C_38  and  C_36 
REMARK   30  A    between atoms: C_36  and  O_58 
REMARK   31  A    between atoms: C_39  and  C_37 
REMARK   32  A    between atoms: C_37  and  O_59 
REMARK   33  A    between atoms: C_40  and  C_38 
REMARK   34  A    between atoms: C_38  and  O_60 
REMARK   35  A    between atoms: O_61  and  C_39 
REMARK   36  A    between atoms: O_62  and  C_40 
ROOT
HETATM    1  C   UNK N   1      29.152  15.972   3.509  0.00  0.00     0.219 C 
HETATM    2  N   UNK N   1      30.413  15.886   4.031  0.00  0.00    -0.352 N 
HETATM    3  O   UNK N   1      28.562  17.039   3.531  0.00  0.00    -0.273 OA
ENDROOT
BRANCH   2   4
HETATM    4  C   UNK N   1      30.918  17.042   4.739  0.00  0.00     0.127 C 
BRANCH   4   5
HETATM    5  C   UNK N   1      30.730  16.830   6.250  0.00  0.00     0.039 C 
BRANCH   5   6
HETATM    6  C   UNK N   1      30.130  18.020   7.023  0.00  0.00     0.123 C 
BRANCH   6   7
HETATM    7  N   UNK N   1      29.265  17.644   8.140  0.00  0.00    -0.372 N 
HETATM    8  C   UNK N   1      28.170  18.288   8.429  0.00  0.00     0.143 C 
ATOM      9  HN  UNK N   1      29.528  16.844   8.715  1.00  0.00     0.161 HD
BRANCH   8  10
HETATM   10  C   UNK N   1      27.738  19.476   7.588  0.00  0.00     0.223 C 
BRANCH  10  11
HETATM   11  C   UNK N   1      27.290  19.340   6.101  0.00  0.00     0.186 C 
BRANCH  11  12
HETATM   12  C   UNK N   1      26.315  20.341   5.434  0.00  0.00     0.180 C 
BRANCH  12  13
HETATM   13  C   UNK N   1      26.668  20.408   3.915  0.00  0.00     0.173 C 
BRANCH  13  14
HETATM   14  C   UNK N   1      25.556  19.925   2.994  0.00  0.00     0.198 C 
BRANCH  14  15
HETATM   15  O   UNK N   1      25.129  20.945   2.146  0.00  0.00    -0.398 OA
HETATM   16  H   UNK N   1      24.644  21.752   1.917  0.00  0.00     0.209 HD
ENDBRANCH  14  15
ENDBRANCH  13  14
BRANCH  13  17
HETATM   17  O   UNK N   1      27.844  19.708   3.630  0.00  0.00    -0.391 OA
HETATM   18  H   UNK N   1      28.573  19.695   4.270  0.00  0.00     0.210 HD
ENDBRANCH  13  17
ENDBRANCH  12  13
BRANCH  12  19
HETATM   19  O   UNK N   1      26.497  21.614   5.978  0.00  0.00    -0.390 OA
HETATM   20  H   UNK N   1      26.828  22.339   5.425  0.00  0.00     0.210 HD
ENDBRANCH  12  19
ENDBRANCH  11  12
BRANCH  11  21
HETATM   21  O   UNK N   1      26.859  18.046   5.827  0.00  0.00    -0.390 OA
HETATM   22  H   UNK N   1      25.983  17.733   6.103  0.00  0.00     0.210 HD
ENDBRANCH  11  21
ENDBRANCH  10  11
BRANCH  10  23
HETATM   23  O   UNK N   1      26.865  20.280   8.323  0.00  0.00    -0.385 OA
HETATM   24  H   UNK N   1      26.783  20.172   9.282  0.00  0.00     0.210 HD
ENDBRANCH  10  23
ENDBRANCH   8  10
BRANCH   8  25
HETATM   25  O   UNK N   1      27.401  17.861   9.451  0.00  0.00    -0.348 OA
HETATM   26  H   UNK N   1      26.771  17.988  10.132  0.00  0.00     0.219 HD
ENDBRANCH   8  25
ENDBRANCH   6   7
ENDBRANCH   5   6
ENDBRANCH   4   5
ENDBRANCH   2   4
BRANCH   2  27
HETATM   27  C   UNK N   1      31.248  14.694   4.101  0.00  0.00     0.127 C 
BRANCH  27  28
HETATM   28  C   UNK N   1      31.203  13.766   5.319  0.00  0.00     0.039 C 
BRANCH  28  29
HETATM   29  C   UNK N   1      32.606  13.354   5.775  0.00  0.00     0.123 C 
BRANCH  29  30
HETATM   30  N   UNK N   1      33.263  14.502   6.344  0.00  0.00    -0.372 N 
HETATM   31  C   UNK N   1      33.721  14.481   7.546  0.00  0.00     0.143 C 
ATOM     32  HN  UNK N   1      33.368  15.347   5.782  1.00  0.00     0.161 HD
BRANCH  31  33
HETATM   33  C   UNK N   1      34.604  15.597   8.008  0.00  0.00     0.223 C 
BRANCH  33  34
HETATM   34  C   UNK N   1      33.970  16.361   9.183  0.00  0.00     0.186 C 
BRANCH  34  35
HETATM   35  C   UNK N   1      34.545  15.919  10.551  0.00  0.00     0.180 C 
BRANCH  35  36
HETATM   36  C   UNK N   1      35.931  15.260  10.399  0.00  0.00     0.173 C 
BRANCH  36  37
HETATM   37  C   UNK N   1      36.010  13.935  11.151  0.00  0.00     0.198 C 
BRANCH  37  38
HETATM   38  O   UNK N   1      35.456  12.897  10.400  0.00  0.00    -0.398 OA
HETATM   39  H   UNK N   1      35.336  12.236   9.700  0.00  0.00     0.209 HD
ENDBRANCH  37  38
ENDBRANCH  36  37
BRANCH  36  40
HETATM   40  O   UNK N   1      36.938  16.109  10.863  0.00  0.00    -0.391 OA
HETATM   41  H   UNK N   1      36.929  16.413  11.785  0.00  0.00     0.210 HD
ENDBRANCH  36  40
ENDBRANCH  35  36
BRANCH  35  42
HETATM   42  O   UNK N   1      33.683  14.988  11.141  0.00  0.00    -0.390 OA
HETATM   43  H   UNK N   1      32.864  14.729  10.689  0.00  0.00     0.210 HD
ENDBRANCH  35  42
ENDBRANCH  34  35
BRANCH  34  44
HETATM   44  O   UNK N   1      32.586  16.153   9.150  0.00  0.00    -0.390 OA
HETATM   45  H   UNK N   1      32.049  16.559   8.452  0.00  0.00     0.210 HD
ENDBRANCH  34  44
ENDBRANCH  33  34
BRANCH  33  46
HETATM   46  O   UNK N   1      34.802  16.445   6.914  0.00  0.00    -0.385 OA
HETATM   47  H   UNK N   1      35.420  17.190   6.974  0.00  0.00     0.210 HD
ENDBRANCH  33  46
ENDBRANCH  31  33
BRANCH  31  48
HETATM   48  O   UNK N   1      33.503  13.418   8.351  0.00  0.00    -0.348 OA
HETATM   49  H   UNK N   1      32.752  12.858   8.350  0.00  0.00     0.219 HD
ENDBRANCH  31  48
ENDBRANCH  29  30
ENDBRANCH  28  29
ENDBRANCH  27  28
ENDBRANCH   2  27
BRANCH   1  50
HETATM   50  C   UNK N   1      28.380  14.769   3.046  0.00  0.00     0.103 C 
BRANCH  50  51
HETATM   51  C   UNK N   1      26.981  14.966   2.509  0.00  0.00     0.014 C 
BRANCH  51  52
HETATM   52  C   UNK N   1      25.819  14.867   3.479  0.00  0.00    -0.013 C 
HETATM   53  C   UNK N   1      25.196  16.246   3.409  0.00  0.00     0.010 C 
BRANCH  52  54
HETATM   54  C   UNK N   1      24.870  13.627   3.252  0.00  0.00     0.000 C 
HETATM   55  C   UNK N   1      23.458  13.997   2.692  0.00  0.00     0.006 C 
HETATM   56  C   UNK N   1      22.425  13.753   3.798  0.00  0.00     0.006 C 
HETATM   57  C   UNK N   1      23.320  13.642   5.001  0.00  0.00     0.001 C 
HETATM   58  C   UNK N   1      22.840  13.067   6.309  0.00  0.00    -0.005 C 
HETATM   59  C   UNK N   1      24.506  12.784   4.481  0.00  0.00    -0.010 C 
HETATM   60  C   UNK N   1      21.497  13.577   6.820  0.00  0.00     0.006 C 
HETATM   61  C   UNK N   1      23.943  13.424   7.365  0.00  0.00     0.001 C 
HETATM   62  C   UNK N   1      21.161  12.799   8.100  0.00  0.00     0.006 C 
HETATM   63  C   UNK N   1      22.255  12.979   9.167  0.00  0.00    -0.004 C 
HETATM   64  C   UNK N   1      21.936  12.129  10.399  0.00  0.00     0.037 C 
HETATM   65  C   UNK N   1      23.674  12.611   8.641  0.00  0.00    -0.036 C 
HETATM   66  C   UNK N   1      22.981  12.335  11.502  0.00  0.00     0.118 C 
HETATM   67  C   UNK N   1      24.408  12.124  10.991  0.00  0.00     0.032 C 
HETATM   68  C   UNK N   1      24.688  12.957   9.739  0.00  0.00     0.012 C 
HETATM   69  C   UNK N   1      23.794  11.111   8.321  0.00  0.00     0.016 C 
HETATM   70  C   UNK N   1      25.407  13.321   6.833  0.00  0.00     0.038 C 
HETATM   71  C   UNK N   1      25.544  12.434   5.599  0.00  0.00     0.127 C 
HETATM   72  C   UNK N   1      24.019  11.412   3.948  0.00  0.00     0.018 C 
BRANCH  66  73
HETATM   73  O   UNK N   1      22.736  11.423  12.527  0.00  0.00    -0.396 OA
HETATM   74  H   UNK N   1      23.128  10.542  12.639  0.00  0.00     0.210 HD
ENDBRANCH  66  73
BRANCH  71  75
HETATM   75  O   UNK N   1      26.853  12.426   5.111  0.00  0.00    -0.395 OA
HETATM   76  H   UNK N   1      27.048  12.060   4.234  0.00  0.00     0.210 HD
ENDBRANCH  71  75
ENDBRANCH  52  54
ENDBRANCH  51  52
ENDBRANCH  50  51
ENDBRANCH   1  50
TORSDOF 36
ENDMDL
MODEL 4
REMARK VINA RESULT:      -7.9      2.529     11.448
REMARK WARNING: 32 MAX_TORS EXCEEDED!!!
REMARK  36 active torsions:
REMARK  status: ('A' for Active; 'I' for Inactive)
REMARK    1  A    between atoms: C_14  and  C_4 
REMARK    2  A    between atoms: C_16  and  C_4 
REMARK    3  A    between atoms: C_15  and  C_5 
REMARK    4  A    between atoms: C_17  and  C_5 
REMARK    5  A    between atoms: C_11  and  C_6 
REMARK    6  A    between atoms: C_22  and  C_6 
REMARK    7  A    between atoms: C_32  and  C_11 
REMARK    8  A    between atoms: N_43  and  C_14 
REMARK    9  A    between atoms: N_45  and  C_15 
REMARK   10  A    between atoms: N_47  and  C_16 
REMARK   11  A    between atoms: N_47  and  C_17 
REMARK   12  A    between atoms: C_29  and  C_20 
REMARK   13  A    between atoms: O_48  and  C_20 
REMARK   14  A    between atoms: C_30  and  C_21 
REMARK   15  A    between atoms: O_49  and  C_21 
REMARK   16  A    between atoms: C_26  and  C_22 
REMARK   17  A    between atoms: C_24  and  O_50 
REMARK   18  A    between atoms: C_33  and  C_29 
REMARK   19  A    between atoms: C_29  and  O_51 
REMARK   20  A    between atoms: C_34  and  C_30 
REMARK   21  A    between atoms: C_30  and  O_52 
REMARK   22  A    between atoms: C_31  and  O_53 
REMARK       I    between atoms: N_47  and  C_32 
REMARK   23  A    between atoms: C_35  and  C_33 
REMARK   24  A    between atoms: C_33  and  O_55 
REMARK   25  A    between atoms: C_36  and  C_34 
REMARK   26  A    between atoms: C_34  and  O_56 
REMARK   27  A    between atoms: C_37  and  C_35 
REMARK   28  A    between atoms: C_35  and  O_57 
REMARK   29  A    between atoms: C_38  and  C_36 
REMARK   30  A    between atoms: C_36  and  O_58 
REMARK   31  A    between atoms: C_39  and  C_37 
REMARK   32  A    between atoms: C_37  and  O_59 
REMARK   33  A    between atoms: C_40  and  C_38 
REMARK   34  A    between atoms: C_38  and  O_60 
REMARK   35  A    between atoms: O_61  and  C_39 
REMARK   36  A    between atoms: O_62  and  C_40 
ROOT
HETATM    1  C   UNK N   1      27.748  18.771   5.280  0.00  0.00     0.219 C 
HETATM    2  N   UNK N   1      26.430  18.413   5.215  0.00  0.00    -0.352 N 
HETATM    3  O   UNK N   1      28.054  19.951   5.263  0.00  0.00    -0.273 OA
ENDROOT
BRANCH   2   4
HETATM    4  C   UNK N   1      25.469  19.464   4.959  0.00  0.00     0.127 C 
BRANCH   4   5
HETATM    5  C   UNK N   1      24.885  19.281   3.549  0.00  0.00     0.039 C 
BRANCH   5   6
HETATM    6  C   UNK N   1      23.347  19.218   3.464  0.00  0.00     0.123 C 
BRANCH   6   7
HETATM    7  N   UNK N   1      22.714  20.451   3.002  0.00  0.00    -0.372 N 
HETATM    8  C   UNK N   1      21.583  20.462   2.355  0.00  0.00     0.143 C 
ATOM      9  HN  UNK N   1      23.175  21.340   3.195  1.00  0.00     0.161 HD
BRANCH   8  10
HETATM   10  C   UNK N   1      20.861  19.159   2.060  0.00  0.00     0.223 C 
BRANCH  10  11
HETATM   11  C   UNK N   1      19.765  18.570   3.000  0.00  0.00     0.186 C 
BRANCH  11  12
HETATM   12  C   UNK N   1      19.975  17.260   3.799  0.00  0.00     0.180 C 
BRANCH  12  13
HETATM   13  C   UNK N   1      20.694  16.241   2.859  0.00  0.00     0.173 C 
BRANCH  13  14
HETATM   14  C   UNK N   1      19.971  14.908   2.716  0.00  0.00     0.198 C 
BRANCH  14  15
HETATM   15  O   UNK N   1      19.041  14.952   1.680  0.00  0.00    -0.398 OA
HETATM   16  H   UNK N   1      18.282  15.311   1.194  0.00  0.00     0.209 HD
ENDBRANCH  14  15
ENDBRANCH  13  14
BRANCH  13  17
HETATM   17  O   UNK N   1      22.013  16.013   3.262  0.00  0.00    -0.391 OA
HETATM   18  H   UNK N   1      22.461  15.187   3.021  0.00  0.00     0.210 HD
ENDBRANCH  13  17
ENDBRANCH  12  13
BRANCH  12  19
HETATM   19  O   UNK N   1      18.740  16.721   4.158  0.00  0.00    -0.390 OA
HETATM   20  H   UNK N   1      17.922  17.067   3.768  0.00  0.00     0.210 HD
ENDBRANCH  12  19
ENDBRANCH  11  12
BRANCH  11  21
HETATM   21  O   UNK N   1      18.535  18.506   2.352  0.00  0.00    -0.390 OA
HETATM   22  H   UNK N   1      17.940  17.747   2.465  0.00  0.00     0.210 HD
ENDBRANCH  11  21
ENDBRANCH  10  11
BRANCH  10  23
HETATM   23  O   UNK N   1      20.467  19.132   0.721  0.00  0.00    -0.385 OA
HETATM   24  H   UNK N   1      21.125  19.182   0.012  0.00  0.00     0.210 HD
ENDBRANCH  10  23
ENDBRANCH   8  10
BRANCH   8  25
HETATM   25  O   UNK N   1      21.039  21.640   1.992  0.00  0.00    -0.348 OA
HETATM   26  H   UNK N   1      20.534  22.187   1.423  0.00  0.00     0.219 HD
ENDBRANCH   8  25
ENDBRANCH   6   7
ENDBRANCH   5   6
ENDBRANCH   4   5
ENDBRANCH   2   4
BRANCH   2  27
HETATM   27  C   UNK N   1      25.894  17.058   5.206  0.00  0.00     0.127 C 
BRANCH  27  28
HETATM   28  C   UNK N   1      26.205  16.090   4.059  0.00  0.00     0.039 C 
BRANCH  28  29
HETATM   29  C   UNK N   1      25.285  14.865   4.082  0.00  0.00     0.123 C 
BRANCH  29  30
HETATM   30  N   UNK N   1      24.678  14.768   5.383  0.00  0.00    -0.372 N 
HETATM   31  C   UNK N   1      23.627  14.050   5.578  0.00  0.00     0.143 C 
ATOM     32  HN  UNK N   1      25.088  15.276   6.166  1.00  0.00     0.161 HD
BRANCH  31  33
HETATM   33  C   UNK N   1      23.177  13.784   6.979  0.00  0.00     0.223 C 
BRANCH  33  34
HETATM   34  C   UNK N   1      22.034  14.729   7.388  0.00  0.00     0.186 C 
BRANCH  34  35
HETATM   35  C   UNK N   1      20.816  13.966   7.961  0.00  0.00     0.180 C 
BRANCH  35  36
HETATM   36  C   UNK N   1      20.650  14.211   9.473  0.00  0.00     0.173 C 
BRANCH  36  37
HETATM   37  C   UNK N   1      21.297  13.101  10.299  0.00  0.00     0.198 C 
BRANCH  37  38
HETATM   38  O   UNK N   1      22.676  13.292  10.401  0.00  0.00    -0.398 OA
HETATM   39  H   UNK N   1      23.540  13.567  10.747  0.00  0.00     0.209 HD
ENDBRANCH  37  38
ENDBRANCH  36  37
BRANCH  36  40
HETATM   40  O   UNK N   1      19.300  14.306   9.817  0.00  0.00    -0.391 OA
HETATM   41  H   UNK N   1      19.006  14.050  10.706  0.00  0.00     0.210 HD
ENDBRANCH  36  40
ENDBRANCH  35  36
BRANCH  35  42
HETATM   42  O   UNK N   1      20.989  12.592   7.759  0.00  0.00    -0.390 OA
HETATM   43  H   UNK N   1      21.874  12.233   7.586  0.00  0.00     0.210 HD
ENDBRANCH  35  42
ENDBRANCH  34  35
BRANCH  34  44
HETATM   44  O   UNK N   1      21.655  15.474   6.265  0.00  0.00    -0.390 OA
HETATM   45  H   UNK N   1      22.329  15.894   5.709  0.00  0.00     0.210 HD
ENDBRANCH  34  44
ENDBRANCH  33  34
BRANCH  33  46
HETATM   46  O   UNK N   1      24.288  13.959   7.809  0.00  0.00    -0.385 OA
HETATM   47  H   UNK N   1      24.172  14.182   8.746  0.00  0.00     0.210 HD
ENDBRANCH  33  46
ENDBRANCH  31  33
BRANCH  31  48
HETATM   48  O   UNK N   1      22.997  13.452   4.543  0.00  0.00    -0.348 OA
HETATM   49  H   UNK N   1      22.203  12.956   4.580  0.00  0.00     0.219 HD
ENDBRANCH  31  48
ENDBRANCH  29  30
ENDBRANCH  28  29
ENDBRANCH  27  28
ENDBRANCH   2  27
BRANCH   1  50
HETATM   50  C   UNK N   1      28.867  17.770   5.209  0.00  0.00     0.103 C 
BRANCH  50  51
HETATM   51  C   UNK N   1      29.447  17.237   6.499  0.00  0.00     0.014 C 
BRANCH  51  52
HETATM   52  C   UNK N   1      30.690  16.371   6.423  0.00  0.00    -0.013 C 
HETATM   53  C   UNK N   1      30.316  15.324   5.394  0.00  0.00     0.010 C 
BRANCH  52  54
HETATM   54  C   UNK N   1      32.037  17.162   6.200  0.00  0.00     0.000 C 
HETATM   55  C   UNK N   1      32.767  16.816   4.861  0.00  0.00     0.006 C 
HETATM   56  C   UNK N   1      34.044  16.040   5.199  0.00  0.00     0.006 C 
HETATM   57  C   UNK N   1      33.775  15.659   6.628  0.00  0.00     0.001 C 
HETATM   58  C   UNK N   1      34.863  15.168   7.548  0.00  0.00    -0.005 C 
HETATM   59  C   UNK N   1      33.157  16.952   7.228  0.00  0.00    -0.010 C 
HETATM   60  C   UNK N   1      35.790  14.095   6.987  0.00  0.00     0.006 C 
HETATM   61  C   UNK N   1      34.130  14.583   8.806  0.00  0.00     0.001 C 
HETATM   62  C   UNK N   1      36.868  13.813   8.043  0.00  0.00     0.006 C 
HETATM   63  C   UNK N   1      36.242  13.353   9.371  0.00  0.00    -0.004 C 
HETATM   64  C   UNK N   1      37.331  13.158  10.429  0.00  0.00     0.037 C 
HETATM   65  C   UNK N   1      35.173  14.349   9.909  0.00  0.00    -0.036 C 
HETATM   66  C   UNK N   1      36.741  12.642  11.746  0.00  0.00     0.118 C 
HETATM   67  C   UNK N   1      35.584  13.515  12.240  0.00  0.00     0.032 C 
HETATM   68  C   UNK N   1      34.529  13.723  11.153  0.00  0.00     0.012 C 
HETATM   69  C   UNK N   1      35.799  15.696  10.310  0.00  0.00     0.016 C 
HETATM   70  C   UNK N   1      32.880  15.398   9.264  0.00  0.00     0.038 C 
HETATM   71  C   UNK N   1      32.878  16.841   8.765  0.00  0.00     0.127 C 
HETATM   72  C   UNK N   1      34.121  18.157   7.085  0.00  0.00     0.018 C 
BRANCH  66  73
HETATM   73  O   UNK N   1      37.742  12.640  12.715  0.00  0.00    -0.396 OA
HETATM   74  H   UNK N   1      38.286  11.889  13.000  0.00  0.00     0.210 HD
ENDBRANCH  66  73
BRANCH  71  75
HETATM   75  O   UNK N   1      31.711  17.514   9.133  0.00  0.00    -0.395 OA
HETATM   76  H   UNK N   1      31.177  17.200   9.879  0.00  0.00     0.210 HD
ENDBRANCH  71  75
ENDBRANCH  52  54
ENDBRANCH  51  52
ENDBRANCH  50  51
ENDBRANCH   1  50
TORSDOF 36
ENDMDL
MODEL 5
REMARK VINA RESULT:      -7.8      3.174      8.937
REMARK WARNING: 32 MAX_TORS EXCEEDED!!!
REMARK  36 active torsions:
REMARK  status: ('A' for Active; 'I' for Inactive)
REMARK    1  A    between atoms: C_14  and  C_4 
REMARK    2  A    between atoms: C_16  and  C_4 
REMARK    3  A    between atoms: C_15  and  C_5 
REMARK    4  A    between atoms: C_17  and  C_5 
REMARK    5  A    between atoms: C_11  and  C_6 
REMARK    6  A    between atoms: C_22  and  C_6 
REMARK    7  A    between atoms: C_32  and  C_11 
REMARK    8  A    between atoms: N_43  and  C_14 
REMARK    9  A    between atoms: N_45  and  C_15 
REMARK   10  A    between atoms: N_47  and  C_16 
REMARK   11  A    between atoms: N_47  and  C_17 
REMARK   12  A    between atoms: C_29  and  C_20 
REMARK   13  A    between atoms: O_48  and  C_20 
REMARK   14  A    between atoms: C_30  and  C_21 
REMARK   15  A    between atoms: O_49  and  C_21 
REMARK   16  A    between atoms: C_26  and  C_22 
REMARK   17  A    between atoms: C_24  and  O_50 
REMARK   18  A    between atoms: C_33  and  C_29 
REMARK   19  A    between atoms: C_29  and  O_51 
REMARK   20  A    between atoms: C_34  and  C_30 
REMARK   21  A    between atoms: C_30  and  O_52 
REMARK   22  A    between atoms: C_31  and  O_53 
REMARK       I    between atoms: N_47  and  C_32 
REMARK   23  A    between atoms: C_35  and  C_33 
REMARK   24  A    between atoms: C_33  and  O_55 
REMARK   25  A    between atoms: C_36  and  C_34 
REMARK   26  A    between atoms: C_34  and  O_56 
REMARK   27  A    between atoms: C_37  and  C_35 
REMARK   28  A    between atoms: C_35  and  O_57 
REMARK   29  A    between atoms: C_38  and  C_36 
REMARK   30  A    between atoms: C_36  and  O_58 
REMARK   31  A    between atoms: C_39  and  C_37 
REMARK   32  A    between atoms: C_37  and  O_59 
REMARK   33  A    between atoms: C_40  and  C_38 
REMARK   34  A    between atoms: C_38  and  O_60 
REMARK   35  A    between atoms: O_61  and  C_39 
REMARK   36  A    between atoms: O_62  and  C_40 
ROOT
HETATM    1  C   UNK N   1      21.695  12.932   4.295  0.00  0.00     0.219 C 
HETATM    2  N   UNK N   1      20.530  13.377   3.734  0.00  0.00    -0.352 N 
HETATM    3  O   UNK N   1      21.681  12.462   5.420  0.00  0.00    -0.273 OA
ENDROOT
BRANCH   2   4
HETATM    4  C   UNK N   1      19.359  13.417   4.581  0.00  0.00     0.127 C 
BRANCH   4   5
HETATM    5  C   UNK N   1      18.849  14.864   4.669  0.00  0.00     0.039 C 
BRANCH   5   6
HETATM    6  C   UNK N   1      19.361  15.683   5.871  0.00  0.00     0.123 C 
BRANCH   6   7
HETATM    7  N   UNK N   1      20.746  16.133   5.752  0.00  0.00    -0.372 N 
HETATM    8  C   UNK N   1      21.653  15.860   6.646  0.00  0.00     0.143 C 
ATOM      9  HN  UNK N   1      21.014  16.681   4.934  1.00  0.00     0.161 HD
BRANCH   8  10
HETATM   10  C   UNK N   1      21.296  15.036   7.870  0.00  0.00     0.223 C 
BRANCH  10  11
HETATM   11  C   UNK N   1      22.190  13.871   8.394  0.00  0.00     0.186 C 
BRANCH  11  12
HETATM   12  C   UNK N   1      22.536  13.702   9.894  0.00  0.00     0.180 C 
BRANCH  12  13
HETATM   13  C   UNK N   1      23.750  12.725   9.993  0.00  0.00     0.173 C 
BRANCH  13  14
HETATM   14  C   UNK N   1      23.656  11.729  11.142  0.00  0.00     0.198 C 
BRANCH  14  15
HETATM   15  O   UNK N   1      23.927  12.345  12.362  0.00  0.00    -0.398 OA
HETATM   16  H   UNK N   1      23.790  12.997  13.067  0.00  0.00     0.209 HD
ENDBRANCH  14  15
ENDBRANCH  13  14
BRANCH  13  17
HETATM   17  O   UNK N   1      24.962  13.418  10.077  0.00  0.00    -0.391 OA
HETATM   18  H   UNK N   1      25.117  14.197   9.521  0.00  0.00     0.210 HD
ENDBRANCH  13  17
ENDBRANCH  12  13
BRANCH  12  19
HETATM   19  O   UNK N   1      21.459  13.124  10.567  0.00  0.00    -0.390 OA
HETATM   20  H   UNK N   1      21.096  12.274  10.271  0.00  0.00     0.210 HD
ENDBRANCH  12  19
ENDBRANCH  11  12
BRANCH  11  21
HETATM   21  O   UNK N   1      23.362  13.769   7.650  0.00  0.00    -0.390 OA
HETATM   22  H   UNK N   1      23.655  14.484   7.064  0.00  0.00     0.210 HD
ENDBRANCH  11  21
ENDBRANCH  10  11
BRANCH  10  23
HETATM   23  O   UNK N   1      20.883  15.879   8.902  0.00  0.00    -0.385 OA
HETATM   24  H   UNK N   1      19.949  15.928   9.157  0.00  0.00     0.210 HD
ENDBRANCH  10  23
ENDBRANCH   8  10
BRANCH   8  25
HETATM   25  O   UNK N   1      22.921  16.277   6.451  0.00  0.00    -0.348 OA
HETATM   26  H   UNK N   1      23.809  16.151   6.182  0.00  0.00     0.219 HD
ENDBRANCH   8  25
ENDBRANCH   6   7
ENDBRANCH   5   6
ENDBRANCH   4   5
ENDBRANCH   2   4
BRANCH   2  27
HETATM   27  C   UNK N   1      20.371  13.978   2.416  0.00  0.00     0.127 C 
BRANCH  27  28
HETATM   28  C   UNK N   1      21.101  15.272   2.042  0.00  0.00     0.039 C 
BRANCH  28  29
HETATM   29  C   UNK N   1      20.143  16.325   1.477  0.00  0.00     0.123 C 
BRANCH  29  30
HETATM   30  N   UNK N   1      20.704  17.631   1.704  0.00  0.00    -0.372 N 
HETATM   31  C   UNK N   1      20.309  18.366   2.684  0.00  0.00     0.143 C 
ATOM     32  HN  UNK N   1      21.430  17.979   1.078  1.00  0.00     0.161 HD
BRANCH  31  33
HETATM   33  C   UNK N   1      21.084  19.599   3.026  0.00  0.00     0.223 C 
BRANCH  33  34
HETATM   34  C   UNK N   1      22.352  19.257   3.827  0.00  0.00     0.186 C 
BRANCH  34  35
HETATM   35  C   UNK N   1      23.614  19.946   3.252  0.00  0.00     0.180 C 
BRANCH  35  36
HETATM   36  C   UNK N   1      24.736  20.047   4.303  0.00  0.00     0.173 C 
BRANCH  36  37
HETATM   37  C   UNK N   1      26.108  20.200   3.651  0.00  0.00     0.198 C 
BRANCH  37  38
HETATM   38  O   UNK N   1      26.028  20.970   2.489  0.00  0.00    -0.398 OA
HETATM   39  H   UNK N   1      26.249  21.349   1.624  0.00  0.00     0.209 HD
ENDBRANCH  37  38
ENDBRANCH  36  37
BRANCH  36  40
HETATM   40  O   UNK N   1      24.747  18.921   5.129  0.00  0.00    -0.391 OA
HETATM   41  H   UNK N   1      25.214  18.947   5.979  0.00  0.00     0.210 HD
ENDBRANCH  36  40
ENDBRANCH  35  36
BRANCH  35  42
HETATM   42  O   UNK N   1      23.289  21.242   2.835  0.00  0.00    -0.390 OA
HETATM   43  H   UNK N   1      23.743  22.006   3.224  0.00  0.00     0.210 HD
ENDBRANCH  35  42
ENDBRANCH  34  35
BRANCH  34  44
HETATM   44  O   UNK N   1      22.515  17.867   3.823  0.00  0.00    -0.390 OA
HETATM   45  H   UNK N   1      23.198  17.458   3.271  0.00  0.00     0.210 HD
ENDBRANCH  34  44
ENDBRANCH  33  34
BRANCH  33  46
HETATM   46  O   UNK N   1      20.236  20.426   3.769  0.00  0.00    -0.385 OA
HETATM   47  H   UNK N   1      20.442  21.367   3.886  0.00  0.00     0.210 HD
ENDBRANCH  33  46
ENDBRANCH  31  33
BRANCH  31  48
HETATM   48  O   UNK N   1      19.277  17.981   3.465  0.00  0.00    -0.348 OA
HETATM   49  H   UNK N   1      19.260  17.253   4.054  0.00  0.00     0.219 HD
ENDBRANCH  31  48
ENDBRANCH  29  30
ENDBRANCH  28  29
ENDBRANCH  27  28
ENDBRANCH   2  27
BRANCH   1  50
HETATM   50  C   UNK N   1      23.038  13.142   3.653  0.00  0.00     0.103 C 
BRANCH  50  51
HETATM   51  C   UNK N   1      24.263  12.569   4.329  0.00  0.00     0.014 C 
BRANCH  51  52
HETATM   52  C   UNK N   1      25.419  13.503   4.631  0.00  0.00    -0.013 C 
HETATM   53  C   UNK N   1      26.541  12.553   4.995  0.00  0.00     0.010 C 
BRANCH  52  54
HETATM   54  C   UNK N   1      25.709  14.581   3.517  0.00  0.00     0.000 C 
HETATM   55  C   UNK N   1      26.147  13.977   2.142  0.00  0.00     0.006 C 
HETATM   56  C   UNK N   1      27.627  14.307   1.923  0.00  0.00     0.006 C 
HETATM   57  C   UNK N   1      28.033  14.720   3.310  0.00  0.00     0.001 C 
HETATM   58  C   UNK N   1      29.313  15.467   3.584  0.00  0.00    -0.005 C 
HETATM   59  C   UNK N   1      26.835  15.588   3.785  0.00  0.00    -0.010 C 
HETATM   60  C   UNK N   1      30.570  14.923   2.914  0.00  0.00     0.006 C 
HETATM   61  C   UNK N   1      29.516  15.416   5.138  0.00  0.00     0.001 C 
HETATM   62  C   UNK N   1      31.726  15.878   3.247  0.00  0.00     0.006 C 
HETATM   63  C   UNK N   1      31.927  16.001   4.767  0.00  0.00    -0.004 C 
HETATM   64  C   UNK N   1      33.028  17.020   5.073  0.00  0.00     0.037 C 
HETATM   65  C   UNK N   1      30.624  16.411   5.516  0.00  0.00    -0.036 C 
HETATM   66  C   UNK N   1      33.291  17.120   6.580  0.00  0.00     0.118 C 
HETATM   67  C   UNK N   1      32.008  17.379   7.373  0.00  0.00     0.032 C 
HETATM   68  C   UNK N   1      30.913  16.370   7.022  0.00  0.00     0.012 C 
HETATM   69  C   UNK N   1      30.176  17.835   5.144  0.00  0.00     0.016 C 
HETATM   70  C   UNK N   1      28.203  15.570   5.968  0.00  0.00     0.038 C 
HETATM   71  C   UNK N   1      27.068  16.234   5.192  0.00  0.00     0.127 C 
HETATM   72  C   UNK N   1      26.594  16.787   2.833  0.00  0.00     0.018 C 
BRANCH  66  73
HETATM   73  O   UNK N   1      34.177  18.170   6.811  0.00  0.00    -0.396 OA
HETATM   74  H   UNK N   1      34.340  18.940   6.244  0.00  0.00     0.210 HD
ENDBRANCH  66  73
BRANCH  71  75
HETATM   75  O   UNK N   1      25.891  16.287   5.943  0.00  0.00    -0.395 OA
HETATM   76  H   UNK N   1      25.448  17.134   6.103  0.00  0.00     0.210 HD
ENDBRANCH  71  75
ENDBRANCH  52  54
ENDBRANCH  51  52
ENDBRANCH  50  51
ENDBRANCH   1  50
TORSDOF 36
ENDMDL
MODEL 6
REMARK VINA RESULT:      -7.8      3.171     10.687
REMARK WARNING: 32 MAX_TORS EXCEEDED!!!
REMARK  36 active torsions:
REMARK  status: ('A' for Active; 'I' for Inactive)
REMARK    1  A    between atoms: C_14  and  C_4 
REMARK    2  A    between atoms: C_16  and  C_4 
REMARK    3  A    between atoms: C_15  and  C_5 
REMARK    4  A    between atoms: C_17  and  C_5 
REMARK    5  A    between atoms: C_11  and  C_6 
REMARK    6  A    between atoms: C_22  and  C_6 
REMARK    7  A    between atoms: C_32  and  C_11 
REMARK    8  A    between atoms: N_43  and  C_14 
REMARK    9  A    between atoms: N_45  and  C_15 
REMARK   10  A    between atoms: N_47  and  C_16 
REMARK   11  A    between atoms: N_47  and  C_17 
REMARK   12  A    between atoms: C_29  and  C_20 
REMARK   13  A    between atoms: O_48  and  C_20 
REMARK   14  A    between atoms: C_30  and  C_21 
REMARK   15  A    between atoms: O_49  and  C_21 
REMARK   16  A    between atoms: C_26  and  C_22 
REMARK   17  A    between atoms: C_24  and  O_50 
REMARK   18  A    between atoms: C_33  and  C_29 
REMARK   19  A    between atoms: C_29  and  O_51 
REMARK   20  A    between atoms: C_34  and  C_30 
REMARK   21  A    between atoms: C_30  and  O_52 
REMARK   22  A    between atoms: C_31  and  O_53 
REMARK       I    between atoms: N_47  and  C_32 
REMARK   23  A    between atoms: C_35  and  C_33 
REMARK   24  A    between atoms: C_33  and  O_55 
REMARK   25  A    between atoms: C_36  and  C_34 
REMARK   26  A    between atoms: C_34  and  O_56 
REMARK   27  A    between atoms: C_37  and  C_35 
REMARK   28  A    between atoms: C_35  and  O_57 
REMARK   29  A    between atoms: C_38  and  C_36 
REMARK   30  A    between atoms: C_36  and  O_58 
REMARK   31  A    between atoms: C_39  and  C_37 
REMARK   32  A    between atoms: C_37  and  O_59 
REMARK   33  A    between atoms: C_40  and  C_38 
REMARK   34  A    between atoms: C_38  and  O_60 
REMARK   35  A    between atoms: O_61  and  C_39 
REMARK   36  A    between atoms: O_62  and  C_40 
ROOT
HETATM    1  C   UNK N   1      24.904  13.593   3.374  0.00  0.00     0.219 C 
HETATM    2  N   UNK N   1      23.881  14.484   3.543  0.00  0.00    -0.352 N 
HETATM    3  O   UNK N   1      25.270  13.301   2.248  0.00  0.00    -0.273 OA
ENDROOT
BRANCH   2   4
HETATM    4  C   UNK N   1      23.170  14.909   2.357  0.00  0.00     0.127 C 
BRANCH   4   5
HETATM    5  C   UNK N   1      21.825  14.167   2.282  0.00  0.00     0.039 C 
BRANCH   5   6
HETATM    6  C   UNK N   1      20.607  15.028   1.892  0.00  0.00     0.123 C 
BRANCH   6   7
HETATM    7  N   UNK N   1      19.530  15.038   2.880  0.00  0.00    -0.372 N 
HETATM    8  C   UNK N   1      19.378  16.001   3.744  0.00  0.00     0.143 C 
ATOM      9  HN  UNK N   1      18.870  14.261   2.892  1.00  0.00     0.161 HD
BRANCH   8  10
HETATM   10  C   UNK N   1      20.334  17.181   3.748  0.00  0.00     0.223 C 
BRANCH  10  11
HETATM   11  C   UNK N   1      20.025  18.520   3.010  0.00  0.00     0.186 C 
BRANCH  11  12
HETATM   12  C   UNK N   1      20.516  19.890   3.539  0.00  0.00     0.180 C 
BRANCH  12  13
HETATM   13  C   UNK N   1      20.700  20.835   2.309  0.00  0.00     0.173 C 
BRANCH  13  14
HETATM   14  C   UNK N   1      21.056  20.114   1.016  0.00  0.00     0.198 C 
BRANCH  14  15
HETATM   15  O   UNK N   1      20.744  20.894  -0.095  0.00  0.00    -0.398 OA
HETATM   16  H   UNK N   1      20.695  21.716  -0.606  0.00  0.00     0.209 HD
ENDBRANCH  14  15
ENDBRANCH  13  14
BRANCH  13  17
HETATM   17  O   UNK N   1      21.650  21.829   2.563  0.00  0.00    -0.391 OA
HETATM   18  H   UNK N   1      22.567  21.587   2.767  0.00  0.00     0.210 HD
ENDBRANCH  13  17
ENDBRANCH  12  13
BRANCH  12  19
HETATM   19  O   UNK N   1      21.756  19.742   4.161  0.00  0.00    -0.390 OA
HETATM   20  H   UNK N   1      22.518  20.261   3.861  0.00  0.00     0.210 HD
ENDBRANCH  12  19
ENDBRANCH  11  12
BRANCH  11  21
HETATM   21  O   UNK N   1      18.671  18.618   2.701  0.00  0.00    -0.390 OA
HETATM   22  H   UNK N   1      17.986  18.507   3.380  0.00  0.00     0.210 HD
ENDBRANCH  11  21
ENDBRANCH  10  11
BRANCH  10  23
HETATM   23  O   UNK N   1      20.808  17.399   5.042  0.00  0.00    -0.385 OA
HETATM   24  H   UNK N   1      21.277  18.218   5.265  0.00  0.00     0.210 HD
ENDBRANCH  10  23
ENDBRANCH   8  10
BRANCH   8  25
HETATM   25  O   UNK N   1      18.339  15.963   4.602  0.00  0.00    -0.348 OA
HETATM   26  H   UNK N   1      17.482  16.211   4.887  0.00  0.00     0.219 HD
ENDBRANCH   8  25
ENDBRANCH   6   7
ENDBRANCH   5   6
ENDBRANCH   4   5
ENDBRANCH   2   4
BRANCH   2  27
HETATM   27  C   UNK N   1      23.311  14.928   4.808  0.00  0.00     0.127 C 
BRANCH  27  28
HETATM   28  C   UNK N   1      24.042  15.943   5.693  0.00  0.00     0.039 C 
BRANCH  28  29
HETATM   29  C   UNK N   1      24.346  17.242   4.940  0.00  0.00     0.123 C 
BRANCH  29  30
HETATM   30  N   UNK N   1      25.764  17.485   4.991  0.00  0.00    -0.372 N 
HETATM   31  C   UNK N   1      26.259  18.624   4.653  0.00  0.00     0.143 C 
ATOM     32  HN  UNK N   1      26.388  16.740   5.302  1.00  0.00     0.161 HD
BRANCH  31  33
HETATM   33  C   UNK N   1      27.697  18.910   4.953  0.00  0.00     0.223 C 
BRANCH  33  34
HETATM   34  C   UNK N   1      27.871  19.464   6.377  0.00  0.00     0.186 C 
BRANCH  34  35
HETATM   35  C   UNK N   1      28.616  18.475   7.306  0.00  0.00     0.180 C 
BRANCH  35  36
HETATM   36  C   UNK N   1      27.648  17.757   8.267  0.00  0.00     0.173 C 
BRANCH  36  37
HETATM   37  C   UNK N   1      28.358  17.281   9.531  0.00  0.00     0.198 C 
BRANCH  37  38
HETATM   38  O   UNK N   1      27.621  16.286  10.176  0.00  0.00    -0.398 OA
HETATM   39  H   UNK N   1      26.950  15.857  10.730  0.00  0.00     0.209 HD
ENDBRANCH  37  38
ENDBRANCH  36  37
BRANCH  36  40
HETATM   40  O   UNK N   1      27.047  16.662   7.642  0.00  0.00    -0.391 OA
HETATM   41  H   UNK N   1      26.351  16.803   6.981  0.00  0.00     0.210 HD
ENDBRANCH  36  40
ENDBRANCH  35  36
BRANCH  35  42
HETATM   42  O   UNK N   1      29.555  19.173   8.074  0.00  0.00    -0.390 OA
HETATM   43  H   UNK N   1      30.496  19.140   7.839  0.00  0.00     0.210 HD
ENDBRANCH  35  42
ENDBRANCH  34  35
BRANCH  34  44
HETATM   44  O   UNK N   1      26.603  19.755   6.895  0.00  0.00    -0.390 OA
HETATM   45  H   UNK N   1      25.809  19.565   6.374  0.00  0.00     0.210 HD
ENDBRANCH  34  44
ENDBRANCH  33  34
BRANCH  33  46
HETATM   46  O   UNK N   1      28.140  19.834   4.002  0.00  0.00    -0.385 OA
HETATM   47  H   UNK N   1      27.938  19.709   3.062  0.00  0.00     0.210 HD
ENDBRANCH  33  46
ENDBRANCH  31  33
BRANCH  31  48
HETATM   48  O   UNK N   1      25.474  19.593   4.136  0.00  0.00    -0.348 OA
HETATM   49  H   UNK N   1      24.906  19.520   3.394  0.00  0.00     0.219 HD
ENDBRANCH  31  48
ENDBRANCH  29  30
ENDBRANCH  28  29
ENDBRANCH  27  28
ENDBRANCH   2  27
BRANCH   1  50
HETATM   50  C   UNK N   1      25.507  12.821   4.515  0.00  0.00     0.103 C 
BRANCH  50  51
HETATM   51  C   UNK N   1      26.630  11.853   4.224  0.00  0.00     0.014 C 
BRANCH  51  52
HETATM   52  C   UNK N   1      28.057  12.332   4.414  0.00  0.00    -0.013 C 
HETATM   53  C   UNK N   1      28.806  11.056   4.741  0.00  0.00     0.010 C 
BRANCH  52  54
HETATM   54  C   UNK N   1      28.618  13.226   3.242  0.00  0.00     0.000 C 
HETATM   55  C   UNK N   1      29.605  12.480   2.286  0.00  0.00     0.006 C 
HETATM   56  C   UNK N   1      31.011  13.048   2.511  0.00  0.00     0.006 C 
HETATM   57  C   UNK N   1      30.817  13.776   3.812  0.00  0.00     0.001 C 
HETATM   58  C   UNK N   1      31.805  14.795   4.318  0.00  0.00    -0.005 C 
HETATM   59  C   UNK N   1      29.437  14.464   3.628  0.00  0.00    -0.010 C 
HETATM   60  C   UNK N   1      33.276  14.393   4.267  0.00  0.00     0.006 C 
HETATM   61  C   UNK N   1      31.415  15.066   5.813  0.00  0.00     0.001 C 
HETATM   62  C   UNK N   1      34.103  15.599   4.735  0.00  0.00     0.006 C 
HETATM   63  C   UNK N   1      33.704  16.032   6.156  0.00  0.00    -0.004 C 
HETATM   64  C   UNK N   1      34.484  17.284   6.566  0.00  0.00     0.037 C 
HETATM   65  C   UNK N   1      32.178  16.309   6.295  0.00  0.00    -0.036 C 
HETATM   66  C   UNK N   1      34.150  17.704   8.002  0.00  0.00     0.118 C 
HETATM   67  C   UNK N   1      32.642  17.848   8.223  0.00  0.00     0.032 C 
HETATM   68  C   UNK N   1      31.883  16.598   7.773  0.00  0.00     0.012 C 
HETATM   69  C   UNK N   1      31.741  17.527   5.463  0.00  0.00     0.016 C 
HETATM   70  C   UNK N   1      29.878  15.108   6.083  0.00  0.00     0.038 C 
HETATM   71  C   UNK N   1      29.049  15.387   4.832  0.00  0.00     0.127 C 
HETATM   72  C   UNK N   1      29.433  15.401   2.394  0.00  0.00     0.018 C 
BRANCH  66  73
HETATM   73  O   UNK N   1      34.756  18.931   8.263  0.00  0.00    -0.396 OA
HETATM   74  H   UNK N   1      34.721  19.444   9.086  0.00  0.00     0.210 HD
ENDBRANCH  66  73
BRANCH  71  75
HETATM   75  O   UNK N   1      27.678  15.345   5.101  0.00  0.00    -0.395 OA
HETATM   76  H   UNK N   1      27.034  15.546   4.404  0.00  0.00     0.210 HD
ENDBRANCH  71  75
ENDBRANCH  52  54
ENDBRANCH  51  52
ENDBRANCH  50  51
ENDBRANCH   1  50
TORSDOF 36
ENDMDL
MODEL 7
REMARK VINA RESULT:      -7.7      3.066     11.322
REMARK WARNING: 32 MAX_TORS EXCEEDED!!!
REMARK  36 active torsions:
REMARK  status: ('A' for Active; 'I' for Inactive)
REMARK    1  A    between atoms: C_14  and  C_4 
REMARK    2  A    between atoms: C_16  and  C_4 
REMARK    3  A    between atoms: C_15  and  C_5 
REMARK    4  A    between atoms: C_17  and  C_5 
REMARK    5  A    between atoms: C_11  and  C_6 
REMARK    6  A    between atoms: C_22  and  C_6 
REMARK    7  A    between atoms: C_32  and  C_11 
REMARK    8  A    between atoms: N_43  and  C_14 
REMARK    9  A    between atoms: N_45  and  C_15 
REMARK   10  A    between atoms: N_47  and  C_16 
REMARK   11  A    between atoms: N_47  and  C_17 
REMARK   12  A    between atoms: C_29  and  C_20 
REMARK   13  A    between atoms: O_48  and  C_20 
REMARK   14  A    between atoms: C_30  and  C_21 
REMARK   15  A    between atoms: O_49  and  C_21 
REMARK   16  A    between atoms: C_26  and  C_22 
REMARK   17  A    between atoms: C_24  and  O_50 
REMARK   18  A    between atoms: C_33  and  C_29 
REMARK   19  A    between atoms: C_29  and  O_51 
REMARK   20  A    between atoms: C_34  and  C_30 
REMARK   21  A    between atoms: C_30  and  O_52 
REMARK   22  A    between atoms: C_31  and  O_53 
REMARK       I    between atoms: N_47  and  C_32 
REMARK   23  A    between atoms: C_35  and  C_33 
REMARK   24  A    between atoms: C_33  and  O_55 
REMARK   25  A    between atoms: C_36  and  C_34 
REMARK   26  A    between atoms: C_34  and  O_56 
REMARK   27  A    between atoms: C_37  and  C_35 
REMARK   28  A    between atoms: C_35  and  O_57 
REMARK   29  A    between atoms: C_38  and  C_36 
REMARK   30  A    between atoms: C_36  and  O_58 
REMARK   31  A    between atoms: C_39  and  C_37 
REMARK   32  A    between atoms: C_37  and  O_59 
REMARK   33  A    between atoms: C_40  and  C_38 
REMARK   34  A    between atoms: C_38  and  O_60 
REMARK   35  A    between atoms: O_61  and  C_39 
REMARK   36  A    between atoms: O_62  and  C_40 
ROOT
HETATM    1  C   UNK N   1      27.864  18.819   5.193  0.00  0.00     0.219 C 
HETATM    2  N   UNK N   1      26.543  18.464   5.207  0.00  0.00    -0.352 N 
HETATM    3  O   UNK N   1      28.171  19.994   5.083  0.00  0.00    -0.273 OA
ENDROOT
BRANCH   2   4
HETATM    4  C   UNK N   1      25.575  19.500   4.921  0.00  0.00     0.127 C 
BRANCH   4   5
HETATM    5  C   UNK N   1      25.183  19.428   3.436  0.00  0.00     0.039 C 
BRANCH   5   6
HETATM    6  C   UNK N   1      23.682  19.220   3.149  0.00  0.00     0.123 C 
BRANCH   6   7
HETATM    7  N   UNK N   1      22.898  20.452   3.096  0.00  0.00    -0.372 N 
HETATM    8  C   UNK N   1      21.744  20.526   2.497  0.00  0.00     0.143 C 
ATOM      9  HN  UNK N   1      23.269  21.288   3.549  1.00  0.00     0.161 HD
BRANCH   8  10
HETATM   10  C   UNK N   1      21.153  19.300   1.824  0.00  0.00     0.223 C 
BRANCH  10  11
HETATM   11  C   UNK N   1      20.185  18.320   2.554  0.00  0.00     0.186 C 
BRANCH  11  12
HETATM   12  C   UNK N   1      20.376  16.784   2.514  0.00  0.00     0.180 C 
BRANCH  12  13
HETATM   13  C   UNK N   1      19.674  16.252   1.225  0.00  0.00     0.173 C 
BRANCH  13  14
HETATM   14  C   UNK N   1      19.586  14.734   1.144  0.00  0.00     0.198 C 
BRANCH  14  15
HETATM   15  O   UNK N   1      18.276  14.319   0.915  0.00  0.00    -0.398 OA
HETATM   16  H   UNK N   1      17.480  13.789   1.078  0.00  0.00     0.209 HD
ENDBRANCH  14  15
ENDBRANCH  13  14
BRANCH  13  17
HETATM   17  O   UNK N   1      20.285  16.744   0.067  0.00  0.00    -0.391 OA
HETATM   18  H   UNK N   1      21.232  16.953   0.067  0.00  0.00     0.210 HD
ENDBRANCH  13  17
ENDBRANCH  12  13
BRANCH  12  19
HETATM   19  O   UNK N   1      19.753  16.200   3.618  0.00  0.00    -0.390 OA
HETATM   20  H   UNK N   1      20.112  16.334   4.510  0.00  0.00     0.210 HD
ENDBRANCH  12  19
ENDBRANCH  11  12
BRANCH  11  21
HETATM   21  O   UNK N   1      18.858  18.614   2.255  0.00  0.00    -0.390 OA
HETATM   22  H   UNK N   1      18.163  17.939   2.313  0.00  0.00     0.210 HD
ENDBRANCH  11  21
ENDBRANCH  10  11
BRANCH  10  23
HETATM   23  O   UNK N   1      20.687  19.639   0.553  0.00  0.00    -0.385 OA
HETATM   24  H   UNK N   1      20.954  19.125  -0.224  0.00  0.00     0.210 HD
ENDBRANCH  10  23
ENDBRANCH   8  10
BRANCH   8  25
HETATM   25  O   UNK N   1      21.059  21.687   2.521  0.00  0.00    -0.348 OA
HETATM   26  H   UNK N   1      20.270  22.191   2.522  0.00  0.00     0.219 HD
ENDBRANCH   8  25
ENDBRANCH   6   7
ENDBRANCH   5   6
ENDBRANCH   4   5
ENDBRANCH   2   4
BRANCH   2  27
HETATM   27  C   UNK N   1      26.005  17.115   5.312  0.00  0.00     0.127 C 
BRANCH  27  28
HETATM   28  C   UNK N   1      26.189  16.097   4.182  0.00  0.00     0.039 C 
BRANCH  28  29
HETATM   29  C   UNK N   1      25.183  14.945   4.281  0.00  0.00     0.123 C 
BRANCH  29  30
HETATM   30  N   UNK N   1      24.240  15.245   5.326  0.00  0.00    -0.372 N 
HETATM   31  C   UNK N   1      22.978  15.053   5.162  0.00  0.00     0.143 C 
ATOM     32  HN  UNK N   1      24.579  15.615   6.214  1.00  0.00     0.161 HD
BRANCH  31  33
HETATM   33  C   UNK N   1      22.068  15.144   6.346  0.00  0.00     0.223 C 
BRANCH  33  34
HETATM   34  C   UNK N   1      21.673  16.602   6.636  0.00  0.00     0.186 C 
BRANCH  34  35
HETATM   35  C   UNK N   1      20.166  16.750   6.959  0.00  0.00     0.180 C 
BRANCH  35  36
HETATM   36  C   UNK N   1      19.940  17.274   8.390  0.00  0.00     0.173 C 
BRANCH  36  37
HETATM   37  C   UNK N   1      18.527  16.972   8.884  0.00  0.00     0.198 C 
BRANCH  37  38
HETATM   38  O   UNK N   1      18.453  15.692   9.438  0.00  0.00    -0.398 OA
HETATM   39  H   UNK N   1      18.435  14.977  10.093  0.00  0.00     0.209 HD
ENDBRANCH  37  38
ENDBRANCH  36  37
BRANCH  36  40
HETATM   40  O   UNK N   1      20.161  18.651   8.456  0.00  0.00    -0.391 OA
HETATM   41  H   UNK N   1      19.642  19.253   7.899  0.00  0.00     0.210 HD
ENDBRANCH  36  40
ENDBRANCH  35  36
BRANCH  35  42
HETATM   42  O   UNK N   1      19.541  15.503   6.847  0.00  0.00    -0.390 OA
HETATM   43  H   UNK N   1      20.068  14.690   6.882  0.00  0.00     0.210 HD
ENDBRANCH  35  42
ENDBRANCH  34  35
BRANCH  34  44
HETATM   44  O   UNK N   1      22.009  17.380   5.521  0.00  0.00    -0.390 OA
HETATM   45  H   UNK N   1      21.842  17.046   4.627  0.00  0.00     0.210 HD
ENDBRANCH  34  44
ENDBRANCH  33  34
BRANCH  33  46
HETATM   46  O   UNK N   1      22.749  14.588   7.433  0.00  0.00    -0.385 OA
HETATM   47  H   UNK N   1      22.409  14.696   8.335  0.00  0.00     0.210 HD
ENDBRANCH  33  46
ENDBRANCH  31  33
BRANCH  31  48
HETATM   48  O   UNK N   1      22.487  14.667   3.964  0.00  0.00    -0.348 OA
HETATM   49  H   UNK N   1      22.838  14.006   3.400  0.00  0.00     0.219 HD
ENDBRANCH  31  48
ENDBRANCH  29  30
ENDBRANCH  28  29
ENDBRANCH  27  28
ENDBRANCH   2  27
BRANCH   1  50
HETATM   50  C   UNK N   1      28.976  17.810   5.143  0.00  0.00     0.103 C 
BRANCH  50  51
HETATM   51  C   UNK N   1      29.501  17.244   6.443  0.00  0.00     0.014 C 
BRANCH  51  52
HETATM   52  C   UNK N   1      30.749  16.383   6.399  0.00  0.00    -0.013 C 
HETATM   53  C   UNK N   1      30.410  15.342   5.351  0.00  0.00     0.010 C 
BRANCH  52  54
HETATM   54  C   UNK N   1      32.098  17.180   6.224  0.00  0.00     0.000 C 
HETATM   55  C   UNK N   1      32.884  16.830   4.918  0.00  0.00     0.006 C 
HETATM   56  C   UNK N   1      34.151  16.064   5.313  0.00  0.00     0.006 C 
HETATM   57  C   UNK N   1      33.827  15.691   6.732  0.00  0.00     0.001 C 
HETATM   58  C   UNK N   1      34.880  15.213   7.699  0.00  0.00    -0.005 C 
HETATM   59  C   UNK N   1      33.178  16.984   7.297  0.00  0.00    -0.010 C 
HETATM   60  C   UNK N   1      35.835  14.143   7.183  0.00  0.00     0.006 C 
HETATM   61  C   UNK N   1      34.101  14.634   8.931  0.00  0.00     0.001 C 
HETATM   62  C   UNK N   1      36.872  13.875   8.284  0.00  0.00     0.006 C 
HETATM   63  C   UNK N   1      36.196  13.420   9.589  0.00  0.00    -0.004 C 
HETATM   64  C   UNK N   1      37.242  13.240  10.691  0.00  0.00     0.037 C 
HETATM   65  C   UNK N   1      35.100  14.414  10.077  0.00  0.00    -0.036 C 
HETATM   66  C   UNK N   1      36.603  12.730  11.988  0.00  0.00     0.118 C 
HETATM   67  C   UNK N   1      35.423  13.599  12.429  0.00  0.00     0.032 C 
HETATM   68  C   UNK N   1      34.411  13.793  11.299  0.00  0.00     0.012 C 
HETATM   69  C   UNK N   1      35.701  15.768  10.492  0.00  0.00     0.016 C 
HETATM   70  C   UNK N   1      32.828  15.444   9.332  0.00  0.00     0.038 C 
HETATM   71  C   UNK N   1      32.839  16.883   8.823  0.00  0.00     0.127 C 
HETATM   72  C   UNK N   1      34.139  18.194   7.184  0.00  0.00     0.018 C 
BRANCH  66  73
HETATM   73  O   UNK N   1      37.565  12.741  12.996  0.00  0.00    -0.396 OA
HETATM   74  H   UNK N   1      38.012  11.977  13.393  0.00  0.00     0.210 HD
ENDBRANCH  66  73
BRANCH  71  75
HETATM   75  O   UNK N   1      31.654  17.552   9.139  0.00  0.00    -0.395 OA
HETATM   76  H   UNK N   1      31.212  17.394   9.987  0.00  0.00     0.210 HD
ENDBRANCH  71  75
ENDBRANCH  52  54
ENDBRANCH  51  52
ENDBRANCH  50  51
ENDBRANCH   1  50
TORSDOF 36
ENDMDL
MODEL 8
REMARK VINA RESULT:      -7.7      4.919     10.188
REMARK WARNING: 32 MAX_TORS EXCEEDED!!!
REMARK  36 active torsions:
REMARK  status: ('A' for Active; 'I' for Inactive)
REMARK    1  A    between atoms: C_14  and  C_4 
REMARK    2  A    between atoms: C_16  and  C_4 
REMARK    3  A    between atoms: C_15  and  C_5 
REMARK    4  A    between atoms: C_17  and  C_5 
REMARK    5  A    between atoms: C_11  and  C_6 
REMARK    6  A    between atoms: C_22  and  C_6 
REMARK    7  A    between atoms: C_32  and  C_11 
REMARK    8  A    between atoms: N_43  and  C_14 
REMARK    9  A    between atoms: N_45  and  C_15 
REMARK   10  A    between atoms: N_47  and  C_16 
REMARK   11  A    between atoms: N_47  and  C_17 
REMARK   12  A    between atoms: C_29  and  C_20 
REMARK   13  A    between atoms: O_48  and  C_20 
REMARK   14  A    between atoms: C_30  and  C_21 
REMARK   15  A    between atoms: O_49  and  C_21 
REMARK   16  A    between atoms: C_26  and  C_22 
REMARK   17  A    between atoms: C_24  and  O_50 
REMARK   18  A    between atoms: C_33  and  C_29 
REMARK   19  A    between atoms: C_29  and  O_51 
REMARK   20  A    between atoms: C_34  and  C_30 
REMARK   21  A    between atoms: C_30  and  O_52 
REMARK   22  A    between atoms: C_31  and  O_53 
REMARK       I    between atoms: N_47  and  C_32 
REMARK   23  A    between atoms: C_35  and  C_33 
REMARK   24  A    between atoms: C_33  and  O_55 
REMARK   25  A    between atoms: C_36  and  C_34 
REMARK   26  A    between atoms: C_34  and  O_56 
REMARK   27  A    between atoms: C_37  and  C_35 
REMARK   28  A    between atoms: C_35  and  O_57 
REMARK   29  A    between atoms: C_38  and  C_36 
REMARK   30  A    between atoms: C_36  and  O_58 
REMARK   31  A    between atoms: C_39  and  C_37 
REMARK   32  A    between atoms: C_37  and  O_59 
REMARK   33  A    between atoms: C_40  and  C_38 
REMARK   34  A    between atoms: C_38  and  O_60 
REMARK   35  A    between atoms: O_61  and  C_39 
REMARK   36  A    between atoms: O_62  and  C_40 
ROOT
HETATM    1  C   UNK N   1      23.027  13.312   2.185  0.00  0.00     0.219 C 
HETATM    2  N   UNK N   1      22.138  12.714   3.034  0.00  0.00    -0.352 N 
HETATM    3  O   UNK N   1      23.093  14.529   2.141  0.00  0.00    -0.273 OA
ENDROOT
BRANCH   2   4
HETATM    4  C   UNK N   1      21.196  13.571   3.720  0.00  0.00     0.127 C 
BRANCH   4   5
HETATM    5  C   UNK N   1      19.972  13.800   2.819  0.00  0.00     0.039 C 
BRANCH   5   6
HETATM    6  C   UNK N   1      19.516  15.264   2.667  0.00  0.00     0.123 C 
BRANCH   6   7
HETATM    7  N   UNK N   1      19.823  15.865   1.371  0.00  0.00    -0.372 N 
HETATM    8  C   UNK N   1      19.874  17.154   1.187  0.00  0.00     0.143 C 
ATOM      9  HN  UNK N   1      20.007  15.250   0.578  1.00  0.00     0.161 HD
BRANCH   8  10
HETATM   10  C   UNK N   1      19.619  18.101   2.346  0.00  0.00     0.223 C 
BRANCH  10  11
HETATM   11  C   UNK N   1      20.658  19.167   2.809  0.00  0.00     0.186 C 
BRANCH  11  12
HETATM   12  C   UNK N   1      22.056  18.782   3.350  0.00  0.00     0.180 C 
BRANCH  12  13
HETATM   13  C   UNK N   1      21.857  17.683   4.442  0.00  0.00     0.173 C 
BRANCH  13  14
HETATM   14  C   UNK N   1      22.132  18.158   5.862  0.00  0.00     0.198 C 
BRANCH  14  15
HETATM   15  O   UNK N   1      21.052  18.879   6.367  0.00  0.00    -0.398 OA
HETATM   16  H   UNK N   1      20.151  18.989   6.707  0.00  0.00     0.209 HD
ENDBRANCH  14  15
ENDBRANCH  13  14
BRANCH  13  17
HETATM   17  O   UNK N   1      22.628  16.547   4.174  0.00  0.00    -0.391 OA
HETATM   18  H   UNK N   1      22.809  15.904   4.878  0.00  0.00     0.210 HD
ENDBRANCH  13  17
ENDBRANCH  12  13
BRANCH  12  19
HETATM   19  O   UNK N   1      22.653  19.889   3.954  0.00  0.00    -0.390 OA
HETATM   20  H   UNK N   1      22.715  20.732   3.477  0.00  0.00     0.210 HD
ENDBRANCH  12  19
ENDBRANCH  11  12
BRANCH  11  21
HETATM   21  O   UNK N   1      20.077  20.082   3.683  0.00  0.00    -0.390 OA
HETATM   22  H   UNK N   1      20.356  20.146   4.610  0.00  0.00     0.210 HD
ENDBRANCH  11  21
ENDBRANCH  10  11
BRANCH  10  23
HETATM   23  O   UNK N   1      18.335  18.637   2.242  0.00  0.00    -0.385 OA
HETATM   24  H   UNK N   1      17.626  18.339   2.832  0.00  0.00     0.210 HD
ENDBRANCH  10  23
ENDBRANCH   8  10
BRANCH   8  25
HETATM   25  O   UNK N   1      20.201  17.636  -0.029  0.00  0.00    -0.348 OA
HETATM   26  H   UNK N   1      20.084  18.213  -0.757  0.00  0.00     0.219 HD
ENDBRANCH   8  25
ENDBRANCH   6   7
ENDBRANCH   5   6
ENDBRANCH   4   5
ENDBRANCH   2   4
BRANCH   2  27
HETATM   27  C   UNK N   1      21.918  11.283   3.201  0.00  0.00     0.127 C 
BRANCH  27  28
HETATM   28  C   UNK N   1      21.388  10.711   4.519  0.00  0.00     0.039 C 
BRANCH  28  29
HETATM   29  C   UNK N   1      22.481  10.640   5.591  0.00  0.00     0.123 C 
BRANCH  29  30
HETATM   30  N   UNK N   1      22.123  11.519   6.674  0.00  0.00    -0.372 N 
HETATM   31  C   UNK N   1      23.022  12.113   7.377  0.00  0.00     0.143 C 
ATOM     32  HN  UNK N   1      21.137  11.673   6.888  1.00  0.00     0.161 HD
BRANCH  31  33
HETATM   33  C   UNK N   1      22.609  13.196   8.322  0.00  0.00     0.223 C 
BRANCH  33  34
HETATM   34  C   UNK N   1      22.512  14.555   7.607  0.00  0.00     0.186 C 
BRANCH  34  35
HETATM   35  C   UNK N   1      21.057  15.079   7.536  0.00  0.00     0.180 C 
BRANCH  35  36
HETATM   36  C   UNK N   1      20.635  15.766   8.850  0.00  0.00     0.173 C 
BRANCH  36  37
HETATM   37  C   UNK N   1      19.323  15.200   9.386  0.00  0.00     0.198 C 
BRANCH  37  38
HETATM   38  O   UNK N   1      19.511  13.928   9.930  0.00  0.00    -0.398 OA
HETATM   39  H   UNK N   1      19.532  13.200  10.571  0.00  0.00     0.209 HD
ENDBRANCH  37  38
ENDBRANCH  36  37
BRANCH  36  40
HETATM   40  O   UNK N   1      20.496  17.144   8.667  0.00  0.00    -0.391 OA
HETATM   41  H   UNK N   1      20.896  17.574   7.895  0.00  0.00     0.210 HD
ENDBRANCH  36  40
ENDBRANCH  35  36
BRANCH  35  42
HETATM   42  O   UNK N   1      20.186  14.009   7.305  0.00  0.00    -0.390 OA
HETATM   43  H   UNK N   1      20.416  13.326   6.654  0.00  0.00     0.210 HD
ENDBRANCH  35  42
ENDBRANCH  34  35
BRANCH  34  44
HETATM   44  O   UNK N   1      23.040  14.414   6.318  0.00  0.00    -0.390 OA
HETATM   45  H   UNK N   1      22.488  14.597   5.543  0.00  0.00     0.210 HD
ENDBRANCH  34  44
ENDBRANCH  33  34
BRANCH  33  46
HETATM   46  O   UNK N   1      23.563  13.239   9.343  0.00  0.00    -0.385 OA
HETATM   47  H   UNK N   1      24.137  12.476   9.513  0.00  0.00     0.210 HD
ENDBRANCH  33  46
ENDBRANCH  31  33
BRANCH  31  48
HETATM   48  O   UNK N   1      24.333  11.847   7.190  0.00  0.00    -0.348 OA
HETATM   49  H   UNK N   1      25.011  12.466   7.002  0.00  0.00     0.219 HD
ENDBRANCH  31  48
ENDBRANCH  29  30
ENDBRANCH  28  29
ENDBRANCH  27  28
ENDBRANCH   2  27
BRANCH   1  50
HETATM   50  C   UNK N   1      23.828  12.542   1.173  0.00  0.00     0.103 C 
BRANCH  50  51
HETATM   51  C   UNK N   1      25.164  11.969   1.588  0.00  0.00     0.014 C 
BRANCH  51  52
HETATM   52  C   UNK N   1      25.860  12.572   2.794  0.00  0.00    -0.013 C 
HETATM   53  C   UNK N   1      25.620  11.542   3.878  0.00  0.00     0.010 C 
BRANCH  52  54
HETATM   54  C   UNK N   1      27.348  13.029   2.539  0.00  0.00     0.000 C 
HETATM   55  C   UNK N   1      28.400  12.319   3.453  0.00  0.00     0.006 C 
HETATM   56  C   UNK N   1      28.945  13.350   4.447  0.00  0.00     0.006 C 
HETATM   57  C   UNK N   1      27.925  14.445   4.307  0.00  0.00     0.001 C 
HETATM   58  C   UNK N   1      28.169  15.842   4.818  0.00  0.00    -0.005 C 
HETATM   59  C   UNK N   1      27.682  14.508   2.774  0.00  0.00    -0.010 C 
HETATM   60  C   UNK N   1      28.728  15.956   6.232  0.00  0.00     0.006 C 
HETATM   61  C   UNK N   1      26.778  16.565   4.773  0.00  0.00     0.001 C 
HETATM   62  C   UNK N   1      28.987  17.444   6.511  0.00  0.00     0.006 C 
HETATM   63  C   UNK N   1      27.698  18.271   6.365  0.00  0.00    -0.004 C 
HETATM   64  C   UNK N   1      27.999  19.758   6.567  0.00  0.00     0.037 C 
HETATM   65  C   UNK N   1      27.006  18.069   4.985  0.00  0.00    -0.036 C 
HETATM   66  C   UNK N   1      26.721  20.601   6.486  0.00  0.00     0.118 C 
HETATM   67  C   UNK N   1      25.930  20.327   5.205  0.00  0.00     0.032 C 
HETATM   68  C   UNK N   1      25.675  18.831   5.009  0.00  0.00     0.012 C 
HETATM   69  C   UNK N   1      27.862  18.620   3.831  0.00  0.00     0.016 C 
HETATM   70  C   UNK N   1      25.906  16.215   3.527  0.00  0.00     0.038 C 
HETATM   71  C   UNK N   1      26.714  15.665   2.355  0.00  0.00     0.127 C 
HETATM   72  C   UNK N   1      28.997  14.792   2.005  0.00  0.00     0.018 C 
BRANCH  66  73
HETATM   73  O   UNK N   1      27.072  21.949   6.512  0.00  0.00    -0.396 OA
HETATM   74  H   UNK N   1      26.657  22.657   7.031  0.00  0.00     0.210 HD
ENDBRANCH  66  73
BRANCH  71  75
HETATM   75  O   UNK N   1      25.892  15.296   1.287  0.00  0.00    -0.395 OA
HETATM   76  H   UNK N   1      24.977  15.613   1.239  0.00  0.00     0.210 HD
ENDBRANCH  71  75
ENDBRANCH  52  54
ENDBRANCH  51  52
ENDBRANCH  50  51
ENDBRANCH   1  50
TORSDOF 36
ENDMDL
MODEL 9
REMARK VINA RESULT:      -7.7      2.908     10.712
REMARK WARNING: 32 MAX_TORS EXCEEDED!!!
REMARK  36 active torsions:
REMARK  status: ('A' for Active; 'I' for Inactive)
REMARK    1  A    between atoms: C_14  and  C_4 
REMARK    2  A    between atoms: C_16  and  C_4 
REMARK    3  A    between atoms: C_15  and  C_5 
REMARK    4  A    between atoms: C_17  and  C_5 
REMARK    5  A    between atoms: C_11  and  C_6 
REMARK    6  A    between atoms: C_22  and  C_6 
REMARK    7  A    between atoms: C_32  and  C_11 
REMARK    8  A    between atoms: N_43  and  C_14 
REMARK    9  A    between atoms: N_45  and  C_15 
REMARK   10  A    between atoms: N_47  and  C_16 
REMARK   11  A    between atoms: N_47  and  C_17 
REMARK   12  A    between atoms: C_29  and  C_20 
REMARK   13  A    between atoms: O_48  and  C_20 
REMARK   14  A    between atoms: C_30  and  C_21 
REMARK   15  A    between atoms: O_49  and  C_21 
REMARK   16  A    between atoms: C_26  and  C_22 
REMARK   17  A    between atoms: C_24  and  O_50 
REMARK   18  A    between atoms: C_33  and  C_29 
REMARK   19  A    between atoms: C_29  and  O_51 
REMARK   20  A    between atoms: C_34  and  C_30 
REMARK   21  A    between atoms: C_30  and  O_52 
REMARK   22  A    between atoms: C_31  and  O_53 
REMARK       I    between atoms: N_47  and  C_32 
REMARK   23  A    between atoms: C_35  and  C_33 
REMARK   24  A    between atoms: C_33  and  O_55 
REMARK   25  A    between atoms: C_36  and  C_34 
REMARK   26  A    between atoms: C_34  and  O_56 
REMARK   27  A    between atoms: C_37  and  C_35 
REMARK   28  A    between atoms: C_35  and  O_57 
REMARK   29  A    between atoms: C_38  and  C_36 
REMARK   30  A    between atoms: C_36  and  O_58 
REMARK   31  A    between atoms: C_39  and  C_37 
REMARK   32  A    between atoms: C_37  and  O_59 
REMARK   33  A    between atoms: C_40  and  C_38 
REMARK   34  A    between atoms: C_38  and  O_60 
REMARK   35  A    between atoms: O_61  and  C_39 
REMARK   36  A    between atoms: O_62  and  C_40 
ROOT
HETATM    1  C   UNK N   1      28.220  16.450   6.319  0.00  0.00     0.219 C 
HETATM    2  N   UNK N   1      29.025  17.365   6.939  0.00  0.00    -0.352 N 
HETATM    3  O   UNK N   1      27.010  16.532   6.440  0.00  0.00    -0.273 OA
ENDROOT
BRANCH   2   4
HETATM    4  C   UNK N   1      28.394  18.292   7.853  0.00  0.00     0.127 C 
BRANCH   4   5
HETATM    5  C   UNK N   1      28.268  19.664   7.172  0.00  0.00     0.039 C 
BRANCH   5   6
HETATM    6  C   UNK N   1      26.907  19.961   6.509  0.00  0.00     0.123 C 
BRANCH   6   7
HETATM    7  N   UNK N   1      26.997  20.566   5.182  0.00  0.00    -0.372 N 
HETATM    8  C   UNK N   1      26.381  20.079   4.143  0.00  0.00     0.143 C 
ATOM      9  HN  UNK N   1      27.564  21.406   5.065  1.00  0.00     0.161 HD
BRANCH   8  10
HETATM   10  C   UNK N   1      25.517  18.838   4.281  0.00  0.00     0.223 C 
BRANCH  10  11
HETATM   11  C   UNK N   1      24.016  18.802   3.859  0.00  0.00     0.186 C 
BRANCH  11  12
HETATM   12  C   UNK N   1      23.244  20.076   3.437  0.00  0.00     0.180 C 
BRANCH  12  13
HETATM   13  C   UNK N   1      21.759  19.667   3.176  0.00  0.00     0.173 C 
BRANCH  13  14
HETATM   14  C   UNK N   1      21.127  20.349   1.971  0.00  0.00     0.198 C 
BRANCH  14  15
HETATM   15  O   UNK N   1      21.091  21.732   2.140  0.00  0.00    -0.398 OA
HETATM   16  H   UNK N   1      21.456  22.630   2.119  0.00  0.00     0.209 HD
ENDBRANCH  14  15
ENDBRANCH  13  14
BRANCH  13  17
HETATM   17  O   UNK N   1      20.962  19.882   4.304  0.00  0.00    -0.391 OA
HETATM   18  H   UNK N   1      20.805  19.163   4.935  0.00  0.00     0.210 HD
ENDBRANCH  13  17
ENDBRANCH  12  13
BRANCH  12  19
HETATM   19  O   UNK N   1      23.771  20.577   2.245  0.00  0.00    -0.390 OA
HETATM   20  H   UNK N   1      24.277  21.404   2.244  0.00  0.00     0.210 HD
ENDBRANCH  12  19
ENDBRANCH  11  12
BRANCH  11  21
HETATM   21  O   UNK N   1      23.253  18.105   4.791  0.00  0.00    -0.390 OA
HETATM   22  H   UNK N   1      22.552  17.492   4.517  0.00  0.00     0.210 HD
ENDBRANCH  11  21
ENDBRANCH  10  11
BRANCH  10  23
HETATM   23  O   UNK N   1      26.215  17.723   3.813  0.00  0.00    -0.385 OA
HETATM   24  H   UNK N   1      26.458  17.004   4.416  0.00  0.00     0.210 HD
ENDBRANCH  10  23
ENDBRANCH   8  10
BRANCH   8  25
HETATM   25  O   UNK N   1      26.480  20.712   2.958  0.00  0.00    -0.348 OA
HETATM   26  H   UNK N   1      26.569  20.731   2.025  0.00  0.00     0.219 HD
ENDBRANCH   8  25
ENDBRANCH   6   7
ENDBRANCH   5   6
ENDBRANCH   4   5
ENDBRANCH   2   4
BRANCH   2  27
HETATM   27  C   UNK N   1      30.481  17.405   6.913  0.00  0.00     0.127 C 
BRANCH  27  28
HETATM   28  C   UNK N   1      31.293  17.554   8.204  0.00  0.00     0.039 C 
BRANCH  28  29
HETATM   29  C   UNK N   1      32.762  17.885   7.920  0.00  0.00     0.123 C 
BRANCH  29  30
HETATM   30  N   UNK N   1      33.552  17.496   9.058  0.00  0.00    -0.372 N 
HETATM   31  C   UNK N   1      34.314  16.459   9.018  0.00  0.00     0.143 C 
ATOM     32  HN  UNK N   1      33.508  18.053   9.911  1.00  0.00     0.161 HD
BRANCH  31  33
HETATM   33  C   UNK N   1      35.294  16.234  10.126  0.00  0.00     0.223 C 
BRANCH  33  34
HETATM   34  C   UNK N   1      34.648  15.473  11.297  0.00  0.00     0.186 C 
BRANCH  34  35
HETATM   35  C   UNK N   1      35.568  14.361  11.854  0.00  0.00     0.180 C 
BRANCH  35  36
HETATM   36  C   UNK N   1      34.760  13.246  12.546  0.00  0.00     0.173 C 
BRANCH  36  37
HETATM   37  C   UNK N   1      35.448  12.756  13.817  0.00  0.00     0.198 C 
BRANCH  37  38
HETATM   38  O   UNK N   1      34.942  13.406  14.944  0.00  0.00    -0.398 OA
HETATM   39  H   UNK N   1      34.318  13.720  15.617  0.00  0.00     0.209 HD
ENDBRANCH  37  38
ENDBRANCH  36  37
BRANCH  36  40
HETATM   40  O   UNK N   1      34.569  12.163  11.685  0.00  0.00    -0.391 OA
HETATM   41  H   UNK N   1      33.686  11.771  11.587  0.00  0.00     0.210 HD
ENDBRANCH  36  40
ENDBRANCH  35  36
BRANCH  35  42
HETATM   42  O   UNK N   1      36.446  14.910  12.795  0.00  0.00    -0.390 OA
HETATM   43  H   UNK N   1      36.853  14.343  13.470  0.00  0.00     0.210 HD
ENDBRANCH  35  42
ENDBRANCH  34  35
BRANCH  34  44
HETATM   44  O   UNK N   1      33.439  14.925  10.853  0.00  0.00    -0.390 OA
HETATM   45  H   UNK N   1      32.713  14.775  11.478  0.00  0.00     0.210 HD
ENDBRANCH  34  44
ENDBRANCH  33  34
BRANCH  33  46
HETATM   46  O   UNK N   1      35.745  17.491  10.539  0.00  0.00    -0.385 OA
HETATM   47  H   UNK N   1      35.123  18.146  10.894  0.00  0.00     0.210 HD
ENDBRANCH  33  46
ENDBRANCH  31  33
BRANCH  31  48
HETATM   48  O   UNK N   1      34.313  15.641   7.944  0.00  0.00    -0.348 OA
HETATM   49  H   UNK N   1      34.592  15.855   7.075  0.00  0.00     0.219 HD
ENDBRANCH  31  48
ENDBRANCH  29  30
ENDBRANCH  28  29
ENDBRANCH  27  28
ENDBRANCH   2  27
BRANCH   1  50
HETATM   50  C   UNK N   1      28.761  15.237   5.615  0.00  0.00     0.103 C 
BRANCH  50  51
HETATM   51  C   UNK N   1      28.987  15.305   4.122  0.00  0.00     0.014 C 
BRANCH  51  52
HETATM   52  C   UNK N   1      27.897  14.782   3.206  0.00  0.00    -0.013 C 
HETATM   53  C   UNK N   1      28.458  15.040   1.823  0.00  0.00     0.010 C 
BRANCH  52  54
HETATM   54  C   UNK N   1      27.403  13.320   3.531  0.00  0.00     0.000 C 
HETATM   55  C   UNK N   1      27.915  12.235   2.529  0.00  0.00     0.006 C 
HETATM   56  C   UNK N   1      26.721  11.748   1.699  0.00  0.00     0.006 C 
HETATM   57  C   UNK N   1      25.715  12.826   1.992  0.00  0.00     0.001 C 
HETATM   58  C   UNK N   1      24.248  12.659   1.691  0.00  0.00    -0.005 C 
HETATM   59  C   UNK N   1      25.890  13.067   3.516  0.00  0.00    -0.010 C 
HETATM   60  C   UNK N   1      23.899  12.111   0.311  0.00  0.00     0.006 C 
HETATM   61  C   UNK N   1      23.615  14.087   1.834  0.00  0.00     0.001 C 
HETATM   62  C   UNK N   1      22.375  11.933   0.253  0.00  0.00     0.006 C 
HETATM   63  C   UNK N   1      21.648  13.264   0.511  0.00  0.00    -0.004 C 
HETATM   64  C   UNK N   1      20.133  13.044   0.530  0.00  0.00     0.037 C 
HETATM   65  C   UNK N   1      22.085  13.940   1.845  0.00  0.00    -0.036 C 
HETATM   66  C   UNK N   1      19.381  14.365   0.727  0.00  0.00     0.118 C 
HETATM   67  C   UNK N   1      19.881  15.136   1.950  0.00  0.00     0.032 C 
HETATM   68  C   UNK N   1      21.400  15.310   1.926  0.00  0.00     0.012 C 
HETATM   69  C   UNK N   1      21.664  13.111   3.070  0.00  0.00     0.016 C 
HETATM   70  C   UNK N   1      24.189  14.935   3.012  0.00  0.00     0.038 C 
HETATM   71  C   UNK N   1      24.859  14.094   4.095  0.00  0.00     0.127 C 
HETATM   72  C   UNK N   1      25.650  11.767   4.325  0.00  0.00     0.018 C 
BRANCH  66  73
HETATM   73  O   UNK N   1      18.026  14.088   0.899  0.00  0.00    -0.396 OA
HETATM   74  H   UNK N   1      17.523  13.348   0.523  0.00  0.00     0.210 HD
ENDBRANCH  66  73
BRANCH  71  75
HETATM   75  O   UNK N   1      25.423  14.892   5.093  0.00  0.00    -0.395 OA
HETATM   76  H   UNK N   1      26.366  15.118   5.068  0.00  0.00     0.210 HD
ENDBRANCH  71  75
ENDBRANCH  52  54
ENDBRANCH  51  52
ENDBRANCH  50  51
ENDBRANCH   1  50
TORSDOF 36
ENDMDL
