REMARK  4 active torsions:
REMARK  status: ('A' for Active; 'I' for Inactive)
REMARK    1  A    between atoms: O_1  and  N_2 
REMARK    2  A    between atoms: C_7  and  O_8 
REMARK    3  A    between atoms: C_9  and  O_10 
REMARK    4  A    between atoms: C_11  and  O_12 
ROOT
HETATM    1  N   UNK N   1       3.288   1.147   0.000  0.00  0.00    -0.255 N 
ATOM      2  HN  UNK N   1       4.021   0.438   0.000  1.00  0.00     0.195 HD
HETATM    3  C   UNK N   1       2.050   0.732  -0.000  0.00  0.00     0.129 A 
HETATM    4  N   UNK N   1       1.878  -0.668   0.000  0.00  0.00    -0.374 N 
HETATM    5  C   UNK N   1       0.639  -1.412   0.000  0.00  0.00     0.155 A 
HETATM    6  C   UNK N   1      -0.595  -0.552  -0.000  0.00  0.00     0.167 A 
HETATM    7  C   UNK N   1      -0.550   0.958   0.000  0.00  0.00     0.184 A 
HETATM    8  C   UNK N   1       0.806   1.653  -0.000  0.00  0.00     0.218 A 
HETATM    9  H   UNK N   1       2.703  -1.205  -0.000  0.00  0.00     0.161 HD
ENDROOT
BRANCH   1  10
HETATM   10  O   UNK N   1       3.661   2.392  -0.000  0.00  0.00    -0.288 OA
HETATM   11  H   UNK N   1       4.572   2.608  -0.000  0.00  0.00     0.244 HD
ENDBRANCH   1  10
BRANCH   8  12
HETATM   12  O   UNK N   1       0.822   3.054   0.000  0.00  0.00    -0.385 OA
HETATM   13  H   UNK N   1       1.667   3.530   0.000  0.00  0.00     0.210 HD
ENDBRANCH   8  12
BRANCH   7  14
HETATM   14  O   UNK N   1      -1.746   1.680  -0.000  0.00  0.00    -0.390 OA
HETATM   15  H   UNK N   1      -1.727   2.650  -0.000  0.00  0.00     0.210 HD
ENDBRANCH   7  14
BRANCH   6  16
HETATM   16  O   UNK N   1      -1.815  -1.217   0.000  0.00  0.00    -0.391 OA
HETATM   17  H   UNK N   1      -2.643  -0.712   0.000  0.00  0.00     0.210 HD
ENDBRANCH   6  16
TORSDOF 4
