MODEL 1
REMARK VINA RESULT:      -9.2      0.000      0.000
REMARK  3 active torsions:
REMARK  status: ('A' for Active; 'I' for Inactive)
REMARK    1  A    between atoms: O_12  and  C_4 
REMARK    2  A    between atoms: O_13  and  C_6 
REMARK    3  A    between atoms: S_15  and  O_14 
ROOT
HETATM    1  C   UNK N   1      20.548  19.914   2.122  0.00  0.00     0.203 A 
HETATM    2  C   UNK N   1      20.775  20.501   2.579  0.00  0.00     0.179 A 
HETATM    3  C   UNK N   1      20.650  20.263   3.238  0.00  0.00     0.181 A 
HETATM    4  C   UNK N   1      20.567  19.992   2.463  0.00  0.00     0.188 A 
HETATM    5  C   UNK N   1      20.908  20.764   1.982  0.00  0.00     0.230 A 
HETATM    6  C   UNK N   1      21.019  20.972   1.354  0.00  0.00     0.290 A 
HETATM    7  O   UNK N   1      20.617  20.259   4.062  0.00  0.00    -0.390 OA
HETATM    8  O   UNK N   1      21.048  20.964   0.529  0.00  0.00    -0.368 OA
HETATM    9  O   UNK N   1      20.852  20.430  -0.175  0.00  0.00    -0.274 OA
HETATM   10  O   UNK N   1      20.460  19.552   0.487  0.00  0.00    -0.579 OA
HETATM   11  O   UNK N   1      21.017  20.847   0.067  0.00  0.00    -0.579 OA
HETATM   12  O   UNK N   1      20.269  19.244   2.102  0.00  0.00    -0.378 OA
HETATM   13  O   UNK N   1      21.104  21.246   2.131  0.00  0.00    -0.349 OA
HETATM   14  O   UNK N   1      20.684  20.177   1.447  0.00  0.00    -0.251 OA
HETATM   15  S   UNK N   1      20.768  20.303   0.636  0.00  0.00     0.241 SA
HETATM   16  H   UNK N   1      20.921  21.032   4.563  0.00  0.00     0.210 HD
HETATM   17  H   UNK N   1      20.741  20.184   0.041  0.00  0.00     0.212 HD
HETATM   18  H   UNK N   1      20.588  19.740  -0.803  0.00  0.00     0.234 HD
ENDROOT
TORSDOF 3
ENDMDL
MODEL 2
REMARK VINA RESULT:      -8.5      0.906      2.420
REMARK  3 active torsions:
REMARK  status: ('A' for Active; 'I' for Inactive)
REMARK    1  A    between atoms: O_12  and  C_4 
REMARK    2  A    between atoms: O_13  and  C_6 
REMARK    3  A    between atoms: S_15  and  O_14 
ROOT
HETATM    1  C   UNK N   1      20.677  19.906   1.734  0.00  0.00     0.203 A 
HETATM    2  C   UNK N   1      20.807  20.604   1.415  0.00  0.00     0.179 A 
HETATM    3  C   UNK N   1      20.812  20.474   0.715  0.00  0.00     0.181 A 
HETATM    4  C   UNK N   1      20.714  20.050   1.416  0.00  0.00     0.188 A 
HETATM    5  C   UNK N   1      20.811  20.771   2.059  0.00  0.00     0.230 A 
HETATM    6  C   UNK N   1      20.803  20.876   2.722  0.00  0.00     0.290 A 
HETATM    7  O   UNK N   1      20.867  20.619  -0.095  0.00  0.00    -0.390 OA
HETATM    8  O   UNK N   1      20.746  20.718   3.530  0.00  0.00    -0.368 OA
HETATM    9  O   UNK N   1      20.608  20.031   4.104  0.00  0.00    -0.274 OA
HETATM   10  O   UNK N   1      20.505  19.231   3.259  0.00  0.00    -0.579 OA
HETATM   11  O   UNK N   1      20.694  20.511   3.958  0.00  0.00    -0.579 OA
HETATM   12  O   UNK N   1      20.563  19.201   1.605  0.00  0.00    -0.378 OA
HETATM   13  O   UNK N   1      20.902  21.303   2.020  0.00  0.00    -0.349 OA
HETATM   14  O   UNK N   1      20.676  20.059   2.455  0.00  0.00    -0.251 OA
HETATM   15  S   UNK N   1      20.642  20.045   3.279  0.00  0.00     0.241 SA
HETATM   16  H   UNK N   1      21.031  21.520  -0.415  0.00  0.00     0.210 HD
HETATM   17  H   UNK N   1      20.581  19.812   3.837  0.00  0.00     0.212 HD
HETATM   18  H   UNK N   1      20.449  19.194   4.568  0.00  0.00     0.234 HD
ENDROOT
TORSDOF 3
ENDMDL
MODEL 3
REMARK VINA RESULT:      -8.2     12.466     13.223
REMARK  3 active torsions:
REMARK  status: ('A' for Active; 'I' for Inactive)
REMARK    1  A    between atoms: O_12  and  C_4 
REMARK    2  A    between atoms: O_13  and  C_6 
REMARK    3  A    between atoms: S_15  and  O_14 
ROOT
HETATM    1  C   UNK N   1      22.788  12.048  11.003  0.00  0.00     0.203 A 
HETATM    2  C   UNK N   1      22.397  12.005  11.675  0.00  0.00     0.179 A 
HETATM    3  C   UNK N   1      21.714  12.021  11.476  0.00  0.00     0.181 A 
HETATM    4  C   UNK N   1      22.456  12.042  11.117  0.00  0.00     0.188 A 
HETATM    5  C   UNK N   1      23.021  11.988  11.905  0.00  0.00     0.230 A 
HETATM    6  C   UNK N   1      23.671  11.974  12.075  0.00  0.00     0.290 A 
HETATM    7  O   UNK N   1      20.892  12.020  11.545  0.00  0.00    -0.390 OA
HETATM    8  O   UNK N   1      24.492  11.975  11.993  0.00  0.00    -0.368 OA
HETATM    9  O   UNK N   1      25.135  12.014  11.357  0.00  0.00    -0.274 OA
HETATM   10  O   UNK N   1      24.377  12.076  10.471  0.00  0.00    -0.579 OA
HETATM   11  O   UNK N   1      24.939  11.984  11.827  0.00  0.00    -0.579 OA
HETATM   12  O   UNK N   1      22.733  12.095  10.281  0.00  0.00    -0.378 OA
HETATM   13  O   UNK N   1      22.926  11.953  12.437  0.00  0.00    -0.349 OA
HETATM   14  O   UNK N   1      23.489  12.030  11.227  0.00  0.00    -0.251 OA
HETATM   15  S   UNK N   1      24.312  12.022  11.292  0.00  0.00     0.241 SA
HETATM   16  H   UNK N   1      20.478  11.965  12.420  0.00  0.00     0.210 HD
HETATM   17  H   UNK N   1      24.892  12.031  11.111  0.00  0.00     0.212 HD
HETATM   18  H   UNK N   1      25.684  12.064  10.559  0.00  0.00     0.234 HD
ENDROOT
TORSDOF 3
ENDMDL
MODEL 4
REMARK VINA RESULT:      -8.1     12.730     13.504
REMARK  3 active torsions:
REMARK  status: ('A' for Active; 'I' for Inactive)
REMARK    1  A    between atoms: O_12  and  C_4 
REMARK    2  A    between atoms: O_13  and  C_6 
REMARK    3  A    between atoms: S_15  and  O_14 
ROOT
HETATM    1  C   UNK N   1      22.847  11.852  12.408  0.00  0.00     0.203 A 
HETATM    2  C   UNK N   1      23.567  11.967  12.679  0.00  0.00     0.179 A 
HETATM    3  C   UNK N   1      23.479  12.012  13.384  0.00  0.00     0.181 A 
HETATM    4  C   UNK N   1      23.011  11.898  12.715  0.00  0.00     0.188 A 
HETATM    5  C   UNK N   1      23.695  11.931  12.027  0.00  0.00     0.230 A 
HETATM    6  C   UNK N   1      23.759  11.886  11.360  0.00  0.00     0.290 A 
HETATM    7  O   UNK N   1      23.675  12.101  14.180  0.00  0.00    -0.390 OA
HETATM    8  O   UNK N   1      23.551  11.796  10.567  0.00  0.00    -0.368 OA
HETATM    9  O   UNK N   1      22.825  11.660  10.042  0.00  0.00    -0.274 OA
HETATM   10  O   UNK N   1      22.075  11.634  10.936  0.00  0.00    -0.579 OA
HETATM   11  O   UNK N   1      23.317  11.733  10.155  0.00  0.00    -0.579 OA
HETATM   12  O   UNK N   1      22.147  11.775  12.583  0.00  0.00    -0.378 OA
HETATM   13  O   UNK N   1      24.232  12.002  12.031  0.00  0.00    -0.349 OA
HETATM   14  O   UNK N   1      22.956  11.808  11.681  0.00  0.00    -0.251 OA
HETATM   15  S   UNK N   1      22.891  11.734  10.862  0.00  0.00     0.241 SA
HETATM   16  H   UNK N   1      24.600  12.242  14.439  0.00  0.00     0.210 HD
HETATM   17  H   UNK N   1      22.622  11.656  10.323  0.00  0.00     0.212 HD
HETATM   18  H   UNK N   1      21.956  11.514   9.637  0.00  0.00     0.234 HD
ENDROOT
TORSDOF 3
ENDMDL
MODEL 5
REMARK VINA RESULT:      -7.6     13.387     13.903
REMARK  3 active torsions:
REMARK  status: ('A' for Active; 'I' for Inactive)
REMARK    1  A    between atoms: O_12  and  C_4 
REMARK    2  A    between atoms: O_13  and  C_6 
REMARK    3  A    between atoms: S_15  and  O_14 
ROOT
HETATM    1  C   UNK N   1      32.461  17.530   7.498  0.00  0.00     0.203 A 
HETATM    2  C   UNK N   1      32.562  17.892   8.179  0.00  0.00     0.179 A 
HETATM    3  C   UNK N   1      31.939  17.805   8.513  0.00  0.00     0.181 A 
HETATM    4  C   UNK N   1      32.282  17.598   7.792  0.00  0.00     0.188 A 
HETATM    5  C   UNK N   1      33.160  17.997   7.905  0.00  0.00     0.230 A 
HETATM    6  C   UNK N   1      33.740  18.069   7.577  0.00  0.00     0.290 A 
HETATM    7  O   UNK N   1      31.369  17.861   9.106  0.00  0.00    -0.390 OA
HETATM    8  O   UNK N   1      34.302  18.006   6.976  0.00  0.00    -0.368 OA
HETATM    9  O   UNK N   1      34.409  17.657   6.147  0.00  0.00    -0.274 OA
HETATM   10  O   UNK N   1      33.331  17.212   6.101  0.00  0.00    -0.579 OA
HETATM   11  O   UNK N   1      34.538  17.908   6.572  0.00  0.00    -0.579 OA
HETATM   12  O   UNK N   1      32.000  17.153   7.083  0.00  0.00    -0.378 OA
HETATM   13  O   UNK N   1      33.399  18.278   8.302  0.00  0.00    -0.349 OA
HETATM   14  O   UNK N   1      33.112  17.630   7.168  0.00  0.00    -0.251 OA
HETATM   15  S   UNK N   1      33.761  17.644   6.658  0.00  0.00     0.241 SA
HETATM   16  H   UNK N   1      31.572  18.330   9.931  0.00  0.00     0.210 HD
HETATM   17  H   UNK N   1      34.086  17.534   6.156  0.00  0.00     0.212 HD
HETATM   18  H   UNK N   1      34.353  17.225   5.281  0.00  0.00     0.234 HD
ENDROOT
TORSDOF 3
ENDMDL
MODEL 6
REMARK VINA RESULT:      -7.4     16.704     17.415
REMARK  3 active torsions:
REMARK  status: ('A' for Active; 'I' for Inactive)
REMARK    1  A    between atoms: O_12  and  C_4 
REMARK    2  A    between atoms: O_13  and  C_6 
REMARK    3  A    between atoms: S_15  and  O_14 
ROOT
HETATM    1  C   UNK N   1      34.495  15.527  10.620  0.00  0.00     0.203 A 
HETATM    2  C   UNK N   1      34.844  15.299  11.277  0.00  0.00     0.179 A 
HETATM    3  C   UNK N   1      34.525  14.682  11.435  0.00  0.00     0.181 A 
HETATM    4  C   UNK N   1      34.482  15.261  10.849  0.00  0.00     0.188 A 
HETATM    5  C   UNK N   1      35.168  15.870  11.168  0.00  0.00     0.230 A 
HETATM    6  C   UNK N   1      35.457  16.453  11.004  0.00  0.00     0.290 A 
HETATM    7  O   UNK N   1      34.350  13.989  11.846  0.00  0.00    -0.390 OA
HETATM    8  O   UNK N   1      35.624  17.143  10.584  0.00  0.00    -0.368 OA
HETATM    9  O   UNK N   1      35.366  17.593   9.841  0.00  0.00    -0.274 OA
HETATM   10  O   UNK N   1      34.563  16.804   9.535  0.00  0.00    -0.579 OA
HETATM   11  O   UNK N   1      35.631  17.500  10.267  0.00  0.00    -0.579 OA
HETATM   12  O   UNK N   1      33.991  15.365  10.123  0.00  0.00    -0.378 OA
HETATM   13  O   UNK N   1      35.502  15.873  11.594  0.00  0.00    -0.349 OA
HETATM   14  O   UNK N   1      34.835  16.163  10.472  0.00  0.00    -0.251 OA
HETATM   15  S   UNK N   1      35.101  16.878  10.157  0.00  0.00     0.241 SA
HETATM   16  H   UNK N   1      34.831  13.774  12.661  0.00  0.00     0.210 HD
HETATM   17  H   UNK N   1      35.134  17.346   9.771  0.00  0.00     0.212 HD
HETATM   18  H   UNK N   1      34.975  17.937   9.023  0.00  0.00     0.234 HD
ENDROOT
TORSDOF 3
ENDMDL
MODEL 7
REMARK VINA RESULT:      -7.3     11.312     12.696
REMARK  3 active torsions:
REMARK  status: ('A' for Active; 'I' for Inactive)
REMARK    1  A    between atoms: O_12  and  C_4 
REMARK    2  A    between atoms: O_13  and  C_6 
REMARK    3  A    between atoms: S_15  and  O_14 
ROOT
HETATM    1  C   UNK N   1      21.851  12.223  10.990  0.00  0.00     0.203 A 
HETATM    2  C   UNK N   1      22.060  12.546  10.314  0.00  0.00     0.179 A 
HETATM    3  C   UNK N   1      21.456  12.559   9.937  0.00  0.00     0.181 A 
HETATM    4  C   UNK N   1      21.707  12.314  10.684  0.00  0.00     0.188 A 
HETATM    5  C   UNK N   1      22.646  12.554  10.629  0.00  0.00     0.230 A 
HETATM    6  C   UNK N   1      23.206  12.534  10.998  0.00  0.00     0.290 A 
HETATM    7  O   UNK N   1      20.946  12.697   9.304  0.00  0.00    -0.390 OA
HETATM    8  O   UNK N   1      23.706  12.390  11.639  0.00  0.00    -0.368 OA
HETATM    9  O   UNK N   1      23.694  12.047  12.477  0.00  0.00    -0.274 OA
HETATM   10  O   UNK N   1      22.555  11.794  12.451  0.00  0.00    -0.579 OA
HETATM   11  O   UNK N   1      23.893  12.263  12.060  0.00  0.00    -0.579 OA
HETATM   12  O   UNK N   1      21.305  11.940  11.375  0.00  0.00    -0.378 OA
HETATM   13  O   UNK N   1      22.956  12.781  10.248  0.00  0.00    -0.349 OA
HETATM   14  O   UNK N   1      22.485  12.218  11.365  0.00  0.00    -0.251 OA
HETATM   15  S   UNK N   1      23.090  12.133  11.921  0.00  0.00     0.241 SA
HETATM   16  H   UNK N   1      21.283  13.106   8.491  0.00  0.00     0.210 HD
HETATM   17  H   UNK N   1      23.355  11.981  12.446  0.00  0.00     0.212 HD
HETATM   18  H   UNK N   1      23.504  11.652  13.342  0.00  0.00     0.234 HD
ENDROOT
TORSDOF 3
ENDMDL
MODEL 8
REMARK VINA RESULT:      -7.2     13.494     14.106
REMARK  3 active torsions:
REMARK  status: ('A' for Active; 'I' for Inactive)
REMARK    1  A    between atoms: O_12  and  C_4 
REMARK    2  A    between atoms: O_13  and  C_6 
REMARK    3  A    between atoms: S_15  and  O_14 
ROOT
HETATM    1  C   UNK N   1      32.645  17.722   7.968  0.00  0.00     0.203 A 
HETATM    2  C   UNK N   1      32.382  17.414   7.304  0.00  0.00     0.179 A 
HETATM    3  C   UNK N   1      31.720  17.206   7.463  0.00  0.00     0.181 A 
HETATM    4  C   UNK N   1      32.355  17.570   7.843  0.00  0.00     0.188 A 
HETATM    5  C   UNK N   1      32.993  17.593   7.111  0.00  0.00     0.230 A 
HETATM    6  C   UNK N   1      33.619  17.796   6.979  0.00  0.00     0.290 A 
HETATM    7  O   UNK N   1      30.969  16.881   7.359  0.00  0.00    -0.390 OA
HETATM    8  O   UNK N   1      34.368  18.123   7.095  0.00  0.00    -0.368 OA
HETATM    9  O   UNK N   1      34.870  18.517   7.737  0.00  0.00    -0.274 OA
HETATM   10  O   UNK N   1      34.039  18.446   8.554  0.00  0.00    -0.579 OA
HETATM   11  O   UNK N   1      34.758  18.331   7.276  0.00  0.00    -0.579 OA
HETATM   12  O   UNK N   1      32.489  17.875   8.660  0.00  0.00    -0.378 OA
HETATM   13  O   UNK N   1      32.983  17.429   6.595  0.00  0.00    -0.349 OA
HETATM   14  O   UNK N   1      33.328  17.932   7.785  0.00  0.00    -0.251 OA
HETATM   15  S   UNK N   1      34.099  18.224   7.761  0.00  0.00     0.241 SA
HETATM   16  H   UNK N   1      30.714  16.515   6.497  0.00  0.00     0.210 HD
HETATM   17  H   UNK N   1      34.609  18.485   7.963  0.00  0.00     0.212 HD
HETATM   18  H   UNK N   1      35.262  18.915   8.530  0.00  0.00     0.234 HD
ENDROOT
TORSDOF 3
ENDMDL
MODEL 9
REMARK VINA RESULT:      -7.1     19.977     20.770
REMARK  3 active torsions:
REMARK  status: ('A' for Active; 'I' for Inactive)
REMARK    1  A    between atoms: O_12  and  C_4 
REMARK    2  A    between atoms: O_13  and  C_6 
REMARK    3  A    between atoms: S_15  and  O_14 
ROOT
HETATM    1  C   UNK N   1      36.262  14.161  14.164  0.00  0.00     0.203 A 
HETATM    2  C   UNK N   1      36.430  13.875  14.868  0.00  0.00     0.179 A 
HETATM    3  C   UNK N   1      36.980  14.270  15.086  0.00  0.00     0.181 A 
HETATM    4  C   UNK N   1      36.490  14.215  14.425  0.00  0.00     0.188 A 
HETATM    5  C   UNK N   1      35.918  13.482  14.705  0.00  0.00     0.230 A 
HETATM    6  C   UNK N   1      35.399  13.119  14.483  0.00  0.00     0.290 A 
HETATM    7  O   UNK N   1      37.585  14.545  15.575  0.00  0.00    -0.390 OA
HETATM    8  O   UNK N   1      34.797  12.853  13.985  0.00  0.00    -0.368 OA
HETATM    9  O   UNK N   1      34.433  13.018  13.173  0.00  0.00    -0.274 OA
HETATM   10  O   UNK N   1      35.167  13.890  12.923  0.00  0.00    -0.579 OA
HETATM   11  O   UNK N   1      34.492  12.787  13.624  0.00  0.00    -0.579 OA
HETATM   12  O   UNK N   1      36.438  14.653  13.660  0.00  0.00    -0.378 OA
HETATM   13  O   UNK N   1      35.890  13.172  15.148  0.00  0.00    -0.349 OA
HETATM   14  O   UNK N   1      35.693  13.742  13.955  0.00  0.00    -0.251 OA
HETATM   15  S   UNK N   1      35.063  13.380  13.564  0.00  0.00     0.241 SA
HETATM   16  H   UNK N   1      37.732  14.135  16.442  0.00  0.00     0.210 HD
HETATM   17  H   UNK N   1      34.661  13.273  13.121  0.00  0.00     0.212 HD
HETATM   18  H   UNK N   1      34.169  13.324  12.291  0.00  0.00     0.234 HD
ENDROOT
TORSDOF 3
ENDMDL
