MODEL 1
REMARK VINA RESULT:      -7.8      0.000      0.000
REMARK  14 active torsions:
REMARK  status: ('A' for Active; 'I' for Inactive)
REMARK    1  A    between atoms: C_10  and  C_6 
REMARK    2  A    between atoms: N_18  and  C_6 
REMARK    3  A    between atoms: C_11  and  C_7 
REMARK    4  A    between atoms: O_33  and  C_7 
REMARK    5  A    between atoms: C_13  and  O_26 
REMARK    6  A    between atoms: C_14  and  O_27 
REMARK    7  A    between atoms: N_18  and  C_15 
REMARK    8  A    between atoms: C_17  and  N_25 
REMARK    9  A    between atoms: P_36  and  O_28 
REMARK   10  A    between atoms: P_36  and  O_29 
REMARK   11  A    between atoms: P_37  and  O_31 
REMARK   12  A    between atoms: P_37  and  O_33 
REMARK   13  A    between atoms: P_36  and  O_35 
REMARK   14  A    between atoms: P_37  and  O_35 
ROOT
HETATM    1  C   UNK N   1      25.847  19.273   3.359  0.00  0.00     0.180 C 
HETATM    2  C   UNK N   1      26.957  19.683   4.342  0.00  0.00     0.182 C 
HETATM    3  C   UNK N   1      26.815  18.628   5.383  0.00  0.00     0.198 C 
HETATM    4  C   UNK N   1      26.593  17.446   4.457  0.00  0.00     0.262 C 
HETATM    5  O   UNK N   1      25.635  17.878   3.511  0.00  0.00    -0.353 OA
ENDROOT
BRANCH   4   6
HETATM    6  N   UNK N   1      26.133  16.263   5.178  0.00  0.00    -0.297 N 
HETATM    7  C   UNK N   1      26.878  15.188   5.544  0.00  0.00     0.188 A 
HETATM    8  N   UNK N   1      26.132  14.288   6.243  0.00  0.00    -0.346 N 
HETATM    9  C   UNK N   1      24.908  14.842   6.295  0.00  0.00     0.122 A 
ATOM     10  HN  UNK N   1      26.433  13.396   6.637  1.00  0.00     0.167 HD
HETATM   11  C   UNK N   1      23.763  14.387   6.916  0.00  0.00     0.133 A 
HETATM   12  C   UNK N   1      24.907  16.023   5.660  0.00  0.00     0.142 A 
HETATM   13  N   UNK N   1      22.641  15.166   6.854  0.00  0.00    -0.337 N 
HETATM   14  C   UNK N   1      22.655  16.362   6.175  0.00  0.00     0.183 A 
ATOM     15  HN  UNK N   1      21.785  14.856   7.315  1.00  0.00     0.168 HD
HETATM   16  N   UNK N   1      23.806  16.805   5.578  0.00  0.00    -0.336 N 
ATOM     17  HN  UNK N   1      23.831  17.699   5.086  1.00  0.00     0.168 HD
BRANCH  11  18
HETATM   18  N   UNK N   1      23.788  13.171   7.619  0.00  0.00    -0.370 N 
HETATM   19  H   UNK N   1      24.654  12.723   7.760  0.00  0.00     0.161 HD
BRANCH  18  20
HETATM   20  C   UNK N   1      22.598  12.555   8.139  0.00  0.00     0.160 C 
BRANCH  20  21
HETATM   21  C   UNK N   1      22.788  12.293   9.607  0.00  0.00    -0.041 A 
HETATM   22  C   UNK N   1      21.686  12.217  10.481  0.00  0.00     0.009 A 
HETATM   23  C   UNK N   1      21.879  12.032  11.850  0.00  0.00     0.001 A 
HETATM   24  C   UNK N   1      23.173  11.929  12.362  0.00  0.00     0.000 A 
HETATM   25  C   UNK N   1      24.274  11.999  11.501  0.00  0.00     0.001 A 
HETATM   26  C   UNK N   1      24.081  12.179  10.126  0.00  0.00     0.009 A 
ENDBRANCH  20  21
ENDBRANCH  18  20
ENDBRANCH  11  18
ENDBRANCH   4   6
BRANCH   3  27
HETATM   27  O   UNK N   1      27.968  18.520   6.162  0.00  0.00    -0.388 OA
HETATM   28  H   UNK N   1      28.318  19.265   6.676  0.00  0.00     0.210 HD
ENDBRANCH   3  27
BRANCH   2  29
HETATM   29  O   UNK N   1      26.867  20.973   4.871  0.00  0.00    -0.390 OA
HETATM   30  H   UNK N   1      26.907  21.825   4.408  0.00  0.00     0.210 HD
ENDBRANCH   2  29
BRANCH   1  31
HETATM   31  C   UNK N   1      24.520  20.029   3.534  0.00  0.00     0.215 C 
BRANCH  31  32
HETATM   32  O   UNK N   1      23.580  19.293   4.283  0.00  0.00    -0.294 OA
BRANCH  32  33
HETATM   33  P   UNK N   1      22.049  19.248   3.433  0.00  0.00     0.401 P 
HETATM   34  O   UNK N   1      21.663  17.765   3.157  0.00  0.00    -0.631 OA
BRANCH  33  35
HETATM   35  O   UNK N   1      20.760  19.940   4.367  0.00  0.00    -0.307 OA
HETATM   36  H   UNK N   1      20.717  20.900   4.502  0.00  0.00     0.222 HD
ENDBRANCH  33  35
BRANCH  33  37
HETATM   37  O   UNK N   1      22.210  20.056   1.885  0.00  0.00    -0.195 OA
BRANCH  37  38
HETATM   38  P   UNK N   1      20.655  20.751   1.481  0.00  0.00     0.399 P 
HETATM   39  O   UNK N   1      21.297  20.712   0.066  0.00  0.00    -0.631 OA
BRANCH  38  40
HETATM   40  O   UNK N   1      20.465  22.392   0.952  0.00  0.00    -0.307 OA
HETATM   41  H   UNK N   1      19.624  22.763   0.641  0.00  0.00     0.222 HD
ENDBRANCH  38  40
BRANCH  38  42
HETATM   42  O   UNK N   1      21.584  21.845   2.455  0.00  0.00    -0.307 OA
HETATM   43  H   UNK N   1      21.916  21.623   3.338  0.00  0.00     0.222 HD
ENDBRANCH  38  42
ENDBRANCH  37  38
ENDBRANCH  33  37
ENDBRANCH  32  33
ENDBRANCH  31  32
ENDBRANCH   1  31
TORSDOF 14
ENDMDL
MODEL 2
REMARK VINA RESULT:      -7.7      1.522      2.421
REMARK  14 active torsions:
REMARK  status: ('A' for Active; 'I' for Inactive)
REMARK    1  A    between atoms: C_10  and  C_6 
REMARK    2  A    between atoms: N_18  and  C_6 
REMARK    3  A    between atoms: C_11  and  C_7 
REMARK    4  A    between atoms: O_33  and  C_7 
REMARK    5  A    between atoms: C_13  and  O_26 
REMARK    6  A    between atoms: C_14  and  O_27 
REMARK    7  A    between atoms: N_18  and  C_15 
REMARK    8  A    between atoms: C_17  and  N_25 
REMARK    9  A    between atoms: P_36  and  O_28 
REMARK   10  A    between atoms: P_36  and  O_29 
REMARK   11  A    between atoms: P_37  and  O_31 
REMARK   12  A    between atoms: P_37  and  O_33 
REMARK   13  A    between atoms: P_36  and  O_35 
REMARK   14  A    between atoms: P_37  and  O_35 
ROOT
HETATM    1  C   UNK N   1      25.529  19.421   3.123  0.00  0.00     0.180 C 
HETATM    2  C   UNK N   1      26.560  19.605   4.251  0.00  0.00     0.182 C 
HETATM    3  C   UNK N   1      25.959  18.763   5.322  0.00  0.00     0.198 C 
HETATM    4  C   UNK N   1      25.525  17.595   4.453  0.00  0.00     0.262 C 
HETATM    5  O   UNK N   1      24.887  18.173   3.331  0.00  0.00    -0.353 OA
ENDROOT
BRANCH   4   6
HETATM    6  N   UNK N   1      24.632  16.685   5.164  0.00  0.00    -0.297 N 
HETATM    7  C   UNK N   1      24.884  15.397   5.510  0.00  0.00     0.188 A 
HETATM    8  N   UNK N   1      23.842  14.861   6.205  0.00  0.00    -0.346 N 
HETATM    9  C   UNK N   1      22.944  15.859   6.274  0.00  0.00     0.122 A 
ATOM     10  HN  UNK N   1      23.762  13.918   6.585  1.00  0.00     0.167 HD
HETATM   11  C   UNK N   1      21.715  15.892   6.900  0.00  0.00     0.133 A 
HETATM   12  C   UNK N   1      23.414  16.950   5.654  0.00  0.00     0.142 A 
HETATM   13  N   UNK N   1      20.999  17.056   6.857  0.00  0.00    -0.337 N 
HETATM   14  C   UNK N   1      21.488  18.156   6.193  0.00  0.00     0.183 A 
ATOM     15  HN  UNK N   1      20.092  17.108   7.322  1.00  0.00     0.168 HD
HETATM   16  N   UNK N   1      22.718  18.109   5.591  0.00  0.00    -0.336 N 
ATOM     17  HN  UNK N   1      23.098  18.925   5.110  1.00  0.00     0.168 HD
BRANCH  11  18
HETATM   18  N   UNK N   1      21.253  14.757   7.588  0.00  0.00    -0.370 N 
HETATM   19  H   UNK N   1      21.238  13.891   7.118  0.00  0.00     0.161 HD
BRANCH  18  20
HETATM   20  C   UNK N   1      20.799  14.812   8.951  0.00  0.00     0.160 C 
BRANCH  20  21
HETATM   21  C   UNK N   1      21.531  13.769   9.749  0.00  0.00    -0.041 A 
HETATM   22  C   UNK N   1      22.909  13.544   9.561  0.00  0.00     0.009 A 
HETATM   23  C   UNK N   1      23.564  12.534  10.266  0.00  0.00     0.001 A 
HETATM   24  C   UNK N   1      22.849  11.732  11.158  0.00  0.00     0.000 A 
HETATM   25  C   UNK N   1      21.481  11.952  11.354  0.00  0.00     0.001 A 
HETATM   26  C   UNK N   1      20.824  12.969  10.652  0.00  0.00     0.009 A 
ENDBRANCH  20  21
ENDBRANCH  18  20
ENDBRANCH  11  18
ENDBRANCH   4   6
BRANCH   3  27
HETATM   27  O   UNK N   1      26.903  18.419   6.291  0.00  0.00    -0.388 OA
HETATM   28  H   UNK N   1      27.687  17.886   6.085  0.00  0.00     0.210 HD
ENDBRANCH   3  27
BRANCH   2  29
HETATM   29  O   UNK N   1      26.789  20.919   4.668  0.00  0.00    -0.390 OA
HETATM   30  H   UNK N   1      26.847  21.271   5.570  0.00  0.00     0.210 HD
ENDBRANCH   2  29
BRANCH   1  31
HETATM   31  C   UNK N   1      24.482  20.540   3.019  0.00  0.00     0.215 C 
BRANCH  31  32
HETATM   32  O   UNK N   1      23.330  20.269   3.785  0.00  0.00    -0.294 OA
BRANCH  32  33
HETATM   33  P   UNK N   1      21.945  20.087   2.728  0.00  0.00     0.401 P 
HETATM   34  O   UNK N   1      20.762  20.929   3.288  0.00  0.00    -0.631 OA
BRANCH  33  35
HETATM   35  O   UNK N   1      22.263  20.668   1.124  0.00  0.00    -0.307 OA
HETATM   36  H   UNK N   1      22.722  20.103   0.482  0.00  0.00     0.222 HD
ENDBRANCH  33  35
BRANCH  33  37
HETATM   37  O   UNK N   1      21.441  18.407   2.701  0.00  0.00    -0.195 OA
BRANCH  37  38
HETATM   38  P   UNK N   1      19.693  18.375   2.609  0.00  0.00     0.399 P 
HETATM   39  O   UNK N   1      19.964  16.875   2.911  0.00  0.00    -0.631 OA
BRANCH  38  40
HETATM   40  O   UNK N   1      18.831  17.586   1.327  0.00  0.00    -0.307 OA
HETATM   41  H   UNK N   1      18.373  18.060   0.616  0.00  0.00     0.222 HD
ENDBRANCH  38  40
BRANCH  38  42
HETATM   42  O   UNK N   1      20.385  18.737   1.060  0.00  0.00    -0.307 OA
HETATM   43  H   UNK N   1      19.857  18.860   0.255  0.00  0.00     0.222 HD
ENDBRANCH  38  42
ENDBRANCH  37  38
ENDBRANCH  33  37
ENDBRANCH  32  33
ENDBRANCH  31  32
ENDBRANCH   1  31
TORSDOF 14
ENDMDL
MODEL 3
REMARK VINA RESULT:      -7.6      2.736      4.615
REMARK  14 active torsions:
REMARK  status: ('A' for Active; 'I' for Inactive)
REMARK    1  A    between atoms: C_10  and  C_6 
REMARK    2  A    between atoms: N_18  and  C_6 
REMARK    3  A    between atoms: C_11  and  C_7 
REMARK    4  A    between atoms: O_33  and  C_7 
REMARK    5  A    between atoms: C_13  and  O_26 
REMARK    6  A    between atoms: C_14  and  O_27 
REMARK    7  A    between atoms: N_18  and  C_15 
REMARK    8  A    between atoms: C_17  and  N_25 
REMARK    9  A    between atoms: P_36  and  O_28 
REMARK   10  A    between atoms: P_36  and  O_29 
REMARK   11  A    between atoms: P_37  and  O_31 
REMARK   12  A    between atoms: P_37  and  O_33 
REMARK   13  A    between atoms: P_36  and  O_35 
REMARK   14  A    between atoms: P_37  and  O_35 
ROOT
HETATM    1  C   UNK N   1      21.140  20.056   3.195  0.00  0.00     0.180 C 
HETATM    2  C   UNK N   1      20.227  19.271   2.236  0.00  0.00     0.182 C 
HETATM    3  C   UNK N   1      20.581  17.870   2.595  0.00  0.00     0.198 C 
HETATM    4  C   UNK N   1      20.645  18.048   4.102  0.00  0.00     0.262 C 
HETATM    5  O   UNK N   1      21.401  19.224   4.314  0.00  0.00    -0.353 OA
ENDROOT
BRANCH   4   6
HETATM    6  N   UNK N   1      21.252  16.897   4.764  0.00  0.00    -0.297 N 
HETATM    7  C   UNK N   1      22.121  16.006   4.220  0.00  0.00     0.188 A 
HETATM    8  N   UNK N   1      22.519  15.083   5.140  0.00  0.00    -0.346 N 
HETATM    9  C   UNK N   1      21.869  15.435   6.263  0.00  0.00     0.122 A 
ATOM     10  HN  UNK N   1      23.163  14.304   5.006  1.00  0.00     0.167 HD
HETATM   11  C   UNK N   1      21.926  14.875   7.522  0.00  0.00     0.133 A 
HETATM   12  C   UNK N   1      21.112  16.518   6.040  0.00  0.00     0.142 A 
HETATM   13  N   UNK N   1      21.187  15.449   8.520  0.00  0.00    -0.337 N 
HETATM   14  C   UNK N   1      20.397  16.546   8.264  0.00  0.00     0.183 A 
ATOM     15  HN  UNK N   1      21.222  15.060   9.462  1.00  0.00     0.168 HD
HETATM   16  N   UNK N   1      20.366  17.098   7.010  0.00  0.00    -0.336 N 
ATOM     17  HN  UNK N   1      19.796  17.921   6.813  1.00  0.00     0.168 HD
BRANCH  11  18
HETATM   18  N   UNK N   1      22.759  13.768   7.756  0.00  0.00    -0.370 N 
HETATM   19  H   UNK N   1      23.730  13.869   7.624  0.00  0.00     0.161 HD
BRANCH  18  20
HETATM   20  C   UNK N   1      22.248  12.492   8.178  0.00  0.00     0.160 C 
BRANCH  20  21
HETATM   21  C   UNK N   1      22.642  12.261   9.611  0.00  0.00    -0.041 A 
HETATM   22  C   UNK N   1      21.671  12.197  10.630  0.00  0.00     0.009 A 
HETATM   23  C   UNK N   1      22.054  12.041  11.963  0.00  0.00     0.001 A 
HETATM   24  C   UNK N   1      23.407  11.956  12.292  0.00  0.00     0.000 A 
HETATM   25  C   UNK N   1      24.377  12.013  11.285  0.00  0.00     0.001 A 
HETATM   26  C   UNK N   1      23.995  12.164   9.947  0.00  0.00     0.009 A 
ENDBRANCH  20  21
ENDBRANCH  18  20
ENDBRANCH  11  18
ENDBRANCH   4   6
BRANCH   3  27
HETATM   27  O   UNK N   1      19.596  16.972   2.178  0.00  0.00    -0.388 OA
HETATM   28  H   UNK N   1      19.811  16.136   1.736  0.00  0.00     0.210 HD
ENDBRANCH   3  27
BRANCH   2  29
HETATM   29  O   UNK N   1      20.393  19.534   0.874  0.00  0.00    -0.390 OA
HETATM   30  H   UNK N   1      20.674  20.356   0.442  0.00  0.00     0.210 HD
ENDBRANCH   2  29
BRANCH   1  31
HETATM   31  C   UNK N   1      22.463  20.535   2.576  0.00  0.00     0.215 C 
BRANCH  31  32
HETATM   32  O   UNK N   1      23.383  20.971   3.551  0.00  0.00    -0.294 OA
BRANCH  32  33
HETATM   33  P   UNK N   1      24.924  20.172   3.311  0.00  0.00     0.401 P 
HETATM   34  O   UNK N   1      25.477  20.542   1.904  0.00  0.00    -0.631 OA
BRANCH  33  35
HETATM   35  O   UNK N   1      26.112  20.679   4.471  0.00  0.00    -0.307 OA
HETATM   36  H   UNK N   1      26.557  20.024   5.031  0.00  0.00     0.222 HD
ENDBRANCH  33  35
BRANCH  33  37
HETATM   37  O   UNK N   1      24.699  18.433   3.358  0.00  0.00    -0.195 OA
BRANCH  37  38
HETATM   38  P   UNK N   1      25.660  17.806   4.680  0.00  0.00     0.399 P 
HETATM   39  O   UNK N   1      25.271  16.471   3.987  0.00  0.00    -0.631 OA
BRANCH  38  40
HETATM   40  O   UNK N   1      24.979  16.901   5.994  0.00  0.00    -0.307 OA
HETATM   41  H   UNK N   1      24.033  16.704   6.077  0.00  0.00     0.222 HD
ENDBRANCH  38  40
BRANCH  38  42
HETATM   42  O   UNK N   1      24.204  18.541   5.271  0.00  0.00    -0.307 OA
HETATM   43  H   UNK N   1      24.087  18.830   6.189  0.00  0.00     0.222 HD
ENDBRANCH  38  42
ENDBRANCH  37  38
ENDBRANCH  33  37
ENDBRANCH  32  33
ENDBRANCH  31  32
ENDBRANCH   1  31
TORSDOF 14
ENDMDL
MODEL 4
REMARK VINA RESULT:      -7.5      2.508      5.181
REMARK  14 active torsions:
REMARK  status: ('A' for Active; 'I' for Inactive)
REMARK    1  A    between atoms: C_10  and  C_6 
REMARK    2  A    between atoms: N_18  and  C_6 
REMARK    3  A    between atoms: C_11  and  C_7 
REMARK    4  A    between atoms: O_33  and  C_7 
REMARK    5  A    between atoms: C_13  and  O_26 
REMARK    6  A    between atoms: C_14  and  O_27 
REMARK    7  A    between atoms: N_18  and  C_15 
REMARK    8  A    between atoms: C_17  and  N_25 
REMARK    9  A    between atoms: P_36  and  O_28 
REMARK   10  A    between atoms: P_36  and  O_29 
REMARK   11  A    between atoms: P_37  and  O_31 
REMARK   12  A    between atoms: P_37  and  O_33 
REMARK   13  A    between atoms: P_36  and  O_35 
REMARK   14  A    between atoms: P_37  and  O_35 
ROOT
HETATM    1  C   UNK N   1      21.032  20.279   2.909  0.00  0.00     0.180 C 
HETATM    2  C   UNK N   1      20.311  19.652   1.702  0.00  0.00     0.182 C 
HETATM    3  C   UNK N   1      20.315  18.214   2.087  0.00  0.00     0.198 C 
HETATM    4  C   UNK N   1      19.981  18.388   3.558  0.00  0.00     0.262 C 
HETATM    5  O   UNK N   1      20.828  19.422   4.021  0.00  0.00    -0.353 OA
ENDROOT
BRANCH   4   6
HETATM    6  N   UNK N   1      20.181  17.156   4.315  0.00  0.00    -0.297 N 
HETATM    7  C   UNK N   1      19.267  16.178   4.541  0.00  0.00     0.188 A 
HETATM    8  N   UNK N   1      19.811  15.150   5.251  0.00  0.00    -0.346 N 
HETATM    9  C   UNK N   1      21.086  15.527   5.453  0.00  0.00     0.122 A 
ATOM     10  HN  UNK N   1      19.355  14.292   5.558  1.00  0.00     0.167 HD
HETATM   11  C   UNK N   1      22.112  14.852   6.081  0.00  0.00     0.133 A 
HETATM   12  C   UNK N   1      21.309  16.725   4.894  0.00  0.00     0.142 A 
HETATM   13  N   UNK N   1      23.345  15.443   6.122  0.00  0.00    -0.337 N 
HETATM   14  C   UNK N   1      23.546  16.684   5.565  0.00  0.00     0.183 A 
ATOM     15  HN  UNK N   1      24.122  14.959   6.571  1.00  0.00     0.168 HD
HETATM   16  N   UNK N   1      22.519  17.332   4.931  0.00  0.00    -0.336 N 
ATOM     17  HN  UNK N   1      22.661  18.246   4.500  1.00  0.00     0.168 HD
BRANCH  11  18
HETATM   18  N   UNK N   1      21.879  13.576   6.622  0.00  0.00    -0.370 N 
HETATM   19  H   UNK N   1      20.954  13.239   6.658  0.00  0.00     0.161 HD
BRANCH  18  20
HETATM   20  C   UNK N   1      22.938  12.746   7.127  0.00  0.00     0.160 C 
BRANCH  20  21
HETATM   21  C   UNK N   1      22.762  12.584   8.612  0.00  0.00    -0.041 A 
HETATM   22  C   UNK N   1      23.819  12.128   9.423  0.00  0.00     0.009 A 
HETATM   23  C   UNK N   1      23.626  11.926  10.790  0.00  0.00     0.001 A 
HETATM   24  C   UNK N   1      22.375  12.170  11.359  0.00  0.00     0.000 A 
HETATM   25  C   UNK N   1      21.322  12.629  10.561  0.00  0.00     0.001 A 
HETATM   26  C   UNK N   1      21.515  12.836   9.190  0.00  0.00     0.009 A 
ENDBRANCH  20  21
ENDBRANCH  18  20
ENDBRANCH  11  18
ENDBRANCH   4   6
BRANCH   3  27
HETATM   27  O   UNK N   1      19.355  17.492   1.376  0.00  0.00    -0.388 OA
HETATM   28  H   UNK N   1      18.971  16.668   1.714  0.00  0.00     0.210 HD
ENDBRANCH   3  27
BRANCH   2  29
HETATM   29  O   UNK N   1      20.894  19.875   0.453  0.00  0.00    -0.390 OA
HETATM   30  H   UNK N   1      20.483  19.843  -0.426  0.00  0.00     0.210 HD
ENDBRANCH   2  29
BRANCH   1  31
HETATM   31  C   UNK N   1      22.535  20.525   2.704  0.00  0.00     0.215 C 
BRANCH  31  32
HETATM   32  O   UNK N   1      23.302  20.109   3.811  0.00  0.00    -0.294 OA
BRANCH  32  33
HETATM   33  P   UNK N   1      24.982  19.947   3.340  0.00  0.00     0.401 P 
HETATM   34  O   UNK N   1      25.279  18.454   3.014  0.00  0.00    -0.631 OA
BRANCH  33  35
HETATM   35  O   UNK N   1      25.353  20.859   1.911  0.00  0.00    -0.307 OA
HETATM   36  H   UNK N   1      25.865  21.681   1.976  0.00  0.00     0.222 HD
ENDBRANCH  33  35
BRANCH  33  37
HETATM   37  O   UNK N   1      26.016  20.420   4.675  0.00  0.00    -0.195 OA
BRANCH  37  38
HETATM   38  P   UNK N   1      27.196  19.148   4.913  0.00  0.00     0.399 P 
HETATM   39  O   UNK N   1      27.602  20.099   6.072  0.00  0.00    -0.631 OA
BRANCH  38  40
HETATM   40  O   UNK N   1      28.891  19.369   4.622  0.00  0.00    -0.307 OA
HETATM   41  H   UNK N   1      29.321  19.177   3.774  0.00  0.00     0.222 HD
ENDBRANCH  38  40
BRANCH  38  42
HETATM   42  O   UNK N   1      27.481  19.981   3.419  0.00  0.00    -0.307 OA
HETATM   43  H   UNK N   1      28.342  20.353   3.172  0.00  0.00     0.222 HD
ENDBRANCH  38  42
ENDBRANCH  37  38
ENDBRANCH  33  37
ENDBRANCH  32  33
ENDBRANCH  31  32
ENDBRANCH   1  31
TORSDOF 14
ENDMDL
MODEL 5
REMARK VINA RESULT:      -7.3     12.986     15.236
REMARK  14 active torsions:
REMARK  status: ('A' for Active; 'I' for Inactive)
REMARK    1  A    between atoms: C_10  and  C_6 
REMARK    2  A    between atoms: N_18  and  C_6 
REMARK    3  A    between atoms: C_11  and  C_7 
REMARK    4  A    between atoms: O_33  and  C_7 
REMARK    5  A    between atoms: C_13  and  O_26 
REMARK    6  A    between atoms: C_14  and  O_27 
REMARK    7  A    between atoms: N_18  and  C_15 
REMARK    8  A    between atoms: C_17  and  N_25 
REMARK    9  A    between atoms: P_36  and  O_28 
REMARK   10  A    between atoms: P_36  and  O_29 
REMARK   11  A    between atoms: P_37  and  O_31 
REMARK   12  A    between atoms: P_37  and  O_33 
REMARK   13  A    between atoms: P_36  and  O_35 
REMARK   14  A    between atoms: P_37  and  O_35 
ROOT
HETATM    1  C   UNK N   1      35.329  13.505  12.022  0.00  0.00     0.180 C 
HETATM    2  C   UNK N   1      36.737  12.886  11.968  0.00  0.00     0.182 C 
HETATM    3  C   UNK N   1      37.023  12.710  13.418  0.00  0.00     0.198 C 
HETATM    4  C   UNK N   1      35.654  12.212  13.845  0.00  0.00     0.262 C 
HETATM    5  O   UNK N   1      34.724  13.086  13.235  0.00  0.00    -0.353 OA
ENDROOT
BRANCH   4   6
HETATM    6  N   UNK N   1      35.502  12.203  15.297  0.00  0.00    -0.297 N 
HETATM    7  C   UNK N   1      34.832  13.108  16.055  0.00  0.00     0.188 A 
HETATM    8  N   UNK N   1      34.859  12.764  17.373  0.00  0.00    -0.346 N 
HETATM    9  C   UNK N   1      35.567  11.622  17.400  0.00  0.00     0.122 A 
ATOM     10  HN  UNK N   1      34.440  13.260  18.158  1.00  0.00     0.167 HD
HETATM   11  C   UNK N   1      35.876  10.806  18.469  0.00  0.00     0.133 A 
HETATM   12  C   UNK N   1      35.952  11.284  16.162  0.00  0.00     0.142 A 
HETATM   13  N   UNK N   1      36.586   9.663  18.226  0.00  0.00    -0.337 N 
HETATM   14  C   UNK N   1      36.993   9.348  16.951  0.00  0.00     0.183 A 
ATOM     15  HN  UNK N   1      36.817   9.037  18.999  1.00  0.00     0.168 HD
HETATM   16  N   UNK N   1      36.663  10.162  15.900  0.00  0.00    -0.336 N 
ATOM     17  HN  UNK N   1      36.946   9.930  14.947  1.00  0.00     0.168 HD
BRANCH  11  18
HETATM   18  N   UNK N   1      35.427  11.144  19.757  0.00  0.00    -0.370 N 
HETATM   19  H   UNK N   1      35.181  12.080  19.943  0.00  0.00     0.161 HD
BRANCH  18  20
HETATM   20  C   UNK N   1      35.315  10.178  20.815  0.00  0.00     0.160 C 
BRANCH  20  21
HETATM   21  C   UNK N   1      33.948   9.553  20.759  0.00  0.00    -0.041 A 
HETATM   22  C   UNK N   1      33.647   8.547  19.819  0.00  0.00     0.009 A 
HETATM   23  C   UNK N   1      32.359   8.017  19.738  0.00  0.00     0.001 A 
HETATM   24  C   UNK N   1      31.358   8.490  20.588  0.00  0.00     0.000 A 
HETATM   25  C   UNK N   1      31.650   9.484  21.528  0.00  0.00     0.001 A 
HETATM   26  C   UNK N   1      32.943  10.014  21.613  0.00  0.00     0.009 A 
ENDBRANCH  20  21
ENDBRANCH  18  20
ENDBRANCH  11  18
ENDBRANCH   4   6
BRANCH   3  27
HETATM   27  O   UNK N   1      38.047  11.785  13.629  0.00  0.00    -0.388 OA
HETATM   28  H   UNK N   1      38.598  11.448  12.905  0.00  0.00     0.210 HD
ENDBRANCH   3  27
BRANCH   2  29
HETATM   29  O   UNK N   1      37.716  13.638  11.315  0.00  0.00    -0.390 OA
HETATM   30  H   UNK N   1      38.582  13.928  11.643  0.00  0.00     0.210 HD
ENDBRANCH   2  29
BRANCH   1  31
HETATM   31  C   UNK N   1      35.296  15.038  11.920  0.00  0.00     0.215 C 
BRANCH  31  32
HETATM   32  O   UNK N   1      35.774  15.503  10.678  0.00  0.00    -0.294 OA
BRANCH  32  33
HETATM   33  P   UNK N   1      34.519  15.348   9.465  0.00  0.00     0.401 P 
HETATM   34  O   UNK N   1      34.455  13.869   8.983  0.00  0.00    -0.631 OA
BRANCH  33  35
HETATM   35  O   UNK N   1      32.949  15.743  10.092  0.00  0.00    -0.307 OA
HETATM   36  H   UNK N   1      32.743  16.655  10.352  0.00  0.00     0.222 HD
ENDBRANCH  33  35
BRANCH  33  37
HETATM   37  O   UNK N   1      34.913  16.346   8.079  0.00  0.00    -0.195 OA
BRANCH  37  38
HETATM   38  P   UNK N   1      33.985  17.826   8.205  0.00  0.00     0.399 P 
HETATM   39  O   UNK N   1      34.625  18.040   6.805  0.00  0.00    -0.631 OA
BRANCH  38  40
HETATM   40  O   UNK N   1      34.721  19.388   8.377  0.00  0.00    -0.307 OA
HETATM   41  H   UNK N   1      34.395  20.071   8.984  0.00  0.00     0.222 HD
ENDBRANCH  38  40
BRANCH  38  42
HETATM   42  O   UNK N   1      35.266  17.800   9.374  0.00  0.00    -0.307 OA
HETATM   43  H   UNK N   1      36.069  18.339   9.298  0.00  0.00     0.222 HD
ENDBRANCH  38  42
ENDBRANCH  37  38
ENDBRANCH  33  37
ENDBRANCH  32  33
ENDBRANCH  31  32
ENDBRANCH   1  31
TORSDOF 14
ENDMDL
MODEL 6
REMARK VINA RESULT:      -7.2      8.691     11.002
REMARK  14 active torsions:
REMARK  status: ('A' for Active; 'I' for Inactive)
REMARK    1  A    between atoms: C_10  and  C_6 
REMARK    2  A    between atoms: N_18  and  C_6 
REMARK    3  A    between atoms: C_11  and  C_7 
REMARK    4  A    between atoms: O_33  and  C_7 
REMARK    5  A    between atoms: C_13  and  O_26 
REMARK    6  A    between atoms: C_14  and  O_27 
REMARK    7  A    between atoms: N_18  and  C_15 
REMARK    8  A    between atoms: C_17  and  N_25 
REMARK    9  A    between atoms: P_36  and  O_28 
REMARK   10  A    between atoms: P_36  and  O_29 
REMARK   11  A    between atoms: P_37  and  O_31 
REMARK   12  A    between atoms: P_37  and  O_33 
REMARK   13  A    between atoms: P_36  and  O_35 
REMARK   14  A    between atoms: P_37  and  O_35 
ROOT
HETATM    1  C   UNK N   1      33.005  15.321   5.212  0.00  0.00     0.180 C 
HETATM    2  C   UNK N   1      33.603  16.737   5.290  0.00  0.00     0.182 C 
HETATM    3  C   UNK N   1      33.728  16.910   6.764  0.00  0.00     0.198 C 
HETATM    4  C   UNK N   1      34.235  15.518   7.097  0.00  0.00     0.262 C 
HETATM    5  O   UNK N   1      33.396  14.628   6.387  0.00  0.00    -0.353 OA
ENDROOT
BRANCH   4   6
HETATM    6  N   UNK N   1      34.201  15.252   8.532  0.00  0.00    -0.297 N 
HETATM    7  C   UNK N   1      33.111  15.268   9.341  0.00  0.00     0.188 A 
HETATM    8  N   UNK N   1      33.441  14.930  10.619  0.00  0.00    -0.346 N 
HETATM    9  C   UNK N   1      34.765  14.707  10.569  0.00  0.00     0.122 A 
ATOM     10  HN  UNK N   1      32.823  14.862  11.428  1.00  0.00     0.167 HD
HETATM   11  C   UNK N   1      35.624  14.294  11.567  0.00  0.00     0.133 A 
HETATM   12  C   UNK N   1      35.222  14.898   9.324  0.00  0.00     0.142 A 
HETATM   13  N   UNK N   1      36.940  14.100  11.249  0.00  0.00    -0.337 N 
HETATM   14  C   UNK N   1      37.392  14.326   9.970  0.00  0.00     0.183 A 
ATOM     15  HN  UNK N   1      37.592  13.784  11.967  1.00  0.00     0.168 HD
HETATM   16  N   UNK N   1      36.521  14.720   8.988  0.00  0.00    -0.336 N 
ATOM     17  HN  UNK N   1      36.843  14.875   8.032  1.00  0.00     0.168 HD
BRANCH  11  18
HETATM   18  N   UNK N   1      35.126  14.051  12.859  0.00  0.00    -0.370 N 
HETATM   19  H   UNK N   1      34.153  14.087  13.006  0.00  0.00     0.161 HD
BRANCH  18  20
HETATM   20  C   UNK N   1      35.984  13.754  13.973  0.00  0.00     0.160 C 
BRANCH  20  21
HETATM   21  C   UNK N   1      35.412  12.585  14.728  0.00  0.00    -0.041 A 
HETATM   22  C   UNK N   1      35.894  12.238  16.005  0.00  0.00     0.009 A 
HETATM   23  C   UNK N   1      35.396  11.117  16.669  0.00  0.00     0.001 A 
HETATM   24  C   UNK N   1      34.419  10.326  16.063  0.00  0.00     0.000 A 
HETATM   25  C   UNK N   1      33.931  10.667  14.796  0.00  0.00     0.001 A 
HETATM   26  C   UNK N   1      34.426  11.794  14.131  0.00  0.00     0.009 A 
ENDBRANCH  20  21
ENDBRANCH  18  20
ENDBRANCH  11  18
ENDBRANCH   4   6
BRANCH   3  27
HETATM   27  O   UNK N   1      34.630  17.926   7.084  0.00  0.00    -0.388 OA
HETATM   28  H   UNK N   1      34.433  18.862   6.926  0.00  0.00     0.210 HD
ENDBRANCH   3  27
BRANCH   2  29
HETATM   29  O   UNK N   1      32.855  17.755   4.692  0.00  0.00    -0.390 OA
HETATM   30  H   UNK N   1      32.263  17.706   3.925  0.00  0.00     0.210 HD
ENDBRANCH   2  29
BRANCH   1  31
HETATM   31  C   UNK N   1      31.477  15.275   5.059  0.00  0.00     0.215 C 
BRANCH  31  32
HETATM   32  O   UNK N   1      30.812  15.344   6.299  0.00  0.00    -0.294 OA
BRANCH  32  33
HETATM   33  P   UNK N   1      29.798  16.772   6.350  0.00  0.00     0.401 P 
HETATM   34  O   UNK N   1      29.836  17.473   4.961  0.00  0.00    -0.631 OA
BRANCH  33  35
HETATM   35  O   UNK N   1      28.138  16.386   6.676  0.00  0.00    -0.307 OA
HETATM   36  H   UNK N   1      27.454  17.071   6.606  0.00  0.00     0.222 HD
ENDBRANCH  33  35
BRANCH  33  37
HETATM   37  O   UNK N   1      30.427  17.900   7.536  0.00  0.00    -0.195 OA
BRANCH  37  38
HETATM   38  P   UNK N   1      29.648  17.556   9.066  0.00  0.00     0.399 P 
HETATM   39  O   UNK N   1      28.751  18.726   8.575  0.00  0.00    -0.631 OA
BRANCH  38  40
HETATM   40  O   UNK N   1      29.701  18.643  10.416  0.00  0.00    -0.307 OA
HETATM   41  H   UNK N   1      29.043  18.648  11.129  0.00  0.00     0.222 HD
ENDBRANCH  38  40
BRANCH  38  42
HETATM   42  O   UNK N   1      31.246  18.182   9.316  0.00  0.00    -0.307 OA
HETATM   43  H   UNK N   1      31.530  18.607  10.140  0.00  0.00     0.222 HD
ENDBRANCH  38  42
ENDBRANCH  37  38
ENDBRANCH  33  37
ENDBRANCH  32  33
ENDBRANCH  31  32
ENDBRANCH   1  31
TORSDOF 14
ENDMDL
MODEL 7
REMARK VINA RESULT:      -7.2     10.016     13.082
REMARK  14 active torsions:
REMARK  status: ('A' for Active; 'I' for Inactive)
REMARK    1  A    between atoms: C_10  and  C_6 
REMARK    2  A    between atoms: N_18  and  C_6 
REMARK    3  A    between atoms: C_11  and  C_7 
REMARK    4  A    between atoms: O_33  and  C_7 
REMARK    5  A    between atoms: C_13  and  O_26 
REMARK    6  A    between atoms: C_14  and  O_27 
REMARK    7  A    between atoms: N_18  and  C_15 
REMARK    8  A    between atoms: C_17  and  N_25 
REMARK    9  A    between atoms: P_36  and  O_28 
REMARK   10  A    between atoms: P_36  and  O_29 
REMARK   11  A    between atoms: P_37  and  O_31 
REMARK   12  A    between atoms: P_37  and  O_33 
REMARK   13  A    between atoms: P_36  and  O_35 
REMARK   14  A    between atoms: P_37  and  O_35 
ROOT
HETATM    1  C   UNK N   1      34.709  14.821  10.746  0.00  0.00     0.180 C 
HETATM    2  C   UNK N   1      35.536  16.119  10.757  0.00  0.00     0.182 C 
HETATM    3  C   UNK N   1      35.052  16.772   9.510  0.00  0.00     0.198 C 
HETATM    4  C   UNK N   1      33.577  16.446   9.660  0.00  0.00     0.262 C 
HETATM    5  O   UNK N   1      33.524  15.076  10.009  0.00  0.00    -0.353 OA
ENDROOT
BRANCH   4   6
HETATM    6  N   UNK N   1      32.829  16.713   8.434  0.00  0.00    -0.297 N 
HETATM    7  C   UNK N   1      33.295  16.642   7.161  0.00  0.00     0.188 A 
HETATM    8  N   UNK N   1      32.310  16.914   6.260  0.00  0.00    -0.346 N 
HETATM    9  C   UNK N   1      31.227  17.154   7.019  0.00  0.00     0.122 A 
ATOM     10  HN  UNK N   1      32.380  16.932   5.243  1.00  0.00     0.167 HD
HETATM   11  C   UNK N   1      29.933  17.442   6.636  0.00  0.00     0.133 A 
HETATM   12  C   UNK N   1      31.534  17.034   8.318  0.00  0.00     0.142 A 
HETATM   13  N   UNK N   1      28.991  17.609   7.614  0.00  0.00    -0.337 N 
HETATM   14  C   UNK N   1      29.334  17.506   8.942  0.00  0.00     0.183 A 
ATOM     15  HN  UNK N   1      28.025  17.812   7.355  1.00  0.00     0.168 HD
HETATM   16  N   UNK N   1      30.620  17.203   9.302  0.00  0.00    -0.336 N 
ATOM     17  HN  UNK N   1      30.882  17.109  10.284  1.00  0.00     0.168 HD
BRANCH  11  18
HETATM   18  N   UNK N   1      29.611  17.520   5.270  0.00  0.00    -0.370 N 
HETATM   19  H   UNK N   1      30.218  18.008   4.667  0.00  0.00     0.161 HD
BRANCH  18  20
HETATM   20  C   UNK N   1      28.429  16.914   4.720  0.00  0.00     0.160 C 
BRANCH  20  21
HETATM   21  C   UNK N   1      27.493  18.000   4.269  0.00  0.00    -0.041 A 
HETATM   22  C   UNK N   1      27.851  19.359   4.373  0.00  0.00     0.009 A 
HETATM   23  C   UNK N   1      26.950  20.359   4.005  0.00  0.00     0.001 A 
HETATM   24  C   UNK N   1      25.681  20.014   3.538  0.00  0.00     0.000 A 
HETATM   25  C   UNK N   1      25.319  18.667   3.426  0.00  0.00     0.001 A 
HETATM   26  C   UNK N   1      26.224  17.662   3.790  0.00  0.00     0.009 A 
ENDBRANCH  20  21
ENDBRANCH  18  20
ENDBRANCH  11  18
ENDBRANCH   4   6
BRANCH   3  27
HETATM   27  O   UNK N   1      35.325  18.141   9.511  0.00  0.00    -0.388 OA
HETATM   28  H   UNK N   1      35.341  18.667   8.697  0.00  0.00     0.210 HD
ENDBRANCH   3  27
BRANCH   2  29
HETATM   29  O   UNK N   1      36.924  15.964  10.777  0.00  0.00    -0.390 OA
HETATM   30  H   UNK N   1      37.608  16.620  10.986  0.00  0.00     0.210 HD
ENDBRANCH   2  29
BRANCH   1  31
HETATM   31  C   UNK N   1      35.437  13.599  10.164  0.00  0.00     0.215 C 
BRANCH  31  32
HETATM   32  O   UNK N   1      35.191  12.426  10.906  0.00  0.00    -0.294 OA
BRANCH  32  33
HETATM   33  P   UNK N   1      36.592  12.041  11.886  0.00  0.00     0.401 P 
HETATM   34  O   UNK N   1      37.343  10.835  11.250  0.00  0.00    -0.631 OA
BRANCH  33  35
HETATM   35  O   UNK N   1      37.721  13.357  11.961  0.00  0.00    -0.307 OA
HETATM   36  H   UNK N   1      37.524  14.195  11.513  0.00  0.00     0.222 HD
ENDBRANCH  33  35
BRANCH  33  37
HETATM   37  O   UNK N   1      36.074  11.563  13.492  0.00  0.00    -0.195 OA
BRANCH  37  38
HETATM   38  P   UNK N   1      35.710  13.020  14.391  0.00  0.00     0.399 P 
HETATM   39  O   UNK N   1      36.039  12.063  15.570  0.00  0.00    -0.631 OA
BRANCH  38  40
HETATM   40  O   UNK N   1      34.303  13.182  15.393  0.00  0.00    -0.307 OA
HETATM   41  H   UNK N   1      33.457  12.745  15.206  0.00  0.00     0.222 HD
ENDBRANCH  38  40
BRANCH  38  42
HETATM   42  O   UNK N   1      34.291  12.414  13.598  0.00  0.00    -0.307 OA
HETATM   43  H   UNK N   1      33.714  12.963  13.044  0.00  0.00     0.222 HD
ENDBRANCH  38  42
ENDBRANCH  37  38
ENDBRANCH  33  37
ENDBRANCH  32  33
ENDBRANCH  31  32
ENDBRANCH   1  31
TORSDOF 14
ENDMDL
MODEL 8
REMARK VINA RESULT:      -7.2      9.161     11.369
REMARK  14 active torsions:
REMARK  status: ('A' for Active; 'I' for Inactive)
REMARK    1  A    between atoms: C_10  and  C_6 
REMARK    2  A    between atoms: N_18  and  C_6 
REMARK    3  A    between atoms: C_11  and  C_7 
REMARK    4  A    between atoms: O_33  and  C_7 
REMARK    5  A    between atoms: C_13  and  O_26 
REMARK    6  A    between atoms: C_14  and  O_27 
REMARK    7  A    between atoms: N_18  and  C_15 
REMARK    8  A    between atoms: C_17  and  N_25 
REMARK    9  A    between atoms: P_36  and  O_28 
REMARK   10  A    between atoms: P_36  and  O_29 
REMARK   11  A    between atoms: P_37  and  O_31 
REMARK   12  A    between atoms: P_37  and  O_33 
REMARK   13  A    between atoms: P_36  and  O_35 
REMARK   14  A    between atoms: P_37  and  O_35 
ROOT
HETATM    1  C   UNK N   1      33.223  15.534   5.620  0.00  0.00     0.180 C 
HETATM    2  C   UNK N   1      33.843  16.937   5.750  0.00  0.00     0.182 C 
HETATM    3  C   UNK N   1      33.987  17.045   7.228  0.00  0.00     0.198 C 
HETATM    4  C   UNK N   1      34.475  15.632   7.496  0.00  0.00     0.262 C 
HETATM    5  O   UNK N   1      33.615  14.786   6.759  0.00  0.00    -0.353 OA
ENDROOT
BRANCH   4   6
HETATM    6  N   UNK N   1      34.453  15.306   8.919  0.00  0.00    -0.297 N 
HETATM    7  C   UNK N   1      33.387  15.378   9.758  0.00  0.00     0.188 A 
HETATM    8  N   UNK N   1      33.717  14.956  11.011  0.00  0.00    -0.346 N 
HETATM    9  C   UNK N   1      35.016  14.624  10.915  0.00  0.00     0.122 A 
ATOM     10  HN  UNK N   1      33.116  14.905  11.832  1.00  0.00     0.167 HD
HETATM   11  C   UNK N   1      35.860  14.096  11.871  0.00  0.00     0.133 A 
HETATM   12  C   UNK N   1      35.458  14.832   9.667  0.00  0.00     0.142 A 
HETATM   13  N   UNK N   1      37.146  13.805  11.508  0.00  0.00    -0.337 N 
HETATM   14  C   UNK N   1      37.585  14.050  10.228  0.00  0.00     0.183 A 
ATOM     15  HN  UNK N   1      37.786  13.403  12.194  1.00  0.00     0.168 HD
HETATM   16  N   UNK N   1      36.729  14.560   9.289  0.00  0.00    -0.336 N 
ATOM     17  HN  UNK N   1      37.040  14.730   8.332  1.00  0.00     0.168 HD
BRANCH  11  18
HETATM   18  N   UNK N   1      35.374  13.838  13.164  0.00  0.00    -0.370 N 
HETATM   19  H   UNK N   1      34.517  14.241  13.437  0.00  0.00     0.161 HD
BRANCH  18  20
HETATM   20  C   UNK N   1      36.080  13.010  14.103  0.00  0.00     0.160 C 
BRANCH  20  21
HETATM   21  C   UNK N   1      36.239  13.767  15.393  0.00  0.00    -0.041 A 
HETATM   22  C   UNK N   1      35.476  13.435  16.530  0.00  0.00     0.009 A 
HETATM   23  C   UNK N   1      35.591  14.182  17.703  0.00  0.00     0.001 A 
HETATM   24  C   UNK N   1      36.462  15.272  17.750  0.00  0.00     0.000 A 
HETATM   25  C   UNK N   1      37.227  15.605  16.627  0.00  0.00     0.001 A 
HETATM   26  C   UNK N   1      37.117  14.853  15.451  0.00  0.00     0.009 A 
ENDBRANCH  20  21
ENDBRANCH  18  20
ENDBRANCH  11  18
ENDBRANCH   4   6
BRANCH   3  27
HETATM   27  O   UNK N   1      34.908  18.033   7.581  0.00  0.00    -0.388 OA
HETATM   28  H   UNK N   1      34.950  18.888   7.126  0.00  0.00     0.210 HD
ENDBRANCH   3  27
BRANCH   2  29
HETATM   29  O   UNK N   1      33.105  17.990   5.205  0.00  0.00    -0.390 OA
HETATM   30  H   UNK N   1      32.421  17.963   4.517  0.00  0.00     0.210 HD
ENDBRANCH   2  29
BRANCH   1  31
HETATM   31  C   UNK N   1      31.692  15.518   5.481  0.00  0.00     0.215 C 
BRANCH  31  32
HETATM   32  O   UNK N   1      31.151  16.814   5.365  0.00  0.00    -0.294 OA
BRANCH  32  33
HETATM   33  P   UNK N   1      29.544  16.850   6.063  0.00  0.00     0.401 P 
HETATM   34  O   UNK N   1      28.769  18.074   5.493  0.00  0.00    -0.631 OA
BRANCH  33  35
HETATM   35  O   UNK N   1      28.623  15.436   5.659  0.00  0.00    -0.307 OA
HETATM   36  H   UNK N   1      29.070  14.587   5.515  0.00  0.00     0.222 HD
ENDBRANCH  33  35
BRANCH  33  37
HETATM   37  O   UNK N   1      29.660  17.052   7.801  0.00  0.00    -0.195 OA
BRANCH  37  38
HETATM   38  P   UNK N   1      28.671  18.426   8.247  0.00  0.00     0.399 P 
HETATM   39  O   UNK N   1      29.430  18.208   9.585  0.00  0.00    -0.631 OA
BRANCH  38  40
HETATM   40  O   UNK N   1      27.369  18.318   9.388  0.00  0.00    -0.307 OA
HETATM   41  H   UNK N   1      27.362  18.783  10.240  0.00  0.00     0.222 HD
ENDBRANCH  38  40
BRANCH  38  42
HETATM   42  O   UNK N   1      27.688  17.025   7.962  0.00  0.00    -0.307 OA
HETATM   43  H   UNK N   1      27.431  16.402   8.659  0.00  0.00     0.222 HD
ENDBRANCH  38  42
ENDBRANCH  37  38
ENDBRANCH  33  37
ENDBRANCH  32  33
ENDBRANCH  31  32
ENDBRANCH   1  31
TORSDOF 14
ENDMDL
MODEL 9
REMARK VINA RESULT:      -7.2     10.412     13.391
REMARK  14 active torsions:
REMARK  status: ('A' for Active; 'I' for Inactive)
REMARK    1  A    between atoms: C_10  and  C_6 
REMARK    2  A    between atoms: N_18  and  C_6 
REMARK    3  A    between atoms: C_11  and  C_7 
REMARK    4  A    between atoms: O_33  and  C_7 
REMARK    5  A    between atoms: C_13  and  O_26 
REMARK    6  A    between atoms: C_14  and  O_27 
REMARK    7  A    between atoms: N_18  and  C_15 
REMARK    8  A    between atoms: C_17  and  N_25 
REMARK    9  A    between atoms: P_36  and  O_28 
REMARK   10  A    between atoms: P_36  and  O_29 
REMARK   11  A    between atoms: P_37  and  O_31 
REMARK   12  A    between atoms: P_37  and  O_33 
REMARK   13  A    between atoms: P_36  and  O_35 
REMARK   14  A    between atoms: P_37  and  O_35 
ROOT
HETATM    1  C   UNK N   1      35.367  12.106  13.249  0.00  0.00     0.180 C 
HETATM    2  C   UNK N   1      36.826  12.200  12.769  0.00  0.00     0.182 C 
HETATM    3  C   UNK N   1      36.688  13.153  11.633  0.00  0.00     0.198 C 
HETATM    4  C   UNK N   1      35.715  14.119  12.285  0.00  0.00     0.262 C 
HETATM    5  O   UNK N   1      34.717  13.311  12.877  0.00  0.00    -0.353 OA
ENDROOT
BRANCH   4   6
HETATM    6  N   UNK N   1      35.142  15.053  11.320  0.00  0.00    -0.297 N 
HETATM    7  C   UNK N   1      35.402  16.382  11.215  0.00  0.00     0.188 A 
HETATM    8  N   UNK N   1      34.722  16.935  10.172  0.00  0.00    -0.346 N 
HETATM    9  C   UNK N   1      34.037  15.907   9.643  0.00  0.00     0.122 A 
ATOM     10  HN  UNK N   1      34.730  17.907   9.865  1.00  0.00     0.167 HD
HETATM   11  C   UNK N   1      33.210  15.879   8.538  0.00  0.00     0.133 A 
HETATM   12  C   UNK N   1      34.287  14.781  10.326  0.00  0.00     0.142 A 
HETATM   13  N   UNK N   1      32.654  14.683   8.177  0.00  0.00    -0.337 N 
HETATM   14  C   UNK N   1      32.904  13.545   8.907  0.00  0.00     0.183 A 
ATOM     15  HN  UNK N   1      32.048  14.635   7.357  1.00  0.00     0.168 HD
HETATM   16  N   UNK N   1      33.741  13.589   9.991  0.00  0.00    -0.336 N 
ATOM     17  HN  UNK N   1      33.945  12.747  10.531  1.00  0.00     0.168 HD
BRANCH  11  18
HETATM   18  N   UNK N   1      32.992  17.055   7.801  0.00  0.00    -0.370 N 
HETATM   19  H   UNK N   1      33.342  17.109   6.881  0.00  0.00     0.161 HD
BRANCH  18  20
HETATM   20  C   UNK N   1      32.281  18.183   8.338  0.00  0.00     0.160 C 
BRANCH  20  21
HETATM   21  C   UNK N   1      30.806  17.890   8.298  0.00  0.00    -0.041 A 
HETATM   22  C   UNK N   1      30.219  17.271   7.177  0.00  0.00     0.009 A 
HETATM   23  C   UNK N   1      28.840  17.058   7.128  0.00  0.00     0.001 A 
HETATM   24  C   UNK N   1      28.035  17.468   8.192  0.00  0.00     0.000 A 
HETATM   25  C   UNK N   1      28.612  18.079   9.311  0.00  0.00     0.001 A 
HETATM   26  C   UNK N   1      29.995  18.289   9.364  0.00  0.00     0.009 A 
ENDBRANCH  20  21
ENDBRANCH  18  20
ENDBRANCH  11  18
ENDBRANCH   4   6
BRANCH   3  27
HETATM   27  O   UNK N   1      37.914  13.732  11.300  0.00  0.00    -0.388 OA
HETATM   28  H   UNK N   1      38.038  14.254  10.492  0.00  0.00     0.210 HD
ENDBRANCH   3  27
BRANCH   2  29
HETATM   29  O   UNK N   1      37.429  10.998  12.391  0.00  0.00    -0.390 OA
HETATM   30  H   UNK N   1      37.020  10.130  12.247  0.00  0.00     0.210 HD
ENDBRANCH   2  29
BRANCH   1  31
HETATM   31  C   UNK N   1      34.587  10.899  12.706  0.00  0.00     0.215 C 
BRANCH  31  32
HETATM   32  O   UNK N   1      34.055  11.138  11.423  0.00  0.00    -0.294 OA
BRANCH  32  33
HETATM   33  P   UNK N   1      34.399   9.776  10.375  0.00  0.00     0.401 P 
HETATM   34  O   UNK N   1      35.940   9.642  10.204  0.00  0.00    -0.631 OA
BRANCH  33  35
HETATM   35  O   UNK N   1      33.832   8.277  11.042  0.00  0.00    -0.307 OA
HETATM   36  H   UNK N   1      33.282   8.276  11.841  0.00  0.00     0.222 HD
ENDBRANCH  33  35
BRANCH  33  37
HETATM   37  O   UNK N   1      33.707  10.063   8.790  0.00  0.00    -0.195 OA
BRANCH  37  38
HETATM   38  P   UNK N   1      32.456   8.867   8.529  0.00  0.00     0.399 P 
HETATM   39  O   UNK N   1      32.580   9.431   7.087  0.00  0.00    -0.631 OA
BRANCH  38  40
HETATM   40  O   UNK N   1      30.813   9.286   8.161  0.00  0.00    -0.307 OA
HETATM   41  H   UNK N   1      30.075   9.158   8.776  0.00  0.00     0.222 HD
ENDBRANCH  38  40
BRANCH  38  42
HETATM   42  O   UNK N   1      31.882  10.147   9.550  0.00  0.00    -0.307 OA
HETATM   43  H   UNK N   1      31.734  10.044  10.503  0.00  0.00     0.222 HD
ENDBRANCH  38  42
ENDBRANCH  37  38
ENDBRANCH  33  37
ENDBRANCH  32  33
ENDBRANCH  31  32
ENDBRANCH   1  31
TORSDOF 14
ENDMDL
