REMARK  28 active torsions:
REMARK  status: ('A' for Active; 'I' for Inactive)
REMARK    1  A    between atoms: C_17  and  C_10 
REMARK    2  A    between atoms: C_20  and  C_10 
REMARK    3  A    between atoms: C_27  and  C_17 
REMARK    4  A    between atoms: C_19  and  C_18 
REMARK    5  A    between atoms: C_28  and  C_18 
REMARK    6  A    between atoms: C_31  and  C_19 
REMARK    7  A    between atoms: N_42  and  C_20 
REMARK    8  A    between atoms: C_24  and  C_21 
REMARK    9  A    between atoms: C_29  and  C_21 
REMARK   10  A    between atoms: C_25  and  C_22 
REMARK   11  A    between atoms: C_30  and  C_22 
REMARK   12  A    between atoms: C_26  and  C_23 
REMARK   13  A    between atoms: O_59  and  C_23 
REMARK   14  A    between atoms: C_33  and  C_27 
REMARK   15  A    between atoms: C_27  and  N_45 
REMARK   16  A    between atoms: C_34  and  C_28 
REMARK   17  A    between atoms: C_28  and  N_43 
REMARK   18  A    between atoms: C_32  and  C_29 
REMARK   19  A    between atoms: C_29  and  N_48 
REMARK   20  A    between atoms: C_36  and  C_30 
REMARK   21  A    between atoms: C_30  and  N_46 
REMARK   22  A    between atoms: O_51  and  C_31 
REMARK   23  A    between atoms: C_35  and  C_32 
REMARK   24  A    between atoms: C_33  and  O_53 
REMARK   25  A    between atoms: C_34  and  O_54 
REMARK       I    between atoms: N_45  and  C_35 
REMARK   26  A    between atoms: O_57  and  C_36 
REMARK       I    between atoms: N_41  and  C_37 
REMARK       I    between atoms: N_42  and  C_37 
REMARK   27  A    between atoms: C_38  and  O_58 
REMARK   28  A    between atoms: O_59  and  C_38 
ROOT
HETATM    1  C   UNK N   1       7.083   3.028  -0.557  0.00  0.00     0.159 C 
ENDROOT
BRANCH   1   2
HETATM    2  C   UNK N   1       7.413   1.704  -1.264  0.00  0.00     0.035 C 
BRANCH   2   3
HETATM    3  C   UNK N   1       7.686   0.536  -0.330  0.00  0.00     0.023 C 
BRANCH   3   4
HETATM    4  C   UNK N   1       8.950   0.721   0.475  0.00  0.00     0.138 C 
BRANCH   4   5
HETATM    5  N   UNK N   1       9.279  -0.545   1.071  0.00  0.00    -0.227 N 
HETATM    6  C   UNK N   1      10.438  -1.263   0.687  0.00  0.00     0.665 C 
HETATM    7  N   UNK N   1      11.271  -0.760  -0.150  0.00  0.00    -0.235 N 
HETATM    8  N   UNK N   1      10.629  -2.579   1.156  0.00  0.00    -0.235 N 
HETATM    9  H   UNK N   1      11.925  -1.120  -0.792  0.00  0.00     0.174 HD
ATOM     10  HN  UNK N   1      11.250   0.260  -0.150  1.00  0.00     0.174 HD
HETATM   11  H   UNK N   1       9.900  -3.154   1.484  0.00  0.00     0.174 HD
HETATM   12  H   UNK N   1      11.544  -2.944   1.156  0.00  0.00     0.174 HD
HETATM   13  H   UNK N   1       8.687  -0.921   1.762  0.00  0.00     0.177 HD
ENDBRANCH   4   5
ENDBRANCH   3   4
ENDBRANCH   2   3
ENDBRANCH   1   2
BRANCH   1  14
HETATM   14  C   UNK N   1       6.464   4.032  -1.526  0.00  0.00     0.135 C 
HETATM   15  N   UNK N   1       6.362   5.307  -1.300  0.00  0.00    -0.361 N 
ATOM     16  HN  UNK N   1       5.919   5.829  -2.056  1.00  0.00     0.162 HD
BRANCH  15  17
HETATM   17  C   UNK N   1       6.764   6.134  -0.165  0.00  0.00     0.158 C 
BRANCH  17  18
HETATM   18  C   UNK N   1       8.176   5.778   0.311  0.00  0.00     0.044 C 
BRANCH  18  19
HETATM   19  C   UNK N   1       9.013   6.983   0.697  0.00  0.00     0.112 C 
BRANCH  19  20
HETATM   20  C   UNK N   1       9.945   7.289  -0.430  0.00  0.00     0.139 C 
HETATM   21  O   UNK N   1       9.880   8.365  -0.999  0.00  0.00    -0.650 OA
BRANCH  20  22
HETATM   22  O   UNK N   1      10.849   6.372  -0.827  0.00  0.00    -0.776 OA
HETATM   23  H   UNK N   1      10.611   5.509  -1.103  0.00  0.00     0.167 HD
ENDBRANCH  20  22
ENDBRANCH  19  20
ENDBRANCH  18  19
ENDBRANCH  17  18
BRANCH  17  24
HETATM   24  C   UNK N   1       5.742   6.162   0.965  0.00  0.00     0.135 C 
HETATM   25  N   UNK N   1       4.495   6.474   0.781  0.00  0.00    -0.358 N 
ATOM     26  HN  UNK N   1       3.896   6.486   1.606  1.00  0.00     0.162 HD
BRANCH  25  27
HETATM   27  C   UNK N   1       3.868   6.808  -0.491  0.00  0.00     0.181 C 
BRANCH  27  28
HETATM   28  C   UNK N   1       2.959   8.039  -0.356  0.00  0.00     0.040 C 
BRANCH  28  29
HETATM   29  C   UNK N   1       1.932   8.016   0.789  0.00  0.00    -0.012 C 
HETATM   30  C   UNK N   1       0.963   6.825   0.752  0.00  0.00     0.005 C 
HETATM   31  C   UNK N   1      -0.002   6.917  -0.430  0.00  0.00     0.000 C 
HETATM   32  C   UNK N   1      -0.784   8.223  -0.370  0.00  0.00     0.000 C 
HETATM   33  C   UNK N   1       0.175   9.410  -0.384  0.00  0.00     0.000 C 
HETATM   34  C   UNK N   1       1.137   9.325   0.805  0.00  0.00     0.005 C 
ENDBRANCH  28  29
ENDBRANCH  27  28
BRANCH  27  35
HETATM   35  C   UNK N   1       3.104   5.615  -0.991  0.00  0.00     0.163 C 
HETATM   36  O   UNK N   1       2.536   5.656  -2.070  0.00  0.00    -0.648 OA
BRANCH  35  37
HETATM   37  O   UNK N   1       3.052   4.491  -0.253  0.00  0.00    -0.775 OA
HETATM   38  H   UNK N   1       2.356   4.131   0.261  0.00  0.00     0.167 HD
ENDBRANCH  35  37
ENDBRANCH  27  35
ENDBRANCH  25  27
BRANCH  24  39
HETATM   39  O   UNK N   1       6.147   5.866   2.216  0.00  0.00    -0.348 OA
HETATM   40  H   UNK N   1       6.109   5.519   3.086  0.00  0.00     0.219 HD
ENDBRANCH  24  39
ENDBRANCH  17  24
ENDBRANCH  15  17
BRANCH  14  41
HETATM   41  O   UNK N   1       6.046   3.584  -2.727  0.00  0.00    -0.348 OA
HETATM   42  H   UNK N   1       5.631   3.680  -3.562  0.00  0.00     0.219 HD
ENDBRANCH  14  41
ENDBRANCH   1  14
BRANCH   1  43
HETATM   43  N   UNK N   1       6.256   2.832   0.625  0.00  0.00    -0.342 N 
HETATM   44  C   UNK N   1       5.026   2.245   0.727  0.00  0.00     0.290 C 
HETATM   45  O   UNK N   1       4.503   2.221   1.833  0.00  0.00    -0.264 OA
HETATM   46  H   UNK N   1       6.637   3.168   1.469  0.00  0.00     0.163 HD
BRANCH  44  47
HETATM   47  C   UNK N   1       4.276   1.625  -0.424  0.00  0.00     0.238 C 
HETATM   48  O   UNK N   1       4.779   1.546  -1.533  0.00  0.00    -0.285 OA
BRANCH  47  49
HETATM   49  C   UNK N   1       2.863   1.112  -0.256  0.00  0.00     0.166 C 
BRANCH  49  50
HETATM   50  C   UNK N   1       2.716  -0.375  -0.613  0.00  0.00     0.038 C 
BRANCH  50  51
HETATM   51  C   UNK N   1       3.851  -1.337  -0.265  0.00  0.00    -0.012 C 
HETATM   52  C   UNK N   1       4.403  -1.181   1.150  0.00  0.00     0.005 C 
HETATM   53  C   UNK N   1       5.570  -2.150   1.334  0.00  0.00     0.000 C 
HETATM   54  C   UNK N   1       5.093  -3.588   1.139  0.00  0.00     0.000 C 
HETATM   55  C   UNK N   1       4.475  -3.766  -0.246  0.00  0.00     0.000 C 
HETATM   56  C   UNK N   1       3.344  -2.764  -0.461  0.00  0.00     0.005 C 
ENDBRANCH  50  51
ENDBRANCH  49  50
BRANCH  49  57
HETATM   57  N   UNK N   1       2.035   1.862  -1.186  0.00  0.00    -0.339 N 
HETATM   58  C   UNK N   1       0.935   2.515  -0.977  0.00  0.00     0.259 C 
ATOM     59  HN  UNK N   1       2.371   1.876  -2.149  1.00  0.00     0.164 HD
BRANCH  58  60
HETATM   60  O   UNK N   1       0.431   3.246  -1.988  0.00  0.00    -0.327 OA
HETATM   61  H   UNK N   1       0.697   3.805  -2.692  0.00  0.00     0.221 HD
ENDBRANCH  58  60
BRANCH  58  62
HETATM   62  O   UNK N   1       0.266   2.519   0.210  0.00  0.00    -0.312 OA
BRANCH  62  63
HETATM   63  C   UNK N   1       0.176   1.458   1.084  0.00  0.00     0.218 C 
BRANCH  63  64
HETATM   64  C   UNK N   1      -0.755   0.419   0.551  0.00  0.00    -0.034 A 
HETATM   65  C   UNK N   1      -0.275  -0.861   0.256  0.00  0.00     0.009 A 
HETATM   66  C   UNK N   1      -1.140  -1.837  -0.245  0.00  0.00     0.001 A 
HETATM   67  C   UNK N   1      -2.490  -1.537  -0.447  0.00  0.00     0.000 A 
HETATM   68  C   UNK N   1      -2.974  -0.260  -0.149  0.00  0.00     0.001 A 
HETATM   69  C   UNK N   1      -2.108   0.719   0.349  0.00  0.00     0.009 A 
ENDBRANCH  63  64
ENDBRANCH  62  63
ENDBRANCH  58  62
ENDBRANCH  49  57
ENDBRANCH  47  49
ENDBRANCH  44  47
ENDBRANCH   1  43
TORSDOF 28
