MODEL 1
REMARK VINA RESULT:      -7.6      0.000      0.000
REMARK  8 active torsions:
REMARK  status: ('A' for Active; 'I' for Inactive)
REMARK    1  A    between atoms: C_2  and  C_4 
REMARK    2  A    between atoms: C_8  and  N_9 
REMARK    3  A    between atoms: C_10  and  N_9 
REMARK    4  A    between atoms: C_13  and  N_14 
REMARK    5  A    between atoms: C_18  and  N_19 
REMARK    6  A    between atoms: N_19  and  C_20 
REMARK    7  A    between atoms: C_23  and  S_26 
REMARK    8  A    between atoms: S_26  and  N_29 
ROOT
HETATM    1  C   UNK N   1      35.640  12.748  15.653  0.00  0.00     0.008 A 
HETATM    2  C   UNK N   1      35.412  12.466  14.320  0.00  0.00     0.138 A 
HETATM    3  N   UNK N   1      34.696  11.463  13.765  0.00  0.00    -0.327 N 
ATOM      4  HN  UNK N   1      34.228  10.771  14.351  1.00  0.00     0.169 HD
HETATM    5  C   UNK N   1      34.610  11.392  12.398  0.00  0.00     0.106 A 
HETATM    6  C   UNK N   1      35.329  12.287  11.592  0.00  0.00     0.098 A 
HETATM    7  C   UNK N   1      36.083  13.281  12.205  0.00  0.00     0.133 A 
HETATM    8  N   UNK N   1      36.048  13.366  13.572  0.00  0.00    -0.223 N 
HETATM    9  N   UNK N   1      36.628  14.262  14.352  0.00  0.00    -0.301 N 
ATOM     10  HN  UNK N   1      37.154  15.077  14.036  1.00  0.00     0.186 HD
HETATM   11  C   UNK N   1      36.406  13.913  15.642  0.00  0.00     0.119 A 
ENDROOT
BRANCH   7  12
HETATM   12  N   UNK N   1      36.921  14.124  11.422  0.00  0.00    -0.341 N 
HETATM   13  H   UNK N   1      37.891  14.142  11.589  0.00  0.00     0.167 HD
BRANCH  12  14
HETATM   14  C   UNK N   1      36.365  14.937  10.403  0.00  0.00     0.033 A 
HETATM   15  C   UNK N   1      36.307  14.481   9.082  0.00  0.00     0.031 A 
HETATM   16  C   UNK N   1      35.554  15.194   8.139  0.00  0.00     0.027 A 
HETATM   17  C   UNK N   1      34.874  16.360   8.524  0.00  0.00     0.074 A 
HETATM   18  C   UNK N   1      35.007  16.853   9.816  0.00  0.00     0.027 A 
HETATM   19  C   UNK N   1      35.763  16.159  10.740  0.00  0.00     0.031 A 
BRANCH  17  20
HETATM   20  S   UNK N   1      33.683  17.132   7.453  0.00  0.00     0.242 S 
HETATM   21  O   UNK N   1      32.951  18.237   8.237  0.00  0.00    -0.206 OA
HETATM   22  O   UNK N   1      34.277  17.916   6.273  0.00  0.00    -0.206 OA
BRANCH  20  23
HETATM   23  N   UNK N   1      32.386  16.082   6.833  0.00  0.00    -0.215 NA
HETATM   24  C   UNK N   1      31.270  16.910   6.414  0.00  0.00     0.129 C 
HETATM   25  C   UNK N   1      31.908  15.201   7.886  0.00  0.00     0.129 C 
ENDBRANCH  20  23
ENDBRANCH  17  20
ENDBRANCH  12  14
ENDBRANCH   7  12
BRANCH   5  26
HETATM   26  N   UNK N   1      33.705  10.505  11.774  0.00  0.00    -0.371 N 
HETATM   27  H   UNK N   1      32.944  10.162  12.297  0.00  0.00     0.161 HD
BRANCH  26  28
HETATM   28  C   UNK N   1      33.850  10.077  10.390  0.00  0.00     0.083 C 
HETATM   29  C   UNK N   1      32.531   9.778   9.652  0.00  0.00     0.027 C 
HETATM   30  C   UNK N   1      31.871   8.492  10.163  0.00  0.00     0.026 C 
HETATM   31  C   UNK N   1      32.832   7.305  10.223  0.00  0.00     0.074 C 
HETATM   32  C   UNK N   1      34.151   7.662  10.912  0.00  0.00     0.026 C 
HETATM   33  C   UNK N   1      34.792   8.892  10.279  0.00  0.00     0.027 C 
BRANCH  31  34
HETATM   34  N   UNK N   1      33.072   6.788   8.889  0.00  0.00    -0.426 N 
HETATM   35  H   UNK N   1      32.818   5.892   8.472  0.00  0.00     0.150 HD
HETATM   36  H   UNK N   1      33.574   7.422   8.268  0.00  0.00     0.150 HD
ENDBRANCH  31  34
ENDBRANCH  26  28
ENDBRANCH   5  26
BRANCH   1  37
HETATM   37  C   UNK N   1      35.229  11.952  16.861  0.00  0.00     0.016 C 
HETATM   38  C   UNK N   1      36.127  10.745  17.087  0.00  0.00     0.015 C 
HETATM   39  C   UNK N   1      35.206  12.795  18.114  0.00  0.00     0.015 C 
ENDBRANCH   1  37
TORSDOF 8
ENDMDL
MODEL 2
REMARK VINA RESULT:      -7.5      8.779     11.893
REMARK  8 active torsions:
REMARK  status: ('A' for Active; 'I' for Inactive)
REMARK    1  A    between atoms: C_2  and  C_4 
REMARK    2  A    between atoms: C_8  and  N_9 
REMARK    3  A    between atoms: C_10  and  N_9 
REMARK    4  A    between atoms: C_13  and  N_14 
REMARK    5  A    between atoms: C_18  and  N_19 
REMARK    6  A    between atoms: N_19  and  C_20 
REMARK    7  A    between atoms: C_23  and  S_26 
REMARK    8  A    between atoms: S_26  and  N_29 
ROOT
HETATM    1  C   UNK N   1      28.540  18.837   8.025  0.00  0.00     0.008 A 
HETATM    2  C   UNK N   1      28.738  18.330   6.756  0.00  0.00     0.138 A 
HETATM    3  N   UNK N   1      29.574  17.351   6.342  0.00  0.00    -0.327 N 
ATOM      4  HN  UNK N   1      30.182  16.871   7.007  1.00  0.00     0.169 HD
HETATM    5  C   UNK N   1      29.591  17.014   5.014  0.00  0.00     0.106 A 
HETATM    6  C   UNK N   1      28.823  17.737   4.087  0.00  0.00     0.098 A 
HETATM    7  C   UNK N   1      28.005  18.760   4.550  0.00  0.00     0.133 A 
HETATM    8  N   UNK N   1      27.953  18.983   5.901  0.00  0.00    -0.223 N 
HETATM    9  N   UNK N   1      27.202  19.849   6.560  0.00  0.00    -0.301 N 
ATOM     10  HN  UNK N   1      26.492  20.455   6.151  1.00  0.00     0.186 HD
HETATM   11  C   UNK N   1      27.539  19.795   7.871  0.00  0.00     0.119 A 
ENDROOT
BRANCH   7  12
HETATM   12  N   UNK N   1      27.312  19.592   3.626  0.00  0.00    -0.341 N 
HETATM   13  H   UNK N   1      27.806  20.275   3.116  0.00  0.00     0.167 HD
BRANCH  12  14
HETATM   14  C   UNK N   1      25.916  19.441   3.436  0.00  0.00     0.033 A 
HETATM   15  C   UNK N   1      25.256  18.295   3.891  0.00  0.00     0.031 A 
HETATM   16  C   UNK N   1      23.855  18.264   3.901  0.00  0.00     0.027 A 
HETATM   17  C   UNK N   1      23.128  19.376   3.447  0.00  0.00     0.074 A 
HETATM   18  C   UNK N   1      23.790  20.475   2.916  0.00  0.00     0.027 A 
HETATM   19  C   UNK N   1      25.171  20.498   2.891  0.00  0.00     0.031 A 
BRANCH  17  20
HETATM   20  S   UNK N   1      21.374  19.501   3.706  0.00  0.00     0.242 S 
HETATM   21  O   UNK N   1      21.084  19.405   5.215  0.00  0.00    -0.206 OA
HETATM   22  O   UNK N   1      20.755  20.860   3.348  0.00  0.00    -0.206 OA
BRANCH  20  23
HETATM   23  N   UNK N   1      20.378  18.220   2.972  0.00  0.00    -0.215 NA
HETATM   24  C   UNK N   1      19.083  18.775   2.621  0.00  0.00     0.129 C 
HETATM   25  C   UNK N   1      20.151  17.150   3.930  0.00  0.00     0.129 C 
ENDBRANCH  20  23
ENDBRANCH  17  20
ENDBRANCH  12  14
ENDBRANCH   7  12
BRANCH   5  26
HETATM   26  N   UNK N   1      30.275  15.863   4.566  0.00  0.00    -0.371 N 
HETATM   27  H   UNK N   1      29.850  15.297   3.882  0.00  0.00     0.161 HD
BRANCH  26  28
HETATM   28  C   UNK N   1      31.585  15.479   5.074  0.00  0.00     0.083 C 
HETATM   29  C   UNK N   1      32.756  16.368   4.613  0.00  0.00     0.027 C 
HETATM   30  C   UNK N   1      33.077  16.161   3.128  0.00  0.00     0.026 C 
HETATM   31  C   UNK N   1      33.226  14.690   2.742  0.00  0.00     0.074 C 
HETATM   32  C   UNK N   1      32.071  13.834   3.269  0.00  0.00     0.026 C 
HETATM   33  C   UNK N   1      31.883  14.021   4.770  0.00  0.00     0.027 C 
BRANCH  31  34
HETATM   34  N   UNK N   1      34.500  14.177   3.207  0.00  0.00    -0.426 N 
HETATM   35  H   UNK N   1      35.066  14.445   4.012  0.00  0.00     0.150 HD
HETATM   36  H   UNK N   1      34.894  13.426   2.639  0.00  0.00     0.150 HD
ENDBRANCH  31  34
ENDBRANCH  26  28
ENDBRANCH   5  26
BRANCH   1  37
HETATM   37  C   UNK N   1      29.278  18.500   9.292  0.00  0.00     0.016 C 
HETATM   38  C   UNK N   1      28.789  17.202   9.915  0.00  0.00     0.015 C 
HETATM   39  C   UNK N   1      30.771  18.413   9.071  0.00  0.00     0.015 C 
ENDBRANCH   1  37
TORSDOF 8
ENDMDL
MODEL 3
REMARK VINA RESULT:      -7.3      8.828     11.920
REMARK  8 active torsions:
REMARK  status: ('A' for Active; 'I' for Inactive)
REMARK    1  A    between atoms: C_2  and  C_4 
REMARK    2  A    between atoms: C_8  and  N_9 
REMARK    3  A    between atoms: C_10  and  N_9 
REMARK    4  A    between atoms: C_13  and  N_14 
REMARK    5  A    between atoms: C_18  and  N_19 
REMARK    6  A    between atoms: N_19  and  C_20 
REMARK    7  A    between atoms: C_23  and  S_26 
REMARK    8  A    between atoms: S_26  and  N_29 
ROOT
HETATM    1  C   UNK N   1      29.124  18.105   7.702  0.00  0.00     0.008 A 
HETATM    2  C   UNK N   1      29.080  17.733   6.373  0.00  0.00     0.138 A 
HETATM    3  N   UNK N   1      29.746  16.745   5.735  0.00  0.00    -0.327 N 
ATOM      4  HN  UNK N   1      30.398  16.145   6.243  1.00  0.00     0.169 HD
HETATM    5  C   UNK N   1      29.532  16.563   4.393  0.00  0.00     0.106 A 
HETATM    6  C   UNK N   1      28.709  17.446   3.678  0.00  0.00     0.098 A 
HETATM    7  C   UNK N   1      28.071  18.471   4.367  0.00  0.00     0.133 A 
HETATM    8  N   UNK N   1      28.243  18.540   5.724  0.00  0.00    -0.223 N 
HETATM    9  N   UNK N   1      27.686  19.383   6.577  0.00  0.00    -0.301 N 
ATOM     10  HN  UNK N   1      26.985  20.086   6.350  1.00  0.00     0.186 HD
HETATM   11  C   UNK N   1      28.208  19.151   7.806  0.00  0.00     0.119 A 
ENDROOT
BRANCH   7  12
HETATM   12  N   UNK N   1      27.332  19.456   3.652  0.00  0.00    -0.341 N 
HETATM   13  H   UNK N   1      27.795  20.238   3.275  0.00  0.00     0.167 HD
BRANCH  12  14
HETATM   14  C   UNK N   1      25.932  19.314   3.482  0.00  0.00     0.033 A 
HETATM   15  C   UNK N   1      25.275  18.160   3.921  0.00  0.00     0.031 A 
HETATM   16  C   UNK N   1      23.874  18.133   3.953  0.00  0.00     0.027 A 
HETATM   17  C   UNK N   1      23.145  19.258   3.537  0.00  0.00     0.074 A 
HETATM   18  C   UNK N   1      23.802  20.367   3.022  0.00  0.00     0.027 A 
HETATM   19  C   UNK N   1      25.182  20.386   2.974  0.00  0.00     0.031 A 
BRANCH  17  20
HETATM   20  S   UNK N   1      21.395  19.383   3.828  0.00  0.00     0.242 S 
HETATM   21  O   UNK N   1      21.135  19.312   5.344  0.00  0.00    -0.206 OA
HETATM   22  O   UNK N   1      20.766  20.735   3.459  0.00  0.00    -0.206 OA
BRANCH  20  23
HETATM   23  N   UNK N   1      20.389  18.088   3.135  0.00  0.00    -0.215 NA
HETATM   24  C   UNK N   1      19.171  18.673   2.604  0.00  0.00     0.129 C 
HETATM   25  C   UNK N   1      20.006  17.142   4.170  0.00  0.00     0.129 C 
ENDBRANCH  20  23
ENDBRANCH  17  20
ENDBRANCH  12  14
ENDBRANCH   7  12
BRANCH   5  26
HETATM   26  N   UNK N   1      30.028  15.419   3.729  0.00  0.00    -0.371 N 
HETATM   27  H   UNK N   1      30.758  15.531   3.078  0.00  0.00     0.161 HD
BRANCH  26  28
HETATM   28  C   UNK N   1      29.504  14.081   3.967  0.00  0.00     0.083 C 
HETATM   29  C   UNK N   1      30.427  12.927   3.533  0.00  0.00     0.027 C 
HETATM   30  C   UNK N   1      30.514  12.810   2.007  0.00  0.00     0.026 C 
HETATM   31  C   UNK N   1      29.146  12.802   1.324  0.00  0.00     0.074 C 
HETATM   32  C   UNK N   1      28.242  13.930   1.827  0.00  0.00     0.026 C 
HETATM   33  C   UNK N   1      28.129  13.914   3.347  0.00  0.00     0.027 C 
BRANCH  31  34
HETATM   34  N   UNK N   1      28.506  11.512   1.501  0.00  0.00    -0.426 N 
HETATM   35  H   UNK N   1      27.718  11.241   2.088  0.00  0.00     0.150 HD
HETATM   36  H   UNK N   1      28.909  10.755   0.949  0.00  0.00     0.150 HD
ENDBRANCH  31  34
ENDBRANCH  26  28
ENDBRANCH   5  26
BRANCH   1  37
HETATM   37  C   UNK N   1      30.007  17.568   8.795  0.00  0.00     0.016 C 
HETATM   38  C   UNK N   1      31.466  17.952   8.595  0.00  0.00     0.015 C 
HETATM   39  C   UNK N   1      29.556  18.026  10.163  0.00  0.00     0.015 C 
ENDBRANCH   1  37
TORSDOF 8
ENDMDL
MODEL 4
REMARK VINA RESULT:      -7.1      1.223      1.899
REMARK  8 active torsions:
REMARK  status: ('A' for Active; 'I' for Inactive)
REMARK    1  A    between atoms: C_2  and  C_4 
REMARK    2  A    between atoms: C_8  and  N_9 
REMARK    3  A    between atoms: C_10  and  N_9 
REMARK    4  A    between atoms: C_13  and  N_14 
REMARK    5  A    between atoms: C_18  and  N_19 
REMARK    6  A    between atoms: N_19  and  C_20 
REMARK    7  A    between atoms: C_23  and  S_26 
REMARK    8  A    between atoms: S_26  and  N_29 
ROOT
HETATM    1  C   UNK N   1      35.925  12.074  15.833  0.00  0.00     0.008 A 
HETATM    2  C   UNK N   1      36.094  11.753  14.501  0.00  0.00     0.138 A 
HETATM    3  N   UNK N   1      36.057  10.544  13.896  0.00  0.00    -0.327 N 
ATOM      4  HN  UNK N   1      35.887   9.697  14.439  1.00  0.00     0.169 HD
HETATM    5  C   UNK N   1      36.252  10.477  12.541  0.00  0.00     0.106 A 
HETATM    6  C   UNK N   1      36.577  11.631  11.811  0.00  0.00     0.098 A 
HETATM    7  C   UNK N   1      36.641  12.848  12.479  0.00  0.00     0.133 A 
HETATM    8  N   UNK N   1      36.336  12.868  13.814  0.00  0.00    -0.223 N 
HETATM    9  N   UNK N   1      36.269  13.912  14.623  0.00  0.00    -0.301 N 
ATOM     10  HN  UNK N   1      36.383  14.887  14.350  1.00  0.00     0.186 HD
HETATM   11  C   UNK N   1      36.025  13.464  15.878  0.00  0.00     0.119 A 
ENDROOT
BRANCH   7  12
HETATM   12  N   UNK N   1      37.091  14.013  11.794  0.00  0.00    -0.341 N 
HETATM   13  H   UNK N   1      38.013  14.331  11.923  0.00  0.00     0.167 HD
BRANCH  12  14
HETATM   14  C   UNK N   1      36.215  14.715  10.928  0.00  0.00     0.033 A 
HETATM   15  C   UNK N   1      35.795  16.011  11.240  0.00  0.00     0.031 A 
HETATM   16  C   UNK N   1      35.122  16.770  10.272  0.00  0.00     0.027 A 
HETATM   17  C   UNK N   1      34.868  16.219   9.005  0.00  0.00     0.074 A 
HETATM   18  C   UNK N   1      35.212  14.902   8.733  0.00  0.00     0.027 A 
HETATM   19  C   UNK N   1      35.860  14.150   9.693  0.00  0.00     0.031 A 
BRANCH  17  20
HETATM   20  S   UNK N   1      34.284  17.226   7.661  0.00  0.00     0.242 S 
HETATM   21  O   UNK N   1      34.831  18.655   7.834  0.00  0.00    -0.206 OA
HETATM   22  O   UNK N   1      34.824  16.842   6.275  0.00  0.00    -0.206 OA
BRANCH  20  23
HETATM   23  N   UNK N   1      32.520  17.429   7.540  0.00  0.00    -0.215 NA
HETATM   24  C   UNK N   1      31.877  16.532   8.483  0.00  0.00     0.129 C 
HETATM   25  C   UNK N   1      32.063  17.066   6.208  0.00  0.00     0.129 C 
ENDBRANCH  20  23
ENDBRANCH  17  20
ENDBRANCH  12  14
ENDBRANCH   7  12
BRANCH   5  26
HETATM   26  N   UNK N   1      36.008   9.280  11.832  0.00  0.00    -0.371 N 
HETATM   27  H   UNK N   1      36.747   8.873  11.325  0.00  0.00     0.161 HD
BRANCH  26  28
HETATM   28  C   UNK N   1      34.708   8.624  11.820  0.00  0.00     0.083 C 
HETATM   29  C   UNK N   1      34.636   7.322  10.999  0.00  0.00     0.027 C 
HETATM   30  C   UNK N   1      34.708   7.593   9.493  0.00  0.00     0.026 C 
HETATM   31  C   UNK N   1      33.732   8.674   9.027  0.00  0.00     0.074 C 
HETATM   32  C   UNK N   1      33.796   9.927   9.905  0.00  0.00     0.026 C 
HETATM   33  C   UNK N   1      33.616   9.582  11.379  0.00  0.00     0.027 C 
BRANCH  31  34
HETATM   34  N   UNK N   1      32.383   8.145   8.984  0.00  0.00    -0.426 N 
HETATM   35  H   UNK N   1      31.692   8.034   9.726  0.00  0.00     0.150 HD
HETATM   36  H   UNK N   1      32.073   7.834   8.063  0.00  0.00     0.150 HD
ENDBRANCH  31  34
ENDBRANCH  26  28
ENDBRANCH   5  26
BRANCH   1  37
HETATM   37  C   UNK N   1      35.747  11.145  17.003  0.00  0.00     0.016 C 
HETATM   38  C   UNK N   1      35.384  11.890  18.279  0.00  0.00     0.015 C 
HETATM   39  C   UNK N   1      34.703  10.087  16.732  0.00  0.00     0.015 C 
ENDBRANCH   1  37
TORSDOF 8
ENDMDL
MODEL 5
REMARK VINA RESULT:      -7.1      4.101      9.576
REMARK  8 active torsions:
REMARK  status: ('A' for Active; 'I' for Inactive)
REMARK    1  A    between atoms: C_2  and  C_4 
REMARK    2  A    between atoms: C_8  and  N_9 
REMARK    3  A    between atoms: C_10  and  N_9 
REMARK    4  A    between atoms: C_13  and  N_14 
REMARK    5  A    between atoms: C_18  and  N_19 
REMARK    6  A    between atoms: N_19  and  C_20 
REMARK    7  A    between atoms: C_23  and  S_26 
REMARK    8  A    between atoms: S_26  and  N_29 
ROOT
HETATM    1  C   UNK N   1      33.584  15.565   4.694  0.00  0.00     0.008 A 
HETATM    2  C   UNK N   1      33.177  16.170   5.867  0.00  0.00     0.138 A 
HETATM    3  N   UNK N   1      32.054  16.877   6.124  0.00  0.00    -0.327 N 
ATOM      4  HN  UNK N   1      31.359  17.033   5.393  1.00  0.00     0.169 HD
HETATM    5  C   UNK N   1      31.866  17.383   7.384  0.00  0.00     0.106 A 
HETATM    6  C   UNK N   1      32.864  17.249   8.361  0.00  0.00     0.098 A 
HETATM    7  C   UNK N   1      34.019  16.544   8.043  0.00  0.00     0.133 A 
HETATM    8  N   UNK N   1      34.106  15.974   6.801  0.00  0.00    -0.223 N 
HETATM    9  N   UNK N   1      35.073  15.215   6.314  0.00  0.00    -0.301 N 
ATOM     10  HN  UNK N   1      35.890  14.888   6.828  1.00  0.00     0.186 HD
HETATM   11  C   UNK N   1      34.792  14.947   5.016  0.00  0.00     0.119 A 
ENDROOT
BRANCH   7  12
HETATM   12  N   UNK N   1      35.101  16.498   8.968  0.00  0.00    -0.341 N 
HETATM   13  H   UNK N   1      35.917  17.021   8.794  0.00  0.00     0.167 HD
BRANCH  12  14
HETATM   14  C   UNK N   1      35.008  15.703  10.137  0.00  0.00     0.033 A 
HETATM   15  C   UNK N   1      34.441  14.426  10.086  0.00  0.00     0.031 A 
HETATM   16  C   UNK N   1      34.563  13.571  11.190  0.00  0.00     0.027 A 
HETATM   17  C   UNK N   1      35.244  14.007  12.338  0.00  0.00     0.074 A 
HETATM   18  C   UNK N   1      35.728  15.306  12.414  0.00  0.00     0.027 A 
HETATM   19  C   UNK N   1      35.592  16.153  11.331  0.00  0.00     0.031 A 
BRANCH  17  20
HETATM   20  S   UNK N   1      35.676  12.876  13.641  0.00  0.00     0.242 S 
HETATM   21  O   UNK N   1      35.987  11.500  13.023  0.00  0.00    -0.206 OA
HETATM   22  O   UNK N   1      36.983  13.198  14.379  0.00  0.00    -0.206 OA
BRANCH  20  23
HETATM   23  N   UNK N   1      34.412  12.553  14.852  0.00  0.00    -0.215 NA
HETATM   24  C   UNK N   1      34.855  13.056  16.140  0.00  0.00     0.129 C 
HETATM   25  C   UNK N   1      34.202  11.121  14.989  0.00  0.00     0.129 C 
ENDBRANCH  20  23
ENDBRANCH  17  20
ENDBRANCH  12  14
ENDBRANCH   7  12
BRANCH   5  26
HETATM   26  N   UNK N   1      30.623  17.936   7.765  0.00  0.00    -0.371 N 
HETATM   27  H   UNK N   1      30.616  18.797   8.242  0.00  0.00     0.161 HD
BRANCH  26  28
HETATM   28  C   UNK N   1      29.352  17.285   7.481  0.00  0.00     0.083 C 
HETATM   29  C   UNK N   1      29.067  17.020   5.990  0.00  0.00     0.027 C 
HETATM   30  C   UNK N   1      28.774  18.317   5.227  0.00  0.00     0.026 C 
HETATM   31  C   UNK N   1      27.727  19.196   5.912  0.00  0.00     0.074 C 
HETATM   32  C   UNK N   1      28.017  19.385   7.403  0.00  0.00     0.026 C 
HETATM   33  C   UNK N   1      28.196  18.045   8.107  0.00  0.00     0.027 C 
BRANCH  31  34
HETATM   34  N   UNK N   1      26.401  18.642   5.712  0.00  0.00    -0.426 N 
HETATM   35  H   UNK N   1      26.096  17.674   5.618  0.00  0.00     0.150 HD
HETATM   36  H   UNK N   1      25.652  19.333   5.657  0.00  0.00     0.150 HD
ENDBRANCH  31  34
ENDBRANCH  26  28
ENDBRANCH   5  26
BRANCH   1  37
HETATM   37  C   UNK N   1      32.928  15.611   3.341  0.00  0.00     0.016 C 
HETATM   38  C   UNK N   1      31.732  14.675   3.251  0.00  0.00     0.015 C 
HETATM   39  C   UNK N   1      32.493  17.010   2.971  0.00  0.00     0.015 C 
ENDBRANCH   1  37
TORSDOF 8
ENDMDL
MODEL 6
REMARK VINA RESULT:      -7.0      4.063      9.251
REMARK  8 active torsions:
REMARK  status: ('A' for Active; 'I' for Inactive)
REMARK    1  A    between atoms: C_2  and  C_4 
REMARK    2  A    between atoms: C_8  and  N_9 
REMARK    3  A    between atoms: C_10  and  N_9 
REMARK    4  A    between atoms: C_13  and  N_14 
REMARK    5  A    between atoms: C_18  and  N_19 
REMARK    6  A    between atoms: N_19  and  C_20 
REMARK    7  A    between atoms: C_23  and  S_26 
REMARK    8  A    between atoms: S_26  and  N_29 
ROOT
HETATM    1  C   UNK N   1      34.321  14.673   4.534  0.00  0.00     0.008 A 
HETATM    2  C   UNK N   1      33.873  15.032   5.791  0.00  0.00     0.138 A 
HETATM    3  N   UNK N   1      32.716  15.629   6.153  0.00  0.00    -0.327 N 
ATOM      4  HN  UNK N   1      32.022  15.887   5.450  1.00  0.00     0.169 HD
HETATM    5  C   UNK N   1      32.491  15.883   7.481  0.00  0.00     0.106 A 
HETATM    6  C   UNK N   1      33.484  15.614   8.435  0.00  0.00     0.098 A 
HETATM    7  C   UNK N   1      34.674  15.033   8.015  0.00  0.00     0.133 A 
HETATM    8  N   UNK N   1      34.801  14.707   6.690  0.00  0.00    -0.223 N 
HETATM    9  N   UNK N   1      35.807  14.095   6.090  0.00  0.00    -0.301 N 
ATOM     10  HN  UNK N   1      36.634  13.714   6.549  1.00  0.00     0.186 HD
HETATM   11  C   UNK N   1      35.553  14.060   4.760  0.00  0.00     0.119 A 
ENDROOT
BRANCH   7  12
HETATM   12  N   UNK N   1      35.747  14.863   8.935  0.00  0.00    -0.341 N 
HETATM   13  H   UNK N   1      36.663  15.109   8.670  0.00  0.00     0.167 HD
BRANCH  12  14
HETATM   14  C   UNK N   1      35.502  14.342  10.230  0.00  0.00     0.033 A 
HETATM   15  C   UNK N   1      35.194  12.990  10.406  0.00  0.00     0.031 A 
HETATM   16  C   UNK N   1      35.181  12.448  11.699  0.00  0.00     0.027 A 
HETATM   17  C   UNK N   1      35.468  13.266  12.802  0.00  0.00     0.074 A 
HETATM   18  C   UNK N   1      35.687  14.626  12.626  0.00  0.00     0.027 A 
HETATM   19  C   UNK N   1      35.683  15.163  11.354  0.00  0.00     0.031 A 
BRANCH  17  20
HETATM   20  S   UNK N   1      35.748  12.576  14.417  0.00  0.00     0.242 S 
HETATM   21  O   UNK N   1      37.259  12.595  14.712  0.00  0.00    -0.206 OA
HETATM   22  O   UNK N   1      35.184  13.398  15.586  0.00  0.00    -0.206 OA
BRANCH  20  23
HETATM   23  N   UNK N   1      35.264  10.877  14.640  0.00  0.00    -0.215 NA
HETATM   24  C   UNK N   1      33.820  10.812  14.764  0.00  0.00     0.129 C 
HETATM   25  C   UNK N   1      35.834  10.351  15.869  0.00  0.00     0.129 C 
ENDBRANCH  20  23
ENDBRANCH  17  20
ENDBRANCH  12  14
ENDBRANCH   7  12
BRANCH   5  26
HETATM   26  N   UNK N   1      31.219  16.300   7.934  0.00  0.00    -0.371 N 
HETATM   27  H   UNK N   1      30.657  15.656   8.421  0.00  0.00     0.161 HD
BRANCH  26  28
HETATM   28  C   UNK N   1      30.707  17.645   7.711  0.00  0.00     0.083 C 
HETATM   29  C   UNK N   1      30.498  18.488   8.984  0.00  0.00     0.027 C 
HETATM   30  C   UNK N   1      29.312  17.984   9.813  0.00  0.00     0.026 C 
HETATM   31  C   UNK N   1      28.041  17.783   8.987  0.00  0.00     0.074 C 
HETATM   32  C   UNK N   1      28.305  16.990   7.704  0.00  0.00     0.026 C 
HETATM   33  C   UNK N   1      29.431  17.615   6.889  0.00  0.00     0.027 C 
BRANCH  31  34
HETATM   34  N   UNK N   1      27.433  19.064   8.684  0.00  0.00    -0.426 N 
HETATM   35  H   UNK N   1      26.772  19.326   7.952  0.00  0.00     0.150 HD
HETATM   36  H   UNK N   1      27.709  19.827   9.303  0.00  0.00     0.150 HD
ENDBRANCH  31  34
ENDBRANCH  26  28
ENDBRANCH   5  26
BRANCH   1  37
HETATM   37  C   UNK N   1      33.678  14.941   3.201  0.00  0.00     0.016 C 
HETATM   38  C   UNK N   1      32.508  14.007   2.930  0.00  0.00     0.015 C 
HETATM   39  C   UNK N   1      33.209  16.372   3.075  0.00  0.00     0.015 C 
ENDBRANCH   1  37
TORSDOF 8
ENDMDL
MODEL 7
REMARK VINA RESULT:      -7.0      6.325     11.338
REMARK  8 active torsions:
REMARK  status: ('A' for Active; 'I' for Inactive)
REMARK    1  A    between atoms: C_2  and  C_4 
REMARK    2  A    between atoms: C_8  and  N_9 
REMARK    3  A    between atoms: C_10  and  N_9 
REMARK    4  A    between atoms: C_13  and  N_14 
REMARK    5  A    between atoms: C_18  and  N_19 
REMARK    6  A    between atoms: N_19  and  C_20 
REMARK    7  A    between atoms: C_23  and  S_26 
REMARK    8  A    between atoms: S_26  and  N_29 
ROOT
HETATM    1  C   UNK N   1      25.703  14.336   2.565  0.00  0.00     0.008 A 
HETATM    2  C   UNK N   1      25.714  14.727   3.889  0.00  0.00     0.138 A 
HETATM    3  N   UNK N   1      24.908  14.345   4.905  0.00  0.00    -0.327 N 
ATOM      4  HN  UNK N   1      24.156  13.674   4.747  1.00  0.00     0.169 HD
HETATM    5  C   UNK N   1      25.119  14.875   6.151  0.00  0.00     0.106 A 
HETATM    6  C   UNK N   1      26.094  15.866   6.348  0.00  0.00     0.098 A 
HETATM    7  C   UNK N   1      26.877  16.256   5.267  0.00  0.00     0.133 A 
HETATM    8  N   UNK N   1      26.688  15.617   4.070  0.00  0.00    -0.223 N 
HETATM    9  N   UNK N   1      27.358  15.780   2.942  0.00  0.00    -0.301 N 
ATOM     10  HN  UNK N   1      28.171  16.381   2.811  1.00  0.00     0.186 HD
HETATM   11  C   UNK N   1      26.777  15.013   1.988  0.00  0.00     0.119 A 
ENDROOT
BRANCH   7  12
HETATM   12  N   UNK N   1      27.785  17.345   5.403  0.00  0.00    -0.341 N 
HETATM   13  H   UNK N   1      27.517  18.245   5.108  0.00  0.00     0.167 HD
BRANCH  12  14
HETATM   14  C   UNK N   1      29.071  17.136   5.961  0.00  0.00     0.033 A 
HETATM   15  C   UNK N   1      30.119  16.655   5.171  0.00  0.00     0.031 A 
HETATM   16  C   UNK N   1      31.427  16.673   5.675  0.00  0.00     0.027 A 
HETATM   17  C   UNK N   1      31.671  17.164   6.967  0.00  0.00     0.074 A 
HETATM   18  C   UNK N   1      30.614  17.559   7.777  0.00  0.00     0.027 A 
HETATM   19  C   UNK N   1      29.324  17.525   7.285  0.00  0.00     0.031 A 
BRANCH  17  20
HETATM   20  S   UNK N   1      33.325  17.476   7.540  0.00  0.00     0.242 S 
HETATM   21  O   UNK N   1      34.218  17.805   6.329  0.00  0.00    -0.206 OA
HETATM   22  O   UNK N   1      33.490  18.732   8.409  0.00  0.00    -0.206 OA
BRANCH  20  23
HETATM   23  N   UNK N   1      34.145  16.120   8.352  0.00  0.00    -0.215 NA
HETATM   24  C   UNK N   1      33.147  15.158   8.784  0.00  0.00     0.129 C 
HETATM   25  C   UNK N   1      34.842  16.592   9.537  0.00  0.00     0.129 C 
ENDBRANCH  20  23
ENDBRANCH  17  20
ENDBRANCH  12  14
ENDBRANCH   7  12
BRANCH   5  26
HETATM   26  N   UNK N   1      24.456  14.352   7.284  0.00  0.00    -0.371 N 
HETATM   27  H   UNK N   1      23.691  14.848   7.654  0.00  0.00     0.161 HD
BRANCH  26  28
HETATM   28  C   UNK N   1      24.858  13.108   7.926  0.00  0.00     0.083 C 
HETATM   29  C   UNK N   1      24.096  11.852   7.461  0.00  0.00     0.027 C 
HETATM   30  C   UNK N   1      22.647  11.847   7.961  0.00  0.00     0.026 C 
HETATM   31  C   UNK N   1      22.525  12.127   9.459  0.00  0.00     0.074 C 
HETATM   32  C   UNK N   1      23.343  13.348   9.887  0.00  0.00     0.026 C 
HETATM   33  C   UNK N   1      24.795  13.228   9.438  0.00  0.00     0.027 C 
BRANCH  31  34
HETATM   34  N   UNK N   1      22.913  10.955  10.220  0.00  0.00    -0.426 N 
HETATM   35  H   UNK N   1      22.448  10.490  11.000  0.00  0.00     0.150 HD
HETATM   36  H   UNK N   1      23.792  10.526   9.929  0.00  0.00     0.150 HD
ENDBRANCH  31  34
ENDBRANCH  26  28
ENDBRANCH   5  26
BRANCH   1  37
HETATM   37  C   UNK N   1      24.719  13.441   1.862  0.00  0.00     0.016 C 
HETATM   38  C   UNK N   1      24.025  14.147   0.707  0.00  0.00     0.015 C 
HETATM   39  C   UNK N   1      25.369  12.175   1.353  0.00  0.00     0.015 C 
ENDBRANCH   1  37
TORSDOF 8
ENDMDL
MODEL 8
REMARK VINA RESULT:      -6.9      2.845      5.099
REMARK  8 active torsions:
REMARK  status: ('A' for Active; 'I' for Inactive)
REMARK    1  A    between atoms: C_2  and  C_4 
REMARK    2  A    between atoms: C_8  and  N_9 
REMARK    3  A    between atoms: C_10  and  N_9 
REMARK    4  A    between atoms: C_13  and  N_14 
REMARK    5  A    between atoms: C_18  and  N_19 
REMARK    6  A    between atoms: N_19  and  C_20 
REMARK    7  A    between atoms: C_23  and  S_26 
REMARK    8  A    between atoms: S_26  and  N_29 
ROOT
HETATM    1  C   UNK N   1      37.932  11.821  10.638  0.00  0.00     0.008 A 
HETATM    2  C   UNK N   1      37.325  12.431  11.718  0.00  0.00     0.138 A 
HETATM    3  N   UNK N   1      37.080  11.943  12.954  0.00  0.00    -0.327 N 
ATOM      4  HN  UNK N   1      37.350  10.990  13.200  1.00  0.00     0.169 HD
HETATM    5  C   UNK N   1      36.460  12.750  13.872  0.00  0.00     0.106 A 
HETATM    6  C   UNK N   1      36.005  14.026  13.505  0.00  0.00     0.098 A 
HETATM    7  C   UNK N   1      36.246  14.475  12.213  0.00  0.00     0.133 A 
HETATM    8  N   UNK N   1      36.961  13.664  11.371  0.00  0.00    -0.223 N 
HETATM    9  N   UNK N   1      37.357  13.914  10.135  0.00  0.00    -0.301 N 
ATOM     10  HN  UNK N   1      37.235  14.794   9.635  1.00  0.00     0.186 HD
HETATM   11  C   UNK N   1      37.955  12.801   9.645  0.00  0.00     0.119 A 
ENDROOT
BRANCH   7  12
HETATM   12  N   UNK N   1      35.690  15.710  11.772  0.00  0.00    -0.341 N 
HETATM   13  H   UNK N   1      35.905  16.543  12.251  0.00  0.00     0.167 HD
BRANCH  12  14
HETATM   14  C   UNK N   1      34.829  15.744  10.647  0.00  0.00     0.033 A 
HETATM   15  C   UNK N   1      33.836  14.774  10.481  0.00  0.00     0.031 A 
HETATM   16  C   UNK N   1      32.855  14.951   9.496  0.00  0.00     0.027 A 
HETATM   17  C   UNK N   1      32.883  16.093   8.680  0.00  0.00     0.074 A 
HETATM   18  C   UNK N   1      33.922  17.008   8.792  0.00  0.00     0.027 A 
HETATM   19  C   UNK N   1      34.897  16.823   9.752  0.00  0.00     0.031 A 
BRANCH  17  20
HETATM   20  S   UNK N   1      31.515  16.507   7.622  0.00  0.00     0.242 S 
HETATM   21  O   UNK N   1      31.975  17.568   6.605  0.00  0.00    -0.206 OA
HETATM   22  O   UNK N   1      31.031  15.374   6.705  0.00  0.00    -0.206 OA
BRANCH  20  23
HETATM   23  N   UNK N   1      30.097  17.229   8.419  0.00  0.00    -0.215 NA
HETATM   24  C   UNK N   1      29.084  17.507   7.417  0.00  0.00     0.129 C 
HETATM   25  C   UNK N   1      30.459  18.494   9.039  0.00  0.00     0.129 C 
ENDBRANCH  20  23
ENDBRANCH  17  20
ENDBRANCH  12  14
ENDBRANCH   7  12
BRANCH   5  26
HETATM   26  N   UNK N   1      36.377  12.373  15.231  0.00  0.00    -0.371 N 
HETATM   27  H   UNK N   1      37.211  12.270  15.744  0.00  0.00     0.161 HD
BRANCH  26  28
HETATM   28  C   UNK N   1      35.108  12.130  15.905  0.00  0.00     0.083 C 
HETATM   29  C   UNK N   1      35.151  12.230  17.441  0.00  0.00     0.027 C 
HETATM   30  C   UNK N   1      35.908  11.054  18.068  0.00  0.00     0.026 C 
HETATM   31  C   UNK N   1      35.446   9.693  17.546  0.00  0.00     0.074 C 
HETATM   32  C   UNK N   1      35.364   9.657  16.018  0.00  0.00     0.026 C 
HETATM   33  C   UNK N   1      34.510  10.801  15.482  0.00  0.00     0.027 C 
BRANCH  31  34
HETATM   34  N   UNK N   1      34.171   9.337  18.139  0.00  0.00    -0.426 N 
HETATM   35  H   UNK N   1      33.220   9.498  17.808  0.00  0.00     0.150 HD
HETATM   36  H   UNK N   1      34.236   8.843  19.030  0.00  0.00     0.150 HD
ENDBRANCH  31  34
ENDBRANCH  26  28
ENDBRANCH   5  26
BRANCH   1  37
HETATM   37  C   UNK N   1      38.404  10.398  10.511  0.00  0.00     0.016 C 
HETATM   38  C   UNK N   1      37.247   9.420  10.375  0.00  0.00     0.015 C 
HETATM   39  C   UNK N   1      39.347  10.217   9.344  0.00  0.00     0.015 C 
ENDBRANCH   1  37
TORSDOF 8
ENDMDL
MODEL 9
REMARK VINA RESULT:      -6.9      7.731     12.411
REMARK  8 active torsions:
REMARK  status: ('A' for Active; 'I' for Inactive)
REMARK    1  A    between atoms: C_2  and  C_4 
REMARK    2  A    between atoms: C_8  and  N_9 
REMARK    3  A    between atoms: C_10  and  N_9 
REMARK    4  A    between atoms: C_13  and  N_14 
REMARK    5  A    between atoms: C_18  and  N_19 
REMARK    6  A    between atoms: N_19  and  C_20 
REMARK    7  A    between atoms: C_23  and  S_26 
REMARK    8  A    between atoms: S_26  and  N_29 
ROOT
HETATM    1  C   UNK N   1      26.677  18.614   4.371  0.00  0.00     0.008 A 
HETATM    2  C   UNK N   1      27.540  17.598   4.731  0.00  0.00     0.138 A 
HETATM    3  N   UNK N   1      28.871  17.643   4.962  0.00  0.00    -0.327 N 
ATOM      4  HN  UNK N   1      29.385  18.520   4.875  1.00  0.00     0.169 HD
HETATM    5  C   UNK N   1      29.519  16.487   5.315  0.00  0.00     0.106 A 
HETATM    6  C   UNK N   1      28.830  15.265   5.344  0.00  0.00     0.098 A 
HETATM    7  C   UNK N   1      27.469  15.259   5.064  0.00  0.00     0.133 A 
HETATM    8  N   UNK N   1      26.855  16.459   4.818  0.00  0.00    -0.223 N 
HETATM    9  N   UNK N   1      25.573  16.692   4.596  0.00  0.00    -0.301 N 
ATOM     10  HN  UNK N   1      24.826  16.000   4.633  1.00  0.00     0.186 HD
HETATM   11  C   UNK N   1      25.423  18.008   4.311  0.00  0.00     0.119 A 
ENDROOT
BRANCH   7  12
HETATM   12  N   UNK N   1      26.769  14.023   4.962  0.00  0.00    -0.341 N 
HETATM   13  H   UNK N   1      27.042  13.360   4.287  0.00  0.00     0.167 HD
BRANCH  12  14
HETATM   14  C   UNK N   1      25.683  13.744   5.828  0.00  0.00     0.033 A 
HETATM   15  C   UNK N   1      25.752  14.073   7.185  0.00  0.00     0.031 A 
HETATM   16  C   UNK N   1      24.595  14.001   7.973  0.00  0.00     0.027 A 
HETATM   17  C   UNK N   1      23.382  13.593   7.396  0.00  0.00     0.074 A 
HETATM   18  C   UNK N   1      23.340  13.185   6.070  0.00  0.00     0.027 A 
HETATM   19  C   UNK N   1      24.485  13.239   5.299  0.00  0.00     0.031 A 
BRANCH  17  20
HETATM   20  S   UNK N   1      21.842  13.761   8.268  0.00  0.00     0.242 S 
HETATM   21  O   UNK N   1      21.028  12.466   8.097  0.00  0.00    -0.206 OA
HETATM   22  O   UNK N   1      21.963  13.863   9.796  0.00  0.00    -0.206 OA
BRANCH  20  23
HETATM   23  N   UNK N   1      20.757  15.055   7.704  0.00  0.00    -0.215 NA
HETATM   24  C   UNK N   1      21.558  16.139   7.164  0.00  0.00     0.129 C 
HETATM   25  C   UNK N   1      19.991  15.589   8.819  0.00  0.00     0.129 C 
ENDBRANCH  20  23
ENDBRANCH  17  20
ENDBRANCH  12  14
ENDBRANCH   7  12
BRANCH   5  26
HETATM   26  N   UNK N   1      30.854  16.517   5.778  0.00  0.00    -0.371 N 
HETATM   27  H   UNK N   1      31.539  16.946   5.216  0.00  0.00     0.161 HD
BRANCH  26  28
HETATM   28  C   UNK N   1      31.258  15.941   7.053  0.00  0.00     0.083 C 
HETATM   29  C   UNK N   1      30.874  16.764   8.298  0.00  0.00     0.027 C 
HETATM   30  C   UNK N   1      31.709  18.044   8.413  0.00  0.00     0.026 C 
HETATM   31  C   UNK N   1      33.212  17.799   8.269  0.00  0.00     0.074 C 
HETATM   32  C   UNK N   1      33.542  16.930   7.053  0.00  0.00     0.026 C 
HETATM   33  C   UNK N   1      32.744  15.631   7.067  0.00  0.00     0.027 C 
BRANCH  31  34
HETATM   34  N   UNK N   1      33.741  17.208   9.483  0.00  0.00    -0.426 N 
HETATM   35  H   UNK N   1      34.394  16.435   9.612  0.00  0.00     0.150 HD
HETATM   36  H   UNK N   1      33.407  17.634  10.348  0.00  0.00     0.150 HD
ENDBRANCH  31  34
ENDBRANCH  26  28
ENDBRANCH   5  26
BRANCH   1  37
HETATM   37  C   UNK N   1      27.003  20.045   4.041  0.00  0.00     0.016 C 
HETATM   38  C   UNK N   1      26.066  20.620   2.990  0.00  0.00     0.015 C 
HETATM   39  C   UNK N   1      26.977  20.929   5.267  0.00  0.00     0.015 C 
ENDBRANCH   1  37
TORSDOF 8
ENDMDL
