MODEL 1
REMARK VINA RESULT:      -4.4      0.000      0.000
REMARK  5 active torsions:
REMARK  status: ('A' for Active; 'I' for Inactive)
REMARK    1  A    between atoms: C_2  and  C_4 
REMARK    2  A    between atoms: C_2  and  C_6 
REMARK    3  A    between atoms: C_4  and  O_5 
REMARK    4  A    between atoms: C_6  and  O_7 
REMARK    5  A    between atoms: C_6  and  C_8 
ROOT
HETATM    1  C   UNK N   1      31.827  18.003   8.455  0.00  0.00     0.020 C 
HETATM    2  C   UNK N   1      32.488  16.969   7.553  0.00  0.00     0.009 C 
HETATM    3  C   UNK N   1      31.769  16.963   6.208  0.00  0.00     0.020 C 
ENDROOT
BRANCH   2   4
HETATM    4  C   UNK N   1      32.358  15.597   8.213  0.00  0.00     0.176 C 
BRANCH   4   5
HETATM    5  O   UNK N   1      32.184  15.705   9.596  0.00  0.00    -0.400 OA
HETATM    6  H   UNK N   1      32.885  15.716  10.266  0.00  0.00     0.209 HD
ENDBRANCH   4   5
ENDBRANCH   2   4
BRANCH   2   7
HETATM    7  C   UNK N   1      33.994  17.270   7.366  0.00  0.00     0.228 C 
BRANCH   7   8
HETATM    8  O   UNK N   1      34.204  17.961   6.167  0.00  0.00    -0.384 OA
HETATM    9  H   UNK N   1      34.898  17.713   5.537  0.00  0.00     0.210 HD
ENDBRANCH   7   8
BRANCH   7  10
HETATM   10  C   UNK N   1      34.646  18.004   8.513  0.00  0.00     0.203 C 
HETATM   11  O   UNK N   1      34.751  17.423   9.726  0.00  0.00    -0.646 OA
HETATM   12  O   UNK N   1      35.035  19.149   8.362  0.00  0.00    -0.646 OA
ENDBRANCH   7  10
ENDBRANCH   2   7
TORSDOF 5
ENDMDL
MODEL 2
REMARK VINA RESULT:      -4.2      1.179      2.081
REMARK  5 active torsions:
REMARK  status: ('A' for Active; 'I' for Inactive)
REMARK    1  A    between atoms: C_2  and  C_4 
REMARK    2  A    between atoms: C_2  and  C_6 
REMARK    3  A    between atoms: C_4  and  O_5 
REMARK    4  A    between atoms: C_6  and  O_7 
REMARK    5  A    between atoms: C_6  and  C_8 
ROOT
HETATM    1  C   UNK N   1      32.592  15.573   8.817  0.00  0.00     0.020 C 
HETATM    2  C   UNK N   1      32.715  16.728   7.833  0.00  0.00     0.009 C 
HETATM    3  C   UNK N   1      31.943  17.924   8.382  0.00  0.00     0.020 C 
ENDROOT
BRANCH   2   4
HETATM    4  C   UNK N   1      32.110  16.294   6.498  0.00  0.00     0.176 C 
BRANCH   4   5
HETATM    5  O   UNK N   1      31.444  17.349   5.867  0.00  0.00    -0.400 OA
HETATM    6  H   UNK N   1      30.889  18.019   6.295  0.00  0.00     0.209 HD
ENDBRANCH   4   5
ENDBRANCH   2   4
BRANCH   2   7
HETATM    7  C   UNK N   1      34.196  17.100   7.588  0.00  0.00     0.228 C 
BRANCH   7   8
HETATM    8  O   UNK N   1      34.346  17.681   6.323  0.00  0.00    -0.384 OA
HETATM    9  H   UNK N   1      33.877  18.490   6.062  0.00  0.00     0.210 HD
ENDBRANCH   7   8
BRANCH   7  10
HETATM   10  C   UNK N   1      34.817  17.982   8.645  0.00  0.00     0.203 C 
HETATM   11  O   UNK N   1      35.046  19.288   8.398  0.00  0.00    -0.646 OA
HETATM   12  O   UNK N   1      35.166  17.503   9.711  0.00  0.00    -0.646 OA
ENDBRANCH   7  10
ENDBRANCH   2   7
TORSDOF 5
ENDMDL
MODEL 3
REMARK VINA RESULT:      -4.1      1.744      2.745
REMARK  5 active torsions:
REMARK  status: ('A' for Active; 'I' for Inactive)
REMARK    1  A    between atoms: C_2  and  C_4 
REMARK    2  A    between atoms: C_2  and  C_6 
REMARK    3  A    between atoms: C_4  and  O_5 
REMARK    4  A    between atoms: C_6  and  O_7 
REMARK    5  A    between atoms: C_6  and  C_8 
ROOT
HETATM    1  C   UNK N   1      33.016  14.186   8.631  0.00  0.00     0.020 C 
HETATM    2  C   UNK N   1      33.983  15.345   8.827  0.00  0.00     0.009 C 
HETATM    3  C   UNK N   1      35.282  15.029   8.093  0.00  0.00     0.020 C 
ENDROOT
BRANCH   2   4
HETATM    4  C   UNK N   1      34.261  15.495  10.323  0.00  0.00     0.176 C 
BRANCH   4   5
HETATM    5  O   UNK N   1      33.208  14.993  11.095  0.00  0.00    -0.400 OA
HETATM    6  H   UNK N   1      32.277  15.258  11.042  0.00  0.00     0.209 HD
ENDBRANCH   4   5
ENDBRANCH   2   4
BRANCH   2   7
HETATM    7  C   UNK N   1      33.376  16.673   8.317  0.00  0.00     0.228 C 
BRANCH   7   8
HETATM    8  O   UNK N   1      32.488  17.194   9.267  0.00  0.00    -0.384 OA
HETATM    9  H   UNK N   1      32.469  18.135   9.501  0.00  0.00     0.210 HD
ENDBRANCH   7   8
BRANCH   7  10
HETATM   10  C   UNK N   1      34.383  17.723   7.914  0.00  0.00     0.203 C 
HETATM   11  O   UNK N   1      35.088  18.391   8.850  0.00  0.00    -0.646 OA
HETATM   12  O   UNK N   1      34.526  18.010   6.737  0.00  0.00    -0.646 OA
ENDBRANCH   7  10
ENDBRANCH   2   7
TORSDOF 5
ENDMDL
MODEL 4
REMARK VINA RESULT:      -4.0      1.524      2.185
REMARK  5 active torsions:
REMARK  status: ('A' for Active; 'I' for Inactive)
REMARK    1  A    between atoms: C_2  and  C_4 
REMARK    2  A    between atoms: C_2  and  C_6 
REMARK    3  A    between atoms: C_4  and  O_5 
REMARK    4  A    between atoms: C_6  and  O_7 
REMARK    5  A    between atoms: C_6  and  C_8 
ROOT
HETATM    1  C   UNK N   1      33.359  17.536   5.518  0.00  0.00     0.020 C 
HETATM    2  C   UNK N   1      33.362  16.791   6.845  0.00  0.00     0.009 C 
HETATM    3  C   UNK N   1      34.600  15.903   6.905  0.00  0.00     0.020 C 
ENDROOT
BRANCH   2   4
HETATM    4  C   UNK N   1      32.104  15.925   6.917  0.00  0.00     0.176 C 
BRANCH   4   5
HETATM    5  O   UNK N   1      30.943  16.690   6.770  0.00  0.00    -0.400 OA
HETATM    6  H   UNK N   1      30.034  16.396   6.932  0.00  0.00     0.209 HD
ENDBRANCH   4   5
ENDBRANCH   2   4
BRANCH   2   7
HETATM    7  C   UNK N   1      33.335  17.773   8.039  0.00  0.00     0.228 C 
BRANCH   7   8
HETATM    8  O   UNK N   1      32.535  17.261   9.068  0.00  0.00    -0.384 OA
HETATM    9  H   UNK N   1      31.698  16.800   8.897  0.00  0.00     0.210 HD
ENDBRANCH   7   8
BRANCH   7  10
HETATM   10  C   UNK N   1      34.691  18.163   8.578  0.00  0.00     0.203 C 
HETATM   11  O   UNK N   1      35.190  17.559   9.676  0.00  0.00    -0.646 OA
HETATM   12  O   UNK N   1      35.320  19.065   8.051  0.00  0.00    -0.646 OA
ENDBRANCH   7  10
ENDBRANCH   2   7
TORSDOF 5
ENDMDL
MODEL 5
REMARK VINA RESULT:      -3.9      4.981      6.339
REMARK  5 active torsions:
REMARK  status: ('A' for Active; 'I' for Inactive)
REMARK    1  A    between atoms: C_2  and  C_4 
REMARK    2  A    between atoms: C_2  and  C_6 
REMARK    3  A    between atoms: C_4  and  O_5 
REMARK    4  A    between atoms: C_6  and  O_7 
REMARK    5  A    between atoms: C_6  and  C_8 
ROOT
HETATM    1  C   UNK N   1      35.244  12.904   9.889  0.00  0.00     0.020 C 
HETATM    2  C   UNK N   1      35.693  13.973  10.877  0.00  0.00     0.009 C 
HETATM    3  C   UNK N   1      34.500  14.859  11.216  0.00  0.00     0.020 C 
ENDROOT
BRANCH   2   4
HETATM    4  C   UNK N   1      36.786  14.813  10.216  0.00  0.00     0.176 C 
BRANCH   4   5
HETATM    5  O   UNK N   1      37.039  15.986  10.934  0.00  0.00    -0.400 OA
HETATM    6  H   UNK N   1      36.444  16.411  11.571  0.00  0.00     0.209 HD
ENDBRANCH   4   5
ENDBRANCH   2   4
BRANCH   2   7
HETATM    7  C   UNK N   1      36.285  13.339  12.157  0.00  0.00     0.228 C 
BRANCH   7   8
HETATM    8  O   UNK N   1      37.681  13.277  12.065  0.00  0.00    -0.384 OA
HETATM    9  H   UNK N   1      38.263  13.884  12.549  0.00  0.00     0.210 HD
ENDBRANCH   7   8
BRANCH   7  10
HETATM   10  C   UNK N   1      35.877  14.005  13.449  0.00  0.00     0.203 C 
HETATM   11  O   UNK N   1      36.526  15.103  13.887  0.00  0.00    -0.646 OA
HETATM   12  O   UNK N   1      34.989  13.522  14.130  0.00  0.00    -0.646 OA
ENDBRANCH   7  10
ENDBRANCH   2   7
TORSDOF 5
ENDMDL
MODEL 6
REMARK VINA RESULT:      -3.8      1.166      2.386
REMARK  5 active torsions:
REMARK  status: ('A' for Active; 'I' for Inactive)
REMARK    1  A    between atoms: C_2  and  C_4 
REMARK    2  A    between atoms: C_2  and  C_6 
REMARK    3  A    between atoms: C_4  and  O_5 
REMARK    4  A    between atoms: C_6  and  O_7 
REMARK    5  A    between atoms: C_6  and  C_8 
ROOT
HETATM    1  C   UNK N   1      32.834  15.483   7.283  0.00  0.00     0.020 C 
HETATM    2  C   UNK N   1      32.768  16.940   6.843  0.00  0.00     0.009 C 
HETATM    3  C   UNK N   1      31.406  17.198   6.208  0.00  0.00     0.020 C 
ENDROOT
BRANCH   2   4
HETATM    4  C   UNK N   1      33.871  17.183   5.812  0.00  0.00     0.176 C 
BRANCH   4   5
HETATM    5  O   UNK N   1      34.871  16.209   5.889  0.00  0.00    -0.400 OA
HETATM    6  H   UNK N   1      35.758  16.262   5.502  0.00  0.00     0.209 HD
ENDBRANCH   4   5
ENDBRANCH   2   4
BRANCH   2   7
HETATM    7  C   UNK N   1      33.006  17.896   8.034  0.00  0.00     0.228 C 
BRANCH   7   8
HETATM    8  O   UNK N   1      32.248  17.490   9.139  0.00  0.00    -0.384 OA
HETATM    9  H   UNK N   1      32.464  16.699   9.657  0.00  0.00     0.210 HD
ENDBRANCH   7   8
BRANCH   7  10
HETATM   10  C   UNK N   1      34.452  18.076   8.431  0.00  0.00     0.203 C 
HETATM   11  O   UNK N   1      35.149  17.048   8.958  0.00  0.00    -0.646 OA
HETATM   12  O   UNK N   1      34.982  19.169   8.327  0.00  0.00    -0.646 OA
ENDBRANCH   7  10
ENDBRANCH   2   7
TORSDOF 5
ENDMDL
MODEL 7
REMARK VINA RESULT:      -3.8     16.187     17.284
REMARK  5 active torsions:
REMARK  status: ('A' for Active; 'I' for Inactive)
REMARK    1  A    between atoms: C_2  and  C_4 
REMARK    2  A    between atoms: C_2  and  C_6 
REMARK    3  A    between atoms: C_4  and  O_5 
REMARK    4  A    between atoms: C_6  and  O_7 
REMARK    5  A    between atoms: C_6  and  C_8 
ROOT
HETATM    1  C   UNK N   1      27.121  28.353  -6.019  0.00  0.00     0.020 C 
HETATM    2  C   UNK N   1      26.459  27.439  -4.996  0.00  0.00     0.009 C 
HETATM    3  C   UNK N   1      24.968  27.356  -5.304  0.00  0.00     0.020 C 
ENDROOT
BRANCH   2   4
HETATM    4  C   UNK N   1      26.665  28.041  -3.605  0.00  0.00     0.176 C 
BRANCH   4   5
HETATM    5  O   UNK N   1      25.854  27.419  -2.650  0.00  0.00    -0.400 OA
HETATM    6  H   UNK N   1      26.151  26.994  -1.831  0.00  0.00     0.209 HD
ENDBRANCH   4   5
ENDBRANCH   2   4
BRANCH   2   7
HETATM    7  C   UNK N   1      27.099  26.031  -5.007  0.00  0.00     0.228 C 
BRANCH   7   8
HETATM    8  O   UNK N   1      28.190  25.989  -4.129  0.00  0.00    -0.384 OA
HETATM    9  H   UNK N   1      29.101  25.864  -4.437  0.00  0.00     0.210 HD
ENDBRANCH   7   8
BRANCH   7  10
HETATM   10  C   UNK N   1      26.148  24.895  -4.713  0.00  0.00     0.203 C 
HETATM   11  O   UNK N   1      25.423  24.336  -5.703  0.00  0.00    -0.646 OA
HETATM   12  O   UNK N   1      25.992  24.512  -3.566  0.00  0.00    -0.646 OA
ENDBRANCH   7  10
ENDBRANCH   2   7
TORSDOF 5
ENDMDL
MODEL 8
REMARK VINA RESULT:      -3.7      3.666      4.981
REMARK  5 active torsions:
REMARK  status: ('A' for Active; 'I' for Inactive)
REMARK    1  A    between atoms: C_2  and  C_4 
REMARK    2  A    between atoms: C_2  and  C_6 
REMARK    3  A    between atoms: C_4  and  O_5 
REMARK    4  A    between atoms: C_6  and  O_7 
REMARK    5  A    between atoms: C_6  and  C_8 
ROOT
HETATM    1  C   UNK N   1      35.277  12.522  10.659  0.00  0.00     0.020 C 
HETATM    2  C   UNK N   1      35.530  13.997  10.941  0.00  0.00     0.009 C 
HETATM    3  C   UNK N   1      36.875  14.387  10.337  0.00  0.00     0.020 C 
ENDROOT
BRANCH   2   4
HETATM    4  C   UNK N   1      35.567  14.201  12.455  0.00  0.00     0.176 C 
BRANCH   4   5
HETATM    5  O   UNK N   1      36.320  15.327  12.805  0.00  0.00    -0.400 OA
HETATM    6  H   UNK N   1      36.728  15.960  12.194  0.00  0.00     0.209 HD
ENDBRANCH   4   5
ENDBRANCH   2   4
BRANCH   2   7
HETATM    7  C   UNK N   1      34.397  14.880  10.367  0.00  0.00     0.228 C 
BRANCH   7   8
HETATM    8  O   UNK N   1      33.380  15.038  11.316  0.00  0.00    -0.384 OA
HETATM    9  H   UNK N   1      32.961  15.895  11.494  0.00  0.00     0.210 HD
ENDBRANCH   7   8
BRANCH   7  10
HETATM   10  C   UNK N   1      34.837  16.226   9.844  0.00  0.00     0.203 C 
HETATM   11  O   UNK N   1      35.195  17.207  10.698  0.00  0.00    -0.646 OA
HETATM   12  O   UNK N   1      34.820  16.450   8.646  0.00  0.00    -0.646 OA
ENDBRANCH   7  10
ENDBRANCH   2   7
TORSDOF 5
ENDMDL
MODEL 9
REMARK VINA RESULT:      -3.7      1.538      2.709
REMARK  5 active torsions:
REMARK  status: ('A' for Active; 'I' for Inactive)
REMARK    1  A    between atoms: C_2  and  C_4 
REMARK    2  A    between atoms: C_2  and  C_6 
REMARK    3  A    between atoms: C_4  and  O_5 
REMARK    4  A    between atoms: C_6  and  O_7 
REMARK    5  A    between atoms: C_6  and  C_8 
ROOT
HETATM    1  C   UNK N   1      31.871  17.529   8.404  0.00  0.00     0.020 C 
HETATM    2  C   UNK N   1      32.906  16.623   7.750  0.00  0.00     0.009 C 
HETATM    3  C   UNK N   1      32.221  15.332   7.314  0.00  0.00     0.020 C 
ENDROOT
BRANCH   2   4
HETATM    4  C   UNK N   1      33.991  16.308   8.779  0.00  0.00     0.176 C 
BRANCH   4   5
HETATM    5  O   UNK N   1      34.068  17.296   9.765  0.00  0.00    -0.400 OA
HETATM    6  H   UNK N   1      34.791  17.931   9.889  0.00  0.00     0.209 HD
ENDBRANCH   4   5
ENDBRANCH   2   4
BRANCH   2   7
HETATM    7  C   UNK N   1      33.578  17.320   6.544  0.00  0.00     0.228 C 
BRANCH   7   8
HETATM    8  O   UNK N   1      34.586  18.185   6.986  0.00  0.00    -0.384 OA
HETATM    9  H   UNK N   1      35.522  18.050   6.767  0.00  0.00     0.210 HD
ENDBRANCH   7   8
BRANCH   7  10
HETATM   10  C   UNK N   1      34.116  16.388   5.485  0.00  0.00     0.203 C 
HETATM   11  O   UNK N   1      35.242  15.679   5.707  0.00  0.00    -0.646 OA
HETATM   12  O   UNK N   1      33.564  16.312   4.401  0.00  0.00    -0.646 OA
ENDBRANCH   7  10
ENDBRANCH   2   7
TORSDOF 5
ENDMDL
