MODEL 1
REMARK VINA RESULT:      -5.2      0.000      0.000
REMARK  6 active torsions:
REMARK  status: ('A' for Active; 'I' for Inactive)
REMARK    1  A    between atoms: C_3  and  O_2 
REMARK    2  A    between atoms: C_5  and  C_6 
REMARK    3  A    between atoms: C_6  and  O_7 
REMARK    4  A    between atoms: C_8  and  O_9 
REMARK    5  A    between atoms: C_10  and  O_11 
REMARK    6  A    between atoms: C_12  and  O_13 
ROOT
HETATM    1  C   UNK N   1      21.358  20.352   3.062  0.00  0.00     0.290 C 
HETATM    2  O   UNK N   1      21.885  19.472   4.027  0.00  0.00    -0.349 OA
HETATM    3  C   UNK N   1      20.805  18.765   4.599  0.00  0.00     0.179 C 
HETATM    4  C   UNK N   1      20.219  17.802   3.556  0.00  0.00     0.180 C 
HETATM    5  C   UNK N   1      19.720  18.624   2.369  0.00  0.00     0.183 C 
HETATM    6  C   UNK N   1      20.823  19.550   1.868  0.00  0.00     0.204 C 
ENDROOT
BRANCH   3   7
HETATM    7  C   UNK N   1      21.297  17.989   5.814  0.00  0.00     0.198 C 
BRANCH   7   8
HETATM    8  O   UNK N   1      21.032  18.703   6.983  0.00  0.00    -0.398 OA
HETATM    9  H   UNK N   1      21.550  19.469   7.277  0.00  0.00     0.209 HD
ENDBRANCH   7   8
ENDBRANCH   3   7
BRANCH   4  10
HETATM   10  O   UNK N   1      19.154  17.081   4.100  0.00  0.00    -0.390 OA
HETATM   11  H   UNK N   1      18.214  17.150   3.869  0.00  0.00     0.210 HD
ENDBRANCH   4  10
BRANCH   1  12
HETATM   12  O   UNK N   1      22.366  21.222   2.631  0.00  0.00    -0.363 OA
HETATM   13  C   UNK N   1      23.563  20.561   2.907  0.00  0.00     0.204 C 
ENDBRANCH   1  12
BRANCH   5  14
HETATM   14  O   UNK N   1      19.298  17.783   1.337  0.00  0.00    -0.390 OA
HETATM   15  H   UNK N   1      18.986  18.100   0.475  0.00  0.00     0.210 HD
ENDBRANCH   5  14
BRANCH   6  16
HETATM   16  O   UNK N   1      20.305  20.411   0.899  0.00  0.00    -0.388 OA
HETATM   17  H   UNK N   1      20.570  21.338   0.790  0.00  0.00     0.210 HD
ENDBRANCH   6  16
TORSDOF 6
ENDMDL
MODEL 2
REMARK VINA RESULT:      -5.2      1.532      2.464
REMARK  6 active torsions:
REMARK  status: ('A' for Active; 'I' for Inactive)
REMARK    1  A    between atoms: C_3  and  O_2 
REMARK    2  A    between atoms: C_5  and  C_6 
REMARK    3  A    between atoms: C_6  and  O_7 
REMARK    4  A    between atoms: C_8  and  O_9 
REMARK    5  A    between atoms: C_10  and  O_11 
REMARK    6  A    between atoms: C_12  and  O_13 
ROOT
HETATM    1  C   UNK N   1      22.291  19.337   3.767  0.00  0.00     0.290 C 
HETATM    2  O   UNK N   1      21.872  18.006   3.572  0.00  0.00    -0.349 OA
HETATM    3  C   UNK N   1      20.462  17.987   3.625  0.00  0.00     0.179 C 
HETATM    4  C   UNK N   1      19.898  18.698   2.386  0.00  0.00     0.180 C 
HETATM    5  C   UNK N   1      20.391  20.143   2.394  0.00  0.00     0.183 C 
HETATM    6  C   UNK N   1      21.907  20.183   2.547  0.00  0.00     0.204 C 
ENDROOT
BRANCH   3   7
HETATM    7  C   UNK N   1      19.977  16.544   3.671  0.00  0.00     0.198 C 
BRANCH   7   8
HETATM    8  O   UNK N   1      18.755  16.465   4.339  0.00  0.00    -0.398 OA
HETATM    9  H   UNK N   1      17.912  16.270   3.901  0.00  0.00     0.209 HD
ENDBRANCH   7   8
ENDBRANCH   3   7
BRANCH   4  10
HETATM   10  O   UNK N   1      18.501  18.684   2.407  0.00  0.00    -0.390 OA
HETATM   11  H   UNK N   1      17.901  19.441   2.320  0.00  0.00     0.210 HD
ENDBRANCH   4  10
BRANCH   1  12
HETATM   12  O   UNK N   1      23.679  19.363   3.942  0.00  0.00    -0.363 OA
HETATM   13  C   UNK N   1      23.969  18.257   4.742  0.00  0.00     0.204 C 
ENDBRANCH   1  12
BRANCH   5  14
HETATM   14  O   UNK N   1      20.011  20.794   1.218  0.00  0.00    -0.390 OA
HETATM   15  H   UNK N   1      19.124  20.733   0.829  0.00  0.00     0.210 HD
ENDBRANCH   5  14
BRANCH   6  16
HETATM   16  O   UNK N   1      22.324  21.503   2.722  0.00  0.00    -0.388 OA
HETATM   17  H   UNK N   1      21.834  22.280   2.409  0.00  0.00     0.210 HD
ENDBRANCH   6  16
TORSDOF 6
ENDMDL
MODEL 3
REMARK VINA RESULT:      -5.1     12.823     14.483
REMARK  6 active torsions:
REMARK  status: ('A' for Active; 'I' for Inactive)
REMARK    1  A    between atoms: C_3  and  O_2 
REMARK    2  A    between atoms: C_5  and  C_6 
REMARK    3  A    between atoms: C_6  and  O_7 
REMARK    4  A    between atoms: C_8  and  O_9 
REMARK    5  A    between atoms: C_10  and  O_11 
REMARK    6  A    between atoms: C_12  and  O_13 
ROOT
HETATM    1  C   UNK N   1      33.630  15.899   7.170  0.00  0.00     0.290 C 
HETATM    2  O   UNK N   1      33.266  15.423   8.445  0.00  0.00    -0.349 OA
HETATM    3  C   UNK N   1      34.368  15.615   9.306  0.00  0.00     0.179 C 
HETATM    4  C   UNK N   1      34.561  17.119   9.555  0.00  0.00     0.180 C 
HETATM    5  C   UNK N   1      34.835  17.797   8.214  0.00  0.00     0.183 C 
HETATM    6  C   UNK N   1      33.754  17.427   7.205  0.00  0.00     0.204 C 
ENDROOT
BRANCH   3   7
HETATM    7  C   UNK N   1      34.112  14.893  10.623  0.00  0.00     0.198 C 
BRANCH   7   8
HETATM    8  O   UNK N   1      32.774  15.021  10.993  0.00  0.00    -0.398 OA
HETATM    9  H   UNK N   1      32.108  15.484  10.460  0.00  0.00     0.209 HD
ENDBRANCH   7   8
ENDBRANCH   3   7
BRANCH   4  10
HETATM   10  O   UNK N   1      35.640  17.338  10.415  0.00  0.00    -0.390 OA
HETATM   11  H   UNK N   1      35.650  17.263  11.382  0.00  0.00     0.210 HD
ENDBRANCH   4  10
BRANCH   1  12
HETATM   12  O   UNK N   1      32.651  15.526   6.242  0.00  0.00    -0.363 OA
HETATM   13  C   UNK N   1      31.516  15.240   7.001  0.00  0.00     0.204 C 
ENDBRANCH   1  12
BRANCH   5  14
HETATM   14  O   UNK N   1      34.888  19.184   8.372  0.00  0.00    -0.390 OA
HETATM   15  H   UNK N   1      34.496  19.657   9.124  0.00  0.00     0.210 HD
ENDBRANCH   5  14
BRANCH   6  16
HETATM   16  O   UNK N   1      34.106  17.914   5.945  0.00  0.00    -0.388 OA
HETATM   17  H   UNK N   1      33.746  18.723   5.548  0.00  0.00     0.210 HD
ENDBRANCH   6  16
TORSDOF 6
ENDMDL
MODEL 4
REMARK VINA RESULT:      -4.9     20.756     23.126
REMARK  6 active torsions:
REMARK  status: ('A' for Active; 'I' for Inactive)
REMARK    1  A    between atoms: C_3  and  O_2 
REMARK    2  A    between atoms: C_5  and  C_6 
REMARK    3  A    between atoms: C_6  and  O_7 
REMARK    4  A    between atoms: C_8  and  O_9 
REMARK    5  A    between atoms: C_10  and  O_11 
REMARK    6  A    between atoms: C_12  and  O_13 
ROOT
HETATM    1  C   UNK N   1      42.692  21.536   1.713  0.00  0.00     0.290 C 
HETATM    2  O   UNK N   1      43.274  20.433   2.369  0.00  0.00    -0.349 OA
HETATM    3  C   UNK N   1      44.583  20.801   2.748  0.00  0.00     0.179 C 
HETATM    4  C   UNK N   1      44.511  21.853   3.866  0.00  0.00     0.180 C 
HETATM    5  C   UNK N   1      43.772  23.076   3.328  0.00  0.00     0.183 C 
HETATM    6  C   UNK N   1      42.435  22.662   2.723  0.00  0.00     0.204 C 
ENDROOT
BRANCH   3   7
HETATM    7  C   UNK N   1      45.334  19.567   3.233  0.00  0.00     0.198 C 
BRANCH   7   8
HETATM    8  O   UNK N   1      46.698  19.840   3.334  0.00  0.00    -0.398 OA
HETATM    9  H   UNK N   1      47.354  19.201   3.654  0.00  0.00     0.209 HD
ENDBRANCH   7   8
ENDBRANCH   3   7
BRANCH   4  10
HETATM   10  O   UNK N   1      45.795  22.227   4.268  0.00  0.00    -0.390 OA
HETATM   11  H   UNK N   1      46.640  21.953   3.878  0.00  0.00     0.210 HD
ENDBRANCH   4  10
BRANCH   1  12
HETATM   12  O   UNK N   1      41.483  21.141   1.130  0.00  0.00    -0.363 OA
HETATM   13  C   UNK N   1      40.835  20.385   2.108  0.00  0.00     0.204 C 
ENDBRANCH   1  12
BRANCH   5  14
HETATM   14  O   UNK N   1      43.566  24.008   4.348  0.00  0.00    -0.390 OA
HETATM   15  H   UNK N   1      42.702  24.184   4.752  0.00  0.00     0.210 HD
ENDBRANCH   5  14
BRANCH   6  16
HETATM   16  O   UNK N   1      41.850  23.758   2.088  0.00  0.00    -0.388 OA
HETATM   17  H   UNK N   1      40.898  23.946   2.082  0.00  0.00     0.210 HD
ENDBRANCH   6  16
TORSDOF 6
ENDMDL
MODEL 5
REMARK VINA RESULT:      -4.9      1.456      3.674
REMARK  6 active torsions:
REMARK  status: ('A' for Active; 'I' for Inactive)
REMARK    1  A    between atoms: C_3  and  O_2 
REMARK    2  A    between atoms: C_5  and  C_6 
REMARK    3  A    between atoms: C_6  and  O_7 
REMARK    4  A    between atoms: C_8  and  O_9 
REMARK    5  A    between atoms: C_10  and  O_11 
REMARK    6  A    between atoms: C_12  and  O_13 
ROOT
HETATM    1  C   UNK N   1      22.232  18.307   4.034  0.00  0.00     0.290 C 
HETATM    2  O   UNK N   1      21.791  19.507   3.442  0.00  0.00    -0.349 OA
HETATM    3  C   UNK N   1      20.990  19.169   2.330  0.00  0.00     0.179 C 
HETATM    4  C   UNK N   1      19.678  18.538   2.822  0.00  0.00     0.180 C 
HETATM    5  C   UNK N   1      20.017  17.275   3.611  0.00  0.00     0.183 C 
HETATM    6  C   UNK N   1      21.047  17.589   4.691  0.00  0.00     0.204 C 
ENDROOT
BRANCH   3   7
HETATM    7  C   UNK N   1      20.698  20.423   1.517  0.00  0.00     0.198 C 
BRANCH   7   8
HETATM    8  O   UNK N   1      20.672  20.122   0.155  0.00  0.00    -0.398 OA
HETATM    9  H   UNK N   1      21.265  19.481  -0.267  0.00  0.00     0.209 HD
ENDBRANCH   7   8
ENDBRANCH   3   7
BRANCH   4  10
HETATM   10  O   UNK N   1      18.860  18.204   1.740  0.00  0.00    -0.390 OA
HETATM   11  H   UNK N   1      18.886  18.573   0.843  0.00  0.00     0.210 HD
ENDBRANCH   4  10
BRANCH   1  12
HETATM   12  O   UNK N   1      23.202  18.598   5.000  0.00  0.00    -0.363 OA
HETATM   13  C   UNK N   1      24.426  18.412   4.357  0.00  0.00     0.204 C 
ENDBRANCH   1  12
BRANCH   5  14
HETATM   14  O   UNK N   1      18.865  16.739   4.190  0.00  0.00    -0.390 OA
HETATM   15  H   UNK N   1      18.335  17.197   4.862  0.00  0.00     0.210 HD
ENDBRANCH   5  14
BRANCH   6  16
HETATM   16  O   UNK N   1      21.471  16.401   5.290  0.00  0.00    -0.388 OA
HETATM   17  H   UNK N   1      21.450  15.531   4.860  0.00  0.00     0.210 HD
ENDBRANCH   6  16
TORSDOF 6
ENDMDL
MODEL 6
REMARK VINA RESULT:      -4.8      1.780      4.559
REMARK  6 active torsions:
REMARK  status: ('A' for Active; 'I' for Inactive)
REMARK    1  A    between atoms: C_3  and  O_2 
REMARK    2  A    between atoms: C_5  and  C_6 
REMARK    3  A    between atoms: C_6  and  O_7 
REMARK    4  A    between atoms: C_8  and  O_9 
REMARK    5  A    between atoms: C_10  and  O_11 
REMARK    6  A    between atoms: C_12  and  O_13 
ROOT
HETATM    1  C   UNK N   1      20.096  17.362   1.315  0.00  0.00     0.290 C 
HETATM    2  O   UNK N   1      20.691  18.573   0.911  0.00  0.00    -0.349 OA
HETATM    3  C   UNK N   1      20.299  19.572   1.829  0.00  0.00     0.179 C 
HETATM    4  C   UNK N   1      20.971  19.306   3.185  0.00  0.00     0.180 C 
HETATM    5  C   UNK N   1      20.513  17.940   3.690  0.00  0.00     0.183 C 
HETATM    6  C   UNK N   1      20.742  16.878   2.619  0.00  0.00     0.204 C 
ENDROOT
BRANCH   3   7
HETATM    7  C   UNK N   1      20.711  20.938   1.296  0.00  0.00     0.198 C 
BRANCH   7   8
HETATM    8  O   UNK N   1      20.768  20.916  -0.098  0.00  0.00    -0.398 OA
HETATM    9  H   UNK N   1      20.706  21.709  -0.653  0.00  0.00     0.209 HD
ENDBRANCH   7   8
ENDBRANCH   3   7
BRANCH   4  10
HETATM   10  O   UNK N   1      20.608  20.288   4.110  0.00  0.00    -0.390 OA
HETATM   11  H   UNK N   1      20.277  21.181   3.925  0.00  0.00     0.210 HD
ENDBRANCH   4  10
BRANCH   1  12
HETATM   12  O   UNK N   1      20.279  16.402   0.313  0.00  0.00    -0.363 OA
HETATM   13  C   UNK N   1      19.012  16.200  -0.237  0.00  0.00     0.204 C 
ENDBRANCH   1  12
BRANCH   5  14
HETATM   14  O   UNK N   1      21.199  17.597   4.857  0.00  0.00    -0.390 OA
HETATM   15  H   UNK N   1      20.947  17.907   5.741  0.00  0.00     0.210 HD
ENDBRANCH   5  14
BRANCH   6  16
HETATM   16  O   UNK N   1      20.167  15.673   3.026  0.00  0.00    -0.388 OA
HETATM   17  H   UNK N   1      20.359  14.810   2.626  0.00  0.00     0.210 HD
ENDBRANCH   6  16
TORSDOF 6
ENDMDL
MODEL 7
REMARK VINA RESULT:      -4.8     13.221     14.758
REMARK  6 active torsions:
REMARK  status: ('A' for Active; 'I' for Inactive)
REMARK    1  A    between atoms: C_3  and  O_2 
REMARK    2  A    between atoms: C_5  and  C_6 
REMARK    3  A    between atoms: C_6  and  O_7 
REMARK    4  A    between atoms: C_8  and  O_9 
REMARK    5  A    between atoms: C_10  and  O_11 
REMARK    6  A    between atoms: C_12  and  O_13 
ROOT
HETATM    1  C   UNK N   1      34.419  17.085   7.307  0.00  0.00     0.290 C 
HETATM    2  O   UNK N   1      33.508  16.011   7.329  0.00  0.00    -0.349 OA
HETATM    3  C   UNK N   1      34.075  14.984   8.114  0.00  0.00     0.179 C 
HETATM    4  C   UNK N   1      34.103  15.427   9.585  0.00  0.00     0.180 C 
HETATM    5  C   UNK N   1      34.961  16.685   9.693  0.00  0.00     0.183 C 
HETATM    6  C   UNK N   1      34.485  17.735   8.694  0.00  0.00     0.204 C 
ENDROOT
BRANCH   3   7
HETATM    7  C   UNK N   1      33.246  13.715   7.962  0.00  0.00     0.198 C 
BRANCH   7   8
HETATM    8  O   UNK N   1      32.351  13.592   9.025  0.00  0.00    -0.398 OA
HETATM    9  H   UNK N   1      31.394  13.727   8.944  0.00  0.00     0.209 HD
ENDBRANCH   7   8
ENDBRANCH   3   7
BRANCH   4  10
HETATM   10  O   UNK N   1      34.650  14.422  10.388  0.00  0.00    -0.390 OA
HETATM   11  H   UNK N   1      35.037  14.518  11.272  0.00  0.00     0.210 HD
ENDBRANCH   4  10
BRANCH   1  12
HETATM   12  O   UNK N   1      33.996  18.029   6.364  0.00  0.00    -0.363 OA
HETATM   13  C   UNK N   1      33.362  17.289   5.364  0.00  0.00     0.204 C 
ENDBRANCH   1  12
BRANCH   5  14
HETATM   14  O   UNK N   1      34.909  17.201  10.990  0.00  0.00    -0.390 OA
HETATM   15  H   UNK N   1      35.415  16.839  11.735  0.00  0.00     0.210 HD
ENDBRANCH   5  14
BRANCH   6  16
HETATM   16  O   UNK N   1      35.378  18.808   8.685  0.00  0.00    -0.388 OA
HETATM   17  H   UNK N   1      35.274  19.604   8.139  0.00  0.00     0.210 HD
ENDBRANCH   6  16
TORSDOF 6
ENDMDL
MODEL 8
REMARK VINA RESULT:      -4.7     13.330     14.776
REMARK  6 active torsions:
REMARK  status: ('A' for Active; 'I' for Inactive)
REMARK    1  A    between atoms: C_3  and  O_2 
REMARK    2  A    between atoms: C_5  and  C_6 
REMARK    3  A    between atoms: C_6  and  O_7 
REMARK    4  A    between atoms: C_8  and  O_9 
REMARK    5  A    between atoms: C_10  and  O_11 
REMARK    6  A    between atoms: C_12  and  O_13 
ROOT
HETATM    1  C   UNK N   1      32.742  14.831   8.569  0.00  0.00     0.290 C 
HETATM    2  O   UNK N   1      33.390  15.007   7.331  0.00  0.00    -0.349 OA
HETATM    3  C   UNK N   1      33.494  16.395   7.094  0.00  0.00     0.179 C 
HETATM    4  C   UNK N   1      34.498  17.005   8.085  0.00  0.00     0.180 C 
HETATM    5  C   UNK N   1      33.982  16.765   9.502  0.00  0.00     0.183 C 
HETATM    6  C   UNK N   1      33.665  15.287   9.706  0.00  0.00     0.204 C 
ENDROOT
BRANCH   3   7
HETATM    7  C   UNK N   1      33.959  16.630   5.663  0.00  0.00     0.198 C 
BRANCH   7   8
HETATM    8  O   UNK N   1      33.581  17.903   5.235  0.00  0.00    -0.398 OA
HETATM    9  H   UNK N   1      33.626  18.695   5.793  0.00  0.00     0.209 HD
ENDBRANCH   7   8
ENDBRANCH   3   7
BRANCH   4  10
HETATM   10  O   UNK N   1      34.630  18.378   7.865  0.00  0.00    -0.390 OA
HETATM   11  H   UNK N   1      35.448  18.898   7.850  0.00  0.00     0.210 HD
ENDBRANCH   4  10
BRANCH   1  12
HETATM   12  O   UNK N   1      32.422  13.479   8.735  0.00  0.00    -0.363 OA
HETATM   13  C   UNK N   1      33.541  12.780   8.279  0.00  0.00     0.204 C 
ENDBRANCH   1  12
BRANCH   5  14
HETATM   14  O   UNK N   1      34.926  17.185  10.442  0.00  0.00    -0.390 OA
HETATM   15  H   UNK N   1      35.870  17.293  10.247  0.00  0.00     0.210 HD
ENDBRANCH   5  14
BRANCH   6  16
HETATM   16  O   UNK N   1      33.039  15.110  10.940  0.00  0.00    -0.388 OA
HETATM   17  H   UNK N   1      32.406  15.734  11.330  0.00  0.00     0.210 HD
ENDBRANCH   6  16
TORSDOF 6
ENDMDL
MODEL 9
REMARK VINA RESULT:      -4.7      8.625     10.493
REMARK  6 active torsions:
REMARK  status: ('A' for Active; 'I' for Inactive)
REMARK    1  A    between atoms: C_3  and  O_2 
REMARK    2  A    between atoms: C_5  and  C_6 
REMARK    3  A    between atoms: C_6  and  O_7 
REMARK    4  A    between atoms: C_8  and  O_9 
REMARK    5  A    between atoms: C_10  and  O_11 
REMARK    6  A    between atoms: C_12  and  O_13 
ROOT
HETATM    1  C   UNK N   1      30.748  16.934   7.270  0.00  0.00     0.290 C 
HETATM    2  O   UNK N   1      29.694  17.457   6.496  0.00  0.00    -0.349 OA
HETATM    3  C   UNK N   1      28.501  17.305   7.236  0.00  0.00     0.179 C 
HETATM    4  C   UNK N   1      28.529  18.253   8.445  0.00  0.00     0.180 C 
HETATM    5  C   UNK N   1      29.725  17.883   9.320  0.00  0.00     0.183 C 
HETATM    6  C   UNK N   1      30.998  17.840   8.483  0.00  0.00     0.204 C 
ENDROOT
BRANCH   3   7
HETATM    7  C   UNK N   1      27.309  17.624   6.344  0.00  0.00     0.198 C 
BRANCH   7   8
HETATM    8  O   UNK N   1      26.964  18.971   6.462  0.00  0.00    -0.398 OA
HETATM    9  H   UNK N   1      27.598  19.700   6.376  0.00  0.00     0.209 HD
ENDBRANCH   7   8
ENDBRANCH   3   7
BRANCH   4  10
HETATM   10  O   UNK N   1      27.354  18.131   9.190  0.00  0.00    -0.390 OA
HETATM   11  H   UNK N   1      27.223  17.629  10.010  0.00  0.00     0.210 HD
ENDBRANCH   4  10
BRANCH   1  12
HETATM   12  O   UNK N   1      31.905  16.865   6.487  0.00  0.00    -0.363 OA
HETATM   13  C   UNK N   1      31.501  17.236   5.203  0.00  0.00     0.204 C 
ENDBRANCH   1  12
BRANCH   5  14
HETATM   14  O   UNK N   1      29.868  18.801  10.362  0.00  0.00    -0.390 OA
HETATM   15  H   UNK N   1      30.447  18.661  11.129  0.00  0.00     0.210 HD
ENDBRANCH   5  14
BRANCH   6  16
HETATM   16  O   UNK N   1      32.048  17.338   9.254  0.00  0.00    -0.388 OA
HETATM   17  H   UNK N   1      32.271  16.397   9.333  0.00  0.00     0.210 HD
ENDBRANCH   6  16
TORSDOF 6
ENDMDL
