MODEL 1
REMARK VINA RESULT:      -4.8      0.000      0.000
REMARK  7 active torsions:
REMARK  status: ('A' for Active; 'I' for Inactive)
REMARK    1  A    between atoms: C_3  and  C_2 
REMARK    2  A    between atoms: C_4  and  C_2 
REMARK    3  A    between atoms: C_5  and  C_3 
REMARK    4  A    between atoms: O_9  and  C_4 
REMARK    5  A    between atoms: C_6  and  C_5 
REMARK    6  A    between atoms: C_5  and  N_7 
REMARK    7  A    between atoms: O_11  and  C_6 
ROOT
HETATM    1  C   UNK N   1      19.943  17.632   2.219  0.00  0.00     0.177 C 
ENDROOT
BRANCH   1   2
HETATM    2  C   UNK N   1      21.094  18.359   2.959  0.00  0.00     0.024 C 
HETATM    3  C   UNK N   1      21.535  17.591   4.201  0.00  0.00     0.013 C 
BRANCH   2   4
HETATM    4  C   UNK N   1      20.746  19.815   3.318  0.00  0.00     0.116 C 
BRANCH   4   5
HETATM    5  C   UNK N   1      21.268  20.859   2.375  0.00  0.00     0.139 C 
HETATM    6  O   UNK N   1      20.949  20.830   1.199  0.00  0.00    -0.650 OA
BRANCH   5   7
HETATM    7  O   UNK N   1      22.151  21.780   2.806  0.00  0.00    -0.776 OA
HETATM    8  H   UNK N   1      22.571  22.507   2.391  0.00  0.00     0.167 HD
ENDBRANCH   5   7
ENDBRANCH   4   5
ENDBRANCH   2   4
ENDBRANCH   1   2
BRANCH   1   9
HETATM    9  C   UNK N   1      20.296  17.275   0.790  0.00  0.00     0.163 C 
HETATM   10  O   UNK N   1      20.509  16.109   0.493  0.00  0.00    -0.648 OA
BRANCH   9  11
HETATM   11  O   UNK N   1      20.358  18.220  -0.169  0.00  0.00    -0.775 OA
HETATM   12  H   UNK N   1      19.598  18.487  -0.648  0.00  0.00     0.167 HD
ENDBRANCH   9  11
ENDBRANCH   1   9
BRANCH   1  13
HETATM   13  N   UNK N   1      18.764  18.484   2.195  0.00  0.00    -0.417 N 
HETATM   14  H   UNK N   1      17.777  18.336   1.985  0.00  0.00     0.150 HD
HETATM   15  H   UNK N   1      18.972  19.451   2.444  0.00  0.00     0.150 HD
ENDBRANCH   1  13
TORSDOF 7
ENDMDL
MODEL 2
REMARK VINA RESULT:      -4.6     10.098     11.545
REMARK  7 active torsions:
REMARK  status: ('A' for Active; 'I' for Inactive)
REMARK    1  A    between atoms: C_3  and  C_2 
REMARK    2  A    between atoms: C_4  and  C_2 
REMARK    3  A    between atoms: C_5  and  C_3 
REMARK    4  A    between atoms: O_9  and  C_4 
REMARK    5  A    between atoms: C_6  and  C_5 
REMARK    6  A    between atoms: C_5  and  N_7 
REMARK    7  A    between atoms: O_11  and  C_6 
ROOT
HETATM    1  C   UNK N   1      23.868  11.764  11.153  0.00  0.00     0.177 C 
ENDROOT
BRANCH   1   2
HETATM    2  C   UNK N   1      22.892  11.977   9.968  0.00  0.00     0.024 C 
HETATM    3  C   UNK N   1      23.563  11.683   8.630  0.00  0.00     0.013 C 
BRANCH   2   4
HETATM    4  C   UNK N   1      22.260  13.380   9.961  0.00  0.00     0.116 C 
BRANCH   4   5
HETATM    5  C   UNK N   1      20.765  13.418   9.840  0.00  0.00     0.139 C 
HETATM    6  O   UNK N   1      20.072  12.896  10.697  0.00  0.00    -0.650 OA
BRANCH   5   7
HETATM    7  O   UNK N   1      20.187  13.957   8.750  0.00  0.00    -0.776 OA
HETATM    8  H   UNK N   1      19.502  13.669   8.180  0.00  0.00     0.167 HD
ENDBRANCH   5   7
ENDBRANCH   4   5
ENDBRANCH   2   4
ENDBRANCH   1   2
BRANCH   1   9
HETATM    9  C   UNK N   1      23.180  11.829  12.501  0.00  0.00     0.163 C 
HETATM   10  O   UNK N   1      23.804  12.209  13.480  0.00  0.00    -0.648 OA
BRANCH   9  11
HETATM   11  O   UNK N   1      21.881  11.496  12.637  0.00  0.00    -0.775 OA
HETATM   12  H   UNK N   1      21.618  10.644  12.927  0.00  0.00     0.167 HD
ENDBRANCH   9  11
ENDBRANCH   1   9
BRANCH   1  13
HETATM   13  N   UNK N   1      24.902  12.788  11.122  0.00  0.00    -0.417 N 
HETATM   14  H   UNK N   1      25.313  13.369  10.392  0.00  0.00     0.150 HD
HETATM   15  H   UNK N   1      25.310  12.963  12.040  0.00  0.00     0.150 HD
ENDBRANCH   1  13
TORSDOF 7
ENDMDL
MODEL 3
REMARK VINA RESULT:      -4.5     14.591     15.884
REMARK  7 active torsions:
REMARK  status: ('A' for Active; 'I' for Inactive)
REMARK    1  A    between atoms: C_3  and  C_2 
REMARK    2  A    between atoms: C_4  and  C_2 
REMARK    3  A    between atoms: C_5  and  C_3 
REMARK    4  A    between atoms: O_9  and  C_4 
REMARK    5  A    between atoms: C_6  and  C_5 
REMARK    6  A    between atoms: C_5  and  N_7 
REMARK    7  A    between atoms: O_11  and  C_6 
ROOT
HETATM    1  C   UNK N   1      33.497  16.551   7.958  0.00  0.00     0.177 C 
ENDROOT
BRANCH   1   2
HETATM    2  C   UNK N   1      34.510  15.491   8.458  0.00  0.00     0.024 C 
HETATM    3  C   UNK N   1      34.139  14.091   7.980  0.00  0.00     0.013 C 
BRANCH   2   4
HETATM    4  C   UNK N   1      34.688  15.511   9.987  0.00  0.00     0.116 C 
BRANCH   4   5
HETATM    5  C   UNK N   1      35.751  16.435  10.504  0.00  0.00     0.139 C 
HETATM    6  O   UNK N   1      35.571  17.641  10.485  0.00  0.00    -0.650 OA
BRANCH   5   7
HETATM    7  O   UNK N   1      36.935  15.942  10.916  0.00  0.00    -0.776 OA
HETATM    8  H   UNK N   1      37.185  15.393  11.632  0.00  0.00     0.167 HD
ENDBRANCH   5   7
ENDBRANCH   4   5
ENDBRANCH   2   4
ENDBRANCH   1   2
BRANCH   1   9
HETATM    9  C   UNK N   1      34.163  17.720   7.261  0.00  0.00     0.163 C 
HETATM   10  O   UNK N   1      34.162  17.776   6.041  0.00  0.00    -0.648 OA
BRANCH   9  11
HETATM   11  O   UNK N   1      34.740  18.714   7.965  0.00  0.00    -0.775 OA
HETATM   12  H   UNK N   1      35.533  19.124   7.680  0.00  0.00     0.167 HD
ENDBRANCH   9  11
ENDBRANCH   1   9
BRANCH   1  13
HETATM   13  N   UNK N   1      32.737  17.070   9.086  0.00  0.00    -0.417 N 
HETATM   14  H   UNK N   1      31.837  16.842   9.509  0.00  0.00     0.150 HD
HETATM   15  H   UNK N   1      33.212  17.837   9.561  0.00  0.00     0.150 HD
ENDBRANCH   1  13
TORSDOF 7
ENDMDL
MODEL 4
REMARK VINA RESULT:      -4.2     14.881     16.278
REMARK  7 active torsions:
REMARK  status: ('A' for Active; 'I' for Inactive)
REMARK    1  A    between atoms: C_3  and  C_2 
REMARK    2  A    between atoms: C_4  and  C_2 
REMARK    3  A    between atoms: C_5  and  C_3 
REMARK    4  A    between atoms: O_9  and  C_4 
REMARK    5  A    between atoms: C_6  and  C_5 
REMARK    6  A    between atoms: C_5  and  N_7 
REMARK    7  A    between atoms: O_11  and  C_6 
ROOT
HETATM    1  C   UNK N   1      34.192  17.191   9.163  0.00  0.00     0.177 C 
ENDROOT
BRANCH   1   2
HETATM    2  C   UNK N   1      34.255  15.744   8.610  0.00  0.00     0.024 C 
HETATM    3  C   UNK N   1      32.861  15.146   8.448  0.00  0.00     0.013 C 
BRANCH   2   4
HETATM    4  C   UNK N   1      35.146  14.820   9.459  0.00  0.00     0.116 C 
BRANCH   4   5
HETATM    5  C   UNK N   1      34.447  14.077  10.560  0.00  0.00     0.139 C 
HETATM    6  O   UNK N   1      34.198  14.642  11.612  0.00  0.00    -0.650 OA
BRANCH   5   7
HETATM    7  O   UNK N   1      34.166  12.768  10.421  0.00  0.00    -0.776 OA
HETATM    8  H   UNK N   1      34.278  12.026  10.982  0.00  0.00     0.167 HD
ENDBRANCH   5   7
ENDBRANCH   4   5
ENDBRANCH   2   4
ENDBRANCH   1   2
BRANCH   1   9
HETATM    9  C   UNK N   1      34.676  18.223   8.165  0.00  0.00     0.163 C 
HETATM   10  O   UNK N   1      34.440  18.072   6.976  0.00  0.00    -0.648 OA
BRANCH   9  11
HETATM   11  O   UNK N   1      35.346  19.321   8.569  0.00  0.00    -0.775 OA
HETATM   12  H   UNK N   1      34.968  20.177   8.513  0.00  0.00     0.167 HD
ENDBRANCH   9  11
ENDBRANCH   1   9
BRANCH   1  13
HETATM   13  N   UNK N   1      35.018  17.292  10.357  0.00  0.00    -0.417 N 
HETATM   14  H   UNK N   1      35.392  16.622  11.028  0.00  0.00     0.150 HD
HETATM   15  H   UNK N   1      35.284  18.253  10.572  0.00  0.00     0.150 HD
ENDBRANCH   1  13
TORSDOF 7
ENDMDL
MODEL 5
REMARK VINA RESULT:      -4.2     15.114     16.301
REMARK  7 active torsions:
REMARK  status: ('A' for Active; 'I' for Inactive)
REMARK    1  A    between atoms: C_3  and  C_2 
REMARK    2  A    between atoms: C_4  and  C_2 
REMARK    3  A    between atoms: C_5  and  C_3 
REMARK    4  A    between atoms: O_9  and  C_4 
REMARK    5  A    between atoms: C_6  and  C_5 
REMARK    6  A    between atoms: C_5  and  N_7 
REMARK    7  A    between atoms: O_11  and  C_6 
ROOT
HETATM    1  C   UNK N   1      35.214  15.979  10.224  0.00  0.00     0.177 C 
ENDROOT
BRANCH   1   2
HETATM    2  C   UNK N   1      34.187  15.953   9.064  0.00  0.00     0.024 C 
HETATM    3  C   UNK N   1      34.788  15.355   7.796  0.00  0.00     0.013 C 
BRANCH   2   4
HETATM    4  C   UNK N   1      33.579  17.337   8.775  0.00  0.00     0.116 C 
BRANCH   4   5
HETATM    5  C   UNK N   1      34.413  18.247   7.922  0.00  0.00     0.139 C 
HETATM    6  O   UNK N   1      34.367  18.154   6.707  0.00  0.00    -0.650 OA
BRANCH   5   7
HETATM    7  O   UNK N   1      35.272  19.112   8.495  0.00  0.00    -0.776 OA
HETATM    8  H   UNK N   1      36.204  19.121   8.589  0.00  0.00     0.167 HD
ENDBRANCH   5   7
ENDBRANCH   4   5
ENDBRANCH   2   4
ENDBRANCH   1   2
BRANCH   1   9
HETATM    9  C   UNK N   1      34.954  14.910  11.265  0.00  0.00     0.163 C 
HETATM   10  O   UNK N   1      35.858  14.557  12.007  0.00  0.00    -0.648 OA
BRANCH   9  11
HETATM   11  O   UNK N   1      33.734  14.355  11.403  0.00  0.00    -0.775 OA
HETATM   12  H   UNK N   1      33.483  13.590  10.924  0.00  0.00     0.167 HD
ENDBRANCH   9  11
ENDBRANCH   1   9
BRANCH   1  13
HETATM   13  N   UNK N   1      35.171  17.275  10.885  0.00  0.00    -0.417 N 
HETATM   14  H   UNK N   1      35.129  17.583  11.856  0.00  0.00     0.150 HD
HETATM   15  H   UNK N   1      35.183  18.054  10.226  0.00  0.00     0.150 HD
ENDBRANCH   1  13
TORSDOF 7
ENDMDL
MODEL 6
REMARK VINA RESULT:      -4.2     10.547     11.720
REMARK  7 active torsions:
REMARK  status: ('A' for Active; 'I' for Inactive)
REMARK    1  A    between atoms: C_3  and  C_2 
REMARK    2  A    between atoms: C_4  and  C_2 
REMARK    3  A    between atoms: C_5  and  C_3 
REMARK    4  A    between atoms: O_9  and  C_4 
REMARK    5  A    between atoms: C_6  and  C_5 
REMARK    6  A    between atoms: C_5  and  N_7 
REMARK    7  A    between atoms: O_11  and  C_6 
ROOT
HETATM    1  C   UNK N   1      30.620  23.506  -3.692  0.00  0.00     0.177 C 
ENDROOT
BRANCH   1   2
HETATM    2  C   UNK N   1      29.235  23.157  -4.292  0.00  0.00     0.024 C 
HETATM    3  C   UNK N   1      29.365  22.545  -5.683  0.00  0.00     0.013 C 
BRANCH   2   4
HETATM    4  C   UNK N   1      28.275  24.360  -4.317  0.00  0.00     0.116 C 
BRANCH   4   5
HETATM    5  C   UNK N   1      27.205  24.358  -3.265  0.00  0.00     0.139 C 
HETATM    6  O   UNK N   1      26.265  25.129  -3.353  0.00  0.00    -0.650 OA
BRANCH   5   7
HETATM    7  O   UNK N   1      27.319  23.563  -2.185  0.00  0.00    -0.776 OA
HETATM    8  H   UNK N   1      27.591  22.674  -2.070  0.00  0.00     0.167 HD
ENDBRANCH   5   7
ENDBRANCH   4   5
ENDBRANCH   2   4
ENDBRANCH   1   2
BRANCH   1   9
HETATM    9  C   UNK N   1      30.890  22.796  -2.382  0.00  0.00     0.163 C 
HETATM   10  O   UNK N   1      30.211  23.058  -1.401  0.00  0.00    -0.648 OA
BRANCH   9  11
HETATM   11  O   UNK N   1      31.855  21.860  -2.283  0.00  0.00    -0.775 OA
HETATM   12  H   UNK N   1      31.945  21.175  -2.916  0.00  0.00     0.167 HD
ENDBRANCH   9  11
ENDBRANCH   1   9
BRANCH   1  13
HETATM   13  N   UNK N   1      30.700  24.940  -3.454  0.00  0.00    -0.417 N 
HETATM   14  H   UNK N   1      30.019  25.672  -3.254  0.00  0.00     0.150 HD
HETATM   15  H   UNK N   1      31.656  25.294  -3.500  0.00  0.00     0.150 HD
ENDBRANCH   1  13
TORSDOF 7
ENDMDL
MODEL 7
REMARK VINA RESULT:      -4.2     16.883     18.311
REMARK  7 active torsions:
REMARK  status: ('A' for Active; 'I' for Inactive)
REMARK    1  A    between atoms: C_3  and  C_2 
REMARK    2  A    between atoms: C_4  and  C_2 
REMARK    3  A    between atoms: C_5  and  C_3 
REMARK    4  A    between atoms: O_9  and  C_4 
REMARK    5  A    between atoms: C_6  and  C_5 
REMARK    6  A    between atoms: C_5  and  N_7 
REMARK    7  A    between atoms: O_11  and  C_6 
ROOT
HETATM    1  C   UNK N   1      34.827  14.987  10.218  0.00  0.00     0.177 C 
ENDROOT
BRANCH   1   2
HETATM    2  C   UNK N   1      35.500  13.664  10.665  0.00  0.00     0.024 C 
HETATM    3  C   UNK N   1      35.421  12.600   9.576  0.00  0.00     0.013 C 
BRANCH   2   4
HETATM    4  C   UNK N   1      34.933  13.126  11.991  0.00  0.00     0.116 C 
BRANCH   4   5
HETATM    5  C   UNK N   1      35.635  13.591  13.233  0.00  0.00     0.139 C 
HETATM    6  O   UNK N   1      35.060  13.549  14.308  0.00  0.00    -0.650 OA
BRANCH   5   7
HETATM    7  O   UNK N   1      36.867  14.128  13.154  0.00  0.00    -0.776 OA
HETATM    8  H   UNK N   1      37.534  14.294  13.789  0.00  0.00     0.167 HD
ENDBRANCH   5   7
ENDBRANCH   4   5
ENDBRANCH   2   4
ENDBRANCH   1   2
BRANCH   1   9
HETATM    9  C   UNK N   1      35.652  16.211  10.558  0.00  0.00     0.163 C 
HETATM   10  O   UNK N   1      35.133  17.317  10.529  0.00  0.00    -0.648 OA
BRANCH   9  11
HETATM   11  O   UNK N   1      36.947  16.101  10.915  0.00  0.00    -0.775 OA
HETATM   12  H   UNK N   1      37.420  15.298  10.815  0.00  0.00     0.167 HD
ENDBRANCH   9  11
ENDBRANCH   1   9
BRANCH   1  13
HETATM   13  N   UNK N   1      33.532  15.119  10.869  0.00  0.00    -0.417 N 
HETATM   14  H   UNK N   1      32.578  15.274  10.541  0.00  0.00     0.150 HD
HETATM   15  H   UNK N   1      33.590  15.039  11.884  0.00  0.00     0.150 HD
ENDBRANCH   1  13
TORSDOF 7
ENDMDL
MODEL 8
REMARK VINA RESULT:      -4.2     12.598     13.802
REMARK  7 active torsions:
REMARK  status: ('A' for Active; 'I' for Inactive)
REMARK    1  A    between atoms: C_3  and  C_2 
REMARK    2  A    between atoms: C_4  and  C_2 
REMARK    3  A    between atoms: C_5  and  C_3 
REMARK    4  A    between atoms: O_9  and  C_4 
REMARK    5  A    between atoms: C_6  and  C_5 
REMARK    6  A    between atoms: C_5  and  N_7 
REMARK    7  A    between atoms: O_11  and  C_6 
ROOT
HETATM    1  C   UNK N   1      31.895  16.523   7.080  0.00  0.00     0.177 C 
ENDROOT
BRANCH   1   2
HETATM    2  C   UNK N   1      32.954  17.525   6.554  0.00  0.00     0.024 C 
HETATM    3  C   UNK N   1      33.037  17.504   5.031  0.00  0.00     0.013 C 
BRANCH   2   4
HETATM    4  C   UNK N   1      34.344  17.305   7.176  0.00  0.00     0.116 C 
BRANCH   4   5
HETATM    5  C   UNK N   1      34.603  18.033   8.462  0.00  0.00     0.139 C 
HETATM    6  O   UNK N   1      35.195  19.099   8.449  0.00  0.00    -0.650 OA
BRANCH   5   7
HETATM    7  O   UNK N   1      34.254  17.476   9.637  0.00  0.00    -0.776 OA
HETATM    8  H   UNK N   1      33.433  17.210  10.000  0.00  0.00     0.167 HD
ENDBRANCH   5   7
ENDBRANCH   4   5
ENDBRANCH   2   4
ENDBRANCH   1   2
BRANCH   1   9
HETATM    9  C   UNK N   1      30.899  17.162   8.025  0.00  0.00     0.163 C 
HETATM   10  O   UNK N   1      29.705  17.112   7.769  0.00  0.00    -0.648 OA
BRANCH   9  11
HETATM   11  O   UNK N   1      31.304  17.767   9.160  0.00  0.00    -0.775 OA
HETATM   12  H   UNK N   1      32.147  18.170   9.230  0.00  0.00     0.167 HD
ENDBRANCH   9  11
ENDBRANCH   1   9
BRANCH   1  13
HETATM   13  N   UNK N   1      32.560  15.439   7.788  0.00  0.00    -0.417 N 
HETATM   14  H   UNK N   1      32.689  15.198   8.770  0.00  0.00     0.150 HD
HETATM   15  H   UNK N   1      32.999  14.768   7.157  0.00  0.00     0.150 HD
ENDBRANCH   1  13
TORSDOF 7
ENDMDL
MODEL 9
REMARK VINA RESULT:      -4.2     12.785     14.159
REMARK  7 active torsions:
REMARK  status: ('A' for Active; 'I' for Inactive)
REMARK    1  A    between atoms: C_3  and  C_2 
REMARK    2  A    between atoms: C_4  and  C_2 
REMARK    3  A    between atoms: C_5  and  C_3 
REMARK    4  A    between atoms: O_9  and  C_4 
REMARK    5  A    between atoms: C_6  and  C_5 
REMARK    6  A    between atoms: C_5  and  N_7 
REMARK    7  A    between atoms: O_11  and  C_6 
ROOT
HETATM    1  C   UNK N   1      33.332  17.733   8.882  0.00  0.00     0.177 C 
ENDROOT
BRANCH   1   2
HETATM    2  C   UNK N   1      32.012  17.443   8.123  0.00  0.00     0.024 C 
HETATM    3  C   UNK N   1      30.837  18.199   8.735  0.00  0.00     0.013 C 
BRANCH   2   4
HETATM    4  C   UNK N   1      31.698  15.939   8.027  0.00  0.00     0.116 C 
BRANCH   4   5
HETATM    5  C   UNK N   1      31.909  15.317   6.678  0.00  0.00     0.139 C 
HETATM    6  O   UNK N   1      32.439  15.960   5.788  0.00  0.00    -0.650 OA
BRANCH   5   7
HETATM    7  O   UNK N   1      31.442  14.080   6.423  0.00  0.00    -0.776 OA
HETATM    8  H   UNK N   1      31.859  13.249   6.317  0.00  0.00     0.167 HD
ENDBRANCH   5   7
ENDBRANCH   4   5
ENDBRANCH   2   4
ENDBRANCH   1   2
BRANCH   1   9
HETATM    9  C   UNK N   1      34.413  18.301   7.985  0.00  0.00     0.163 C 
HETATM   10  O   UNK N   1      35.214  19.104   8.439  0.00  0.00    -0.648 OA
BRANCH   9  11
HETATM   11  O   UNK N   1      34.522  17.918   6.697  0.00  0.00    -0.775 OA
HETATM   12  H   UNK N   1      34.339  18.506   5.991  0.00  0.00     0.167 HD
ENDBRANCH   9  11
ENDBRANCH   1   9
BRANCH   1  13
HETATM   13  N   UNK N   1      33.835  16.502   9.474  0.00  0.00    -0.417 N 
HETATM   14  H   UNK N   1      34.265  16.261  10.367  0.00  0.00     0.150 HD
HETATM   15  H   UNK N   1      33.736  15.698   8.854  0.00  0.00     0.150 HD
ENDBRANCH   1  13
TORSDOF 7
ENDMDL
