MODEL 1
REMARK VINA RESULT:      -5.0      0.000      0.000
REMARK  0 active torsions:
REMARK  status: ('A' for Active; 'I' for Inactive)
ROOT
HETATM    1  C   UNK N   1      36.971  14.494  15.649  0.00  0.00     0.107 A 
HETATM    2  C   UNK N   1      36.141  13.379  15.515  0.00  0.00     0.116 A 
HETATM    3  C   UNK N   1      35.823  15.295  10.299  0.00  0.00     0.182 A 
HETATM    4  C   UNK N   1      34.892  12.481  13.591  0.00  0.00     0.191 A 
HETATM    5  C   UNK N   1      36.003  14.637  12.310  0.00  0.00     0.122 A 
HETATM    6  C   UNK N   1      35.190  13.782  11.656  0.00  0.00     0.138 A 
HETATM    7  C   UNK N   1      36.271  14.414  13.638  0.00  0.00     0.143 A 
HETATM    8  N   UNK N   1      37.044  15.139  14.457  0.00  0.00    -0.349 N 
ATOM      9  HN  UNK N   1      37.570  15.985  14.236  1.00  0.00     0.167 HD
HETATM   10  N   UNK N   1      36.419  15.601  11.485  0.00  0.00    -0.346 N 
ATOM     11  HN  UNK N   1      37.038  16.384  11.694  1.00  0.00     0.167 HD
HETATM   12  N   UNK N   1      35.056  14.170  10.382  0.00  0.00    -0.337 N 
HETATM   13  N   UNK N   1      34.618  12.698  12.259  0.00  0.00    -0.336 N 
ATOM     14  HN  UNK N   1      34.008  12.068  11.739  1.00  0.00     0.168 HD
HETATM   15  N   UNK N   1      35.718  13.357  14.244  0.00  0.00    -0.301 N 
HETATM   16  H   UNK N   1      34.526  13.743   9.670  0.00  0.00     0.168 HD
ENDROOT
TORSDOF 0
ENDMDL
MODEL 2
REMARK VINA RESULT:      -4.9      9.534     11.309
REMARK  0 active torsions:
REMARK  status: ('A' for Active; 'I' for Inactive)
ROOT
HETATM    1  C   UNK N   1      28.390  18.130   9.139  0.00  0.00     0.107 A 
HETATM    2  C   UNK N   1      29.279  17.445   8.309  0.00  0.00     0.116 A 
HETATM    3  C   UNK N   1      26.756  20.559   4.447  0.00  0.00     0.182 A 
HETATM    4  C   UNK N   1      29.663  17.539   5.877  0.00  0.00     0.191 A 
HETATM    5  C   UNK N   1      27.662  19.412   5.987  0.00  0.00     0.122 A 
HETATM    6  C   UNK N   1      28.244  19.082   4.815  0.00  0.00     0.138 A 
HETATM    7  C   UNK N   1      28.088  18.793   7.136  0.00  0.00     0.143 A 
HETATM    8  N   UNK N   1      27.643  18.979   8.387  0.00  0.00    -0.349 N 
ATOM      9  HN  UNK N   1      26.910  19.613   8.703  1.00  0.00     0.167 HD
HETATM   10  N   UNK N   1      26.722  20.339   5.791  0.00  0.00    -0.346 N 
ATOM     11  HN  UNK N   1      26.118  20.780   6.486  1.00  0.00     0.167 HD
HETATM   12  N   UNK N   1      27.693  19.790   3.822  0.00  0.00    -0.337 N 
HETATM   13  N   UNK N   1      29.242  18.155   4.720  0.00  0.00    -0.336 N 
ATOM     14  HN  UNK N   1      29.663  17.926   3.820  1.00  0.00     0.168 HD
HETATM   15  N   UNK N   1      29.065  17.882   7.061  0.00  0.00    -0.301 N 
HETATM   16  H   UNK N   1      27.913  19.762   2.862  0.00  0.00     0.168 HD
ENDROOT
TORSDOF 0
ENDMDL
MODEL 3
REMARK VINA RESULT:      -4.8      2.234      5.230
REMARK  0 active torsions:
REMARK  status: ('A' for Active; 'I' for Inactive)
ROOT
HETATM    1  C   UNK N   1      32.299  14.643   8.428  0.00  0.00     0.107 A 
HETATM    2  C   UNK N   1      32.898  15.897   8.289  0.00  0.00     0.116 A 
HETATM    3  C   UNK N   1      35.680  14.132  12.775  0.00  0.00     0.182 A 
HETATM    4  C   UNK N   1      34.650  17.036   9.593  0.00  0.00     0.191 A 
HETATM    5  C   UNK N   1      34.570  14.722  11.063  0.00  0.00     0.122 A 
HETATM    6  C   UNK N   1      35.416  15.723  11.386  0.00  0.00     0.138 A 
HETATM    7  C   UNK N   1      33.742  14.876   9.979  0.00  0.00     0.143 A 
HETATM    8  N   UNK N   1      32.841  14.008   9.499  0.00  0.00    -0.349 N 
ATOM      9  HN  UNK N   1      32.613  13.080   9.856  1.00  0.00     0.167 HD
HETATM   10  N   UNK N   1      34.712  13.705  11.917  0.00  0.00    -0.346 N 
ATOM     11  HN  UNK N   1      34.211  12.816  11.925  1.00  0.00     0.167 HD
HETATM   12  N   UNK N   1      36.131  15.381  12.464  0.00  0.00    -0.337 N 
HETATM   13  N   UNK N   1      35.483  16.889  10.679  0.00  0.00    -0.336 N 
ATOM     14  HN  UNK N   1      36.132  17.629  10.946  1.00  0.00     0.168 HD
HETATM   15  N   UNK N   1      33.797  16.012   9.275  0.00  0.00    -0.301 N 
HETATM   16  H   UNK N   1      36.822  15.909  12.926  0.00  0.00     0.168 HD
ENDROOT
TORSDOF 0
ENDMDL
MODEL 4
REMARK VINA RESULT:      -4.8      2.275      3.930
REMARK  0 active torsions:
REMARK  status: ('A' for Active; 'I' for Inactive)
ROOT
HETATM    1  C   UNK N   1      35.445  13.585  12.664  0.00  0.00     0.107 A 
HETATM    2  C   UNK N   1      35.970  14.871  12.523  0.00  0.00     0.116 A 
HETATM    3  C   UNK N   1      32.219  15.041   8.415  0.00  0.00     0.182 A 
HETATM    4  C   UNK N   1      35.442  16.700  10.959  0.00  0.00     0.191 A 
HETATM    5  C   UNK N   1      33.622  14.886  10.001  0.00  0.00     0.122 A 
HETATM    6  C   UNK N   1      33.736  16.114   9.452  0.00  0.00     0.138 A 
HETATM    7  C   UNK N   1      34.435  14.551  11.055  0.00  0.00     0.143 A 
HETATM    8  N   UNK N   1      34.477  13.395  11.731  0.00  0.00    -0.349 N 
ATOM      9  HN  UNK N   1      33.909  12.561  11.580  1.00  0.00     0.167 HD
HETATM   10  N   UNK N   1      32.675  14.185   9.371  0.00  0.00    -0.346 N 
ATOM     11  HN  UNK N   1      32.367  13.232   9.562  1.00  0.00     0.167 HD
HETATM   12  N   UNK N   1      32.863  16.243   8.447  0.00  0.00    -0.337 N 
HETATM   13  N   UNK N   1      34.630  17.043   9.902  0.00  0.00    -0.336 N 
ATOM     14  HN  UNK N   1      34.694  17.963   9.467  1.00  0.00     0.168 HD
HETATM   15  N   UNK N   1      35.317  15.451  11.507  0.00  0.00    -0.301 N 
HETATM   16  H   UNK N   1      32.718  17.024   7.865  0.00  0.00     0.168 HD
ENDROOT
TORSDOF 0
ENDMDL
MODEL 5
REMARK VINA RESULT:      -4.7     18.244     19.532
REMARK  0 active torsions:
REMARK  status: ('A' for Active; 'I' for Inactive)
ROOT
HETATM    1  C   UNK N   1      20.916  20.812   2.137  0.00  0.00     0.107 A 
HETATM    2  C   UNK N   1      21.033  20.179   3.375  0.00  0.00     0.116 A 
HETATM    3  C   UNK N   1      19.445  15.794   0.338  0.00  0.00     0.182 A 
HETATM    4  C   UNK N   1      20.665  17.844   4.070  0.00  0.00     0.191 A 
HETATM    5  C   UNK N   1      20.046  17.521   1.417  0.00  0.00     0.122 A 
HETATM    6  C   UNK N   1      19.996  16.481   2.276  0.00  0.00     0.138 A 
HETATM    7  C   UNK N   1      20.415  18.756   1.891  0.00  0.00     0.143 A 
HETATM    8  N   UNK N   1      20.525  19.903   1.207  0.00  0.00    -0.349 N 
ATOM      9  HN  UNK N   1      20.353  20.059   0.214  1.00  0.00     0.167 HD
HETATM   10  N   UNK N   1      19.705  17.123   0.189  0.00  0.00    -0.346 N 
ATOM     11  HN  UNK N   1      19.652  17.683  -0.662  1.00  0.00     0.167 HD
HETATM   12  N   UNK N   1      19.619  15.375   1.624  0.00  0.00    -0.337 N 
HETATM   13  N   UNK N   1      20.297  16.603   3.602  0.00  0.00    -0.336 N 
ATOM     14  HN  UNK N   1      20.250  15.799   4.228  1.00  0.00     0.168 HD
HETATM   15  N   UNK N   1      20.713  18.892   3.188  0.00  0.00    -0.301 N 
HETATM   16  H   UNK N   1      19.496  14.468   1.989  0.00  0.00     0.168 HD
ENDROOT
TORSDOF 0
ENDMDL
MODEL 6
REMARK VINA RESULT:      -4.7      6.525      8.058
REMARK  0 active torsions:
REMARK  status: ('A' for Active; 'I' for Inactive)
ROOT
HETATM    1  C   UNK N   1      29.019  17.961   9.456  0.00  0.00     0.107 A 
HETATM    2  C   UNK N   1      28.825  17.618   8.117  0.00  0.00     0.116 A 
HETATM    3  C   UNK N   1      34.389  17.773   8.148  0.00  0.00     0.182 A 
HETATM    4  C   UNK N   1      30.414  17.196   6.282  0.00  0.00     0.191 A 
HETATM    5  C   UNK N   1      32.267  17.737   8.230  0.00  0.00     0.122 A 
HETATM    6  C   UNK N   1      32.648  17.430   6.972  0.00  0.00     0.138 A 
HETATM    7  C   UNK N   1      30.927  17.777   8.527  0.00  0.00     0.143 A 
HETATM    8  N   UNK N   1      30.350  18.058   9.703  0.00  0.00    -0.349 N 
ATOM      9  HN  UNK N   1      30.807  18.293  10.584  1.00  0.00     0.167 HD
HETATM   10  N   UNK N   1      33.338  17.959   8.996  0.00  0.00    -0.346 N 
ATOM     11  HN  UNK N   1      33.364  18.209   9.984  1.00  0.00     0.167 HD
HETATM   12  N   UNK N   1      33.983  17.444   6.888  0.00  0.00    -0.337 N 
HETATM   13  N   UNK N   1      31.755  17.155   5.976  0.00  0.00    -0.336 N 
ATOM     14  HN  UNK N   1      32.072  16.925   5.035  1.00  0.00     0.168 HD
HETATM   15  N   UNK N   1      30.039  17.510   7.562  0.00  0.00    -0.301 N 
HETATM   16  H   UNK N   1      34.544  17.259   6.099  0.00  0.00     0.168 HD
ENDROOT
TORSDOF 0
ENDMDL
MODEL 7
REMARK VINA RESULT:      -4.7      1.279      2.762
REMARK  0 active torsions:
REMARK  status: ('A' for Active; 'I' for Inactive)
ROOT
HETATM    1  C   UNK N   1      34.287  10.829  14.751  0.00  0.00     0.107 A 
HETATM    2  C   UNK N   1      35.309  11.425  15.491  0.00  0.00     0.116 A 
HETATM    3  C   UNK N   1      35.221  14.954  11.188  0.00  0.00     0.182 A 
HETATM    4  C   UNK N   1      36.689  13.424  15.077  0.00  0.00     0.191 A 
HETATM    5  C   UNK N   1      35.183  13.558  12.788  0.00  0.00     0.122 A 
HETATM    6  C   UNK N   1      36.137  14.477  13.049  0.00  0.00     0.138 A 
HETATM    7  C   UNK N   1      34.973  12.545  13.690  0.00  0.00     0.143 A 
HETATM    8  N   UNK N   1      34.084  11.545  13.615  0.00  0.00    -0.349 N 
ATOM      9  HN  UNK N   1      33.407  11.363  12.874  1.00  0.00     0.167 HD
HETATM   10  N   UNK N   1      34.588  13.830  11.624  0.00  0.00    -0.346 N 
ATOM     11  HN  UNK N   1      33.834  13.315  11.168  1.00  0.00     0.167 HD
HETATM   12  N   UNK N   1      36.185  15.373  12.057  0.00  0.00    -0.337 N 
HETATM   13  N   UNK N   1      36.906  14.443  14.177  0.00  0.00    -0.336 N 
ATOM     14  HN  UNK N   1      37.619  15.151  14.349  1.00  0.00     0.168 HD
HETATM   15  N   UNK N   1      35.718  12.497  14.800  0.00  0.00    -0.301 N 
HETATM   16  H   UNK N   1      36.780  16.154  11.973  0.00  0.00     0.168 HD
ENDROOT
TORSDOF 0
ENDMDL
MODEL 8
REMARK VINA RESULT:      -4.6     13.888     15.916
REMARK  0 active torsions:
REMARK  status: ('A' for Active; 'I' for Inactive)
ROOT
HETATM    1  C   UNK N   1      41.122  21.509   2.369  0.00  0.00     0.107 A 
HETATM    2  C   UNK N   1      41.998  20.899   3.269  0.00  0.00     0.116 A 
HETATM    3  C   UNK N   1      45.259  25.107   1.645  0.00  0.00     0.182 A 
HETATM    4  C   UNK N   1      44.292  21.462   3.968  0.00  0.00     0.191 A 
HETATM    5  C   UNK N   1      43.946  23.534   2.206  0.00  0.00     0.122 A 
HETATM    6  C   UNK N   1      45.101  23.386   2.888  0.00  0.00     0.138 A 
HETATM    7  C   UNK N   1      42.936  22.627   2.405  0.00  0.00     0.143 A 
HETATM    8  N   UNK N   1      41.726  22.599   1.830  0.00  0.00    -0.349 N 
ATOM      9  HN  UNK N   1      41.345  23.249   1.142  1.00  0.00     0.167 HD
HETATM   10  N   UNK N   1      44.013  24.608   1.414  0.00  0.00    -0.346 N 
ATOM     11  HN  UNK N   1      43.298  24.970   0.783  1.00  0.00     0.167 HD
HETATM   12  N   UNK N   1      45.952  24.364   2.556  0.00  0.00    -0.337 N 
HETATM   13  N   UNK N   1      45.310  22.368   3.773  0.00  0.00    -0.336 N 
ATOM     14  HN  UNK N   1      46.193  22.280   4.276  1.00  0.00     0.168 HD
HETATM   15  N   UNK N   1      43.125  21.623   3.269  0.00  0.00    -0.301 N 
HETATM   16  H   UNK N   1      46.866  24.514   2.892  0.00  0.00     0.168 HD
ENDROOT
TORSDOF 0
ENDMDL
MODEL 9
REMARK VINA RESULT:      -4.6      9.009     11.212
REMARK  0 active torsions:
REMARK  status: ('A' for Active; 'I' for Inactive)
ROOT
HETATM    1  C   UNK N   1      26.487  20.538   5.787  0.00  0.00     0.107 A 
HETATM    2  C   UNK N   1      27.280  19.805   4.901  0.00  0.00     0.116 A 
HETATM    3  C   UNK N   1      29.294  17.797   9.686  0.00  0.00     0.182 A 
HETATM    4  C   UNK N   1      29.044  18.127   5.276  0.00  0.00     0.191 A 
HETATM    5  C   UNK N   1      28.465  18.619   7.911  0.00  0.00     0.122 A 
HETATM    6  C   UNK N   1      29.416  17.726   7.562  0.00  0.00     0.138 A 
HETATM    7  C   UNK N   1      27.784  19.285   6.923  0.00  0.00     0.143 A 
HETATM    8  N   UNK N   1      26.815  20.200   7.061  0.00  0.00    -0.349 N 
ATOM      9  HN  UNK N   1      26.414  20.561   7.926  1.00  0.00     0.167 HD
HETATM   10  N   UNK N   1      28.364  18.687   9.241  0.00  0.00    -0.346 N 
ATOM     11  HN  UNK N   1      27.736  19.271   9.795  1.00  0.00     0.167 HD
HETATM   12  N   UNK N   1      29.958  17.190   8.661  0.00  0.00    -0.337 N 
HETATM   13  N   UNK N   1      29.731  17.455   6.261  0.00  0.00    -0.336 N 
ATOM     14  HN  UNK N   1      30.454  16.775   6.027  1.00  0.00     0.168 HD
HETATM   15  N   UNK N   1      28.082  19.030   5.643  0.00  0.00    -0.301 N 
HETATM   16  H   UNK N   1      30.671  16.513   8.717  0.00  0.00     0.168 HD
ENDROOT
TORSDOF 0
ENDMDL
