MODEL 1
REMARK VINA RESULT:      -8.3      0.000      0.000
REMARK  10 active torsions:
REMARK  status: ('A' for Active; 'I' for Inactive)
REMARK    1  A    between atoms: C_4  and  O_5 
REMARK    2  A    between atoms: C_16  and  C_17 
REMARK    3  A    between atoms: C_18  and  C_19 
REMARK    4  A    between atoms: C_19  and  C_20 
REMARK    5  A    between atoms: C_20  and  C_21 
REMARK    6  A    between atoms: C_21  and  C_22 
REMARK    7  A    between atoms: C_22  and  C_23 
REMARK    8  A    between atoms: C_23  and  C_24 
REMARK    9  A    between atoms: C_24  and  C_25 
REMARK   10  A    between atoms: C_25  and  O_26 
ROOT
HETATM    1  C   UNK N   1      22.754  10.480   0.809  0.00  0.00     0.040 C 
HETATM    2  C   UNK N   1      23.790  11.532   1.169  0.00  0.00     0.132 C 
HETATM    3  C   UNK N   1      23.220  12.933   0.945  0.00  0.00     0.085 C 
HETATM    4  C   UNK N   1      22.213  13.333   2.036  0.00  0.00     0.216 C 
HETATM    5  N   UNK N   1      21.726  14.682   1.776  0.00  0.00    -0.384 N 
HETATM    6  C   UNK N   1      21.483  15.356   3.049  0.00  0.00     0.173 C 
HETATM    7  C   UNK N   1      20.290  16.293   2.877  0.00  0.00     0.035 C 
HETATM    8  C   UNK N   1      19.663  16.705   4.197  0.00  0.00     0.004 C 
HETATM    9  C   UNK N   1      20.581  17.657   4.928  0.00  0.00     0.022 C 
HETATM   10  C   UNK N   1      21.639  16.826   5.609  0.00  0.00     0.163 C 
HETATM   11  N   UNK N   1      22.821  16.631   4.790  0.00  0.00    -0.190 N 
HETATM   12  O   UNK N   1      23.995  17.029   5.309  0.00  0.00    -0.083 OA
HETATM   13 Fe   UNK N   1      25.331  15.575   5.425  0.00  0.00     0.000 Fe
HETATM   14  O   UNK N   1      26.577  16.808   6.088  0.00  0.00    -0.212 OA
HETATM   15  C   UNK N   1      27.810  16.328   5.588  0.00  0.00     0.286 C 
HETATM   16  N   UNK N   1      27.575  15.242   4.625  0.00  0.00    -0.127 NA
HETATM   17  C   UNK N   1      28.789  14.549   4.241  0.00  0.00     0.127 C 
HETATM   18  C   UNK N   1      28.728  14.339   2.740  0.00  0.00     0.017 C 
HETATM   19  C   UNK N   1      29.099  12.917   2.394  0.00  0.00     0.004 C 
HETATM   20  C   UNK N   1      28.115  12.337   1.382  0.00  0.00     0.035 C 
HETATM   21  C   UNK N   1      26.804  11.826   2.002  0.00  0.00     0.184 C 
HETATM   22  N   UNK N   1      27.116  11.067   3.204  0.00  0.00    -0.345 N 
HETATM   23  C   UNK N   1      26.194  10.486   4.009  0.00  0.00     0.243 C 
HETATM   24  O   UNK N   1      26.561   9.924   5.029  0.00  0.00    -0.271 OA
HETATM   25  C   UNK N   1      24.732  10.563   3.678  0.00  0.00     0.200 A 
HETATM   26  C   UNK N   1      23.856   9.480   4.349  0.00  0.00     0.212 A 
HETATM   27  O   UNK N   1      22.958  10.213   5.096  0.00  0.00    -0.333 OA
HETATM   28  C   UNK N   1      23.236  11.514   5.006  0.00  0.00     0.152 A 
HETATM   29  N   UNK N   1      24.202  11.770   4.228  0.00  0.00    -0.355 N 
ATOM     30  HN  UNK N   1      24.552  12.706   4.024  1.00  0.00     0.162 HD
HETATM   31  C   UNK N   1      22.619  12.530   5.877  0.00  0.00     0.051 A 
HETATM   32  C   UNK N   1      21.617  12.143   6.773  0.00  0.00     0.018 A 
HETATM   33  C   UNK N   1      21.144  13.039   7.733  0.00  0.00     0.001 A 
HETATM   34  C   UNK N   1      21.725  14.301   7.851  0.00  0.00     0.003 A 
HETATM   35  C   UNK N   1      22.732  14.685   6.968  0.00  0.00     0.041 A 
HETATM   36  C   UNK N   1      23.143  13.833   5.943  0.00  0.00     0.121 A 
HETATM   37  O   UNK N   1      24.067  14.239   5.053  0.00  0.00    -0.191 OA
HETATM   38  C   UNK N   1      26.127  10.966   0.951  0.00  0.00     0.282 C 
HETATM   39  O   UNK N   1      26.725   9.997   0.508  0.00  0.00    -0.263 OA
HETATM   40  O   UNK N   1      24.917  11.287   0.416  0.00  0.00    -0.315 OA
HETATM   41  O   UNK N   1      26.725  14.363   5.210  0.00  0.00    -0.117 OA
HETATM   42  C   UNK N   1      22.752  16.042   3.553  0.00  0.00     0.268 C 
HETATM   43  O   UNK N   1      23.769  15.986   2.866  0.00  0.00    -0.269 OA
HETATM   44  H   UNK N   1      21.577  15.090   0.852  0.00  0.00     0.156 HD
HETATM   45  H   UNK N   1      28.065  10.969   3.450  0.00  0.00     0.163 HD
ENDROOT
BRANCH  15  46
HETATM   46  C   UNK N   1      28.426  17.527   4.964  0.00  0.00     0.021 C 
HETATM   47  C   UNK N   1      27.636  18.328   4.254  0.00  0.00    -0.027 C 
BRANCH  47  48
HETATM   48  C   UNK N   1      27.899  19.786   4.264  0.00  0.00     0.027 C 
BRANCH  48  49
HETATM   49  C   UNK N   1      26.531  20.477   4.352  0.00  0.00     0.004 C 
BRANCH  49  50
HETATM   50  C   UNK N   1      25.461  19.692   3.582  0.00  0.00     0.000 C 
BRANCH  50  51
HETATM   51  C   UNK N   1      24.322  20.567   3.075  0.00  0.00     0.001 C 
BRANCH  51  52
HETATM   52  C   UNK N   1      22.983  19.835   3.049  0.00  0.00     0.010 C 
BRANCH  52  53
HETATM   53  C   UNK N   1      21.783  20.739   2.763  0.00  0.00     0.110 C 
BRANCH  53  54
HETATM   54  C   UNK N   1      21.046  20.334   1.529  0.00  0.00     0.139 C 
HETATM   55  O   UNK N   1      21.454  20.684   0.433  0.00  0.00    -0.650 OA
BRANCH  54  56
HETATM   56  O   UNK N   1      19.958  19.547   1.620  0.00  0.00    -0.776 OA
HETATM   57  H   UNK N   1      19.234  19.548   2.213  0.00  0.00     0.167 HD
ENDBRANCH  54  56
ENDBRANCH  53  54
ENDBRANCH  52  53
ENDBRANCH  51  52
ENDBRANCH  50  51
ENDBRANCH  49  50
ENDBRANCH  48  49
ENDBRANCH  47  48
ENDBRANCH  15  46
BRANCH   4  58
HETATM   58  O   UNK N   1      21.128  12.452   2.067  0.00  0.00    -0.377 OA
HETATM   59  H   UNK N   1      20.706  12.121   1.258  0.00  0.00     0.212 HD
ENDBRANCH   4  58
TORSDOF 10
ENDMDL
MODEL 2
REMARK VINA RESULT:      -8.2      2.353      6.959
REMARK  10 active torsions:
REMARK  status: ('A' for Active; 'I' for Inactive)
REMARK    1  A    between atoms: C_4  and  O_5 
REMARK    2  A    between atoms: C_16  and  C_17 
REMARK    3  A    between atoms: C_18  and  C_19 
REMARK    4  A    between atoms: C_19  and  C_20 
REMARK    5  A    between atoms: C_20  and  C_21 
REMARK    6  A    between atoms: C_21  and  C_22 
REMARK    7  A    between atoms: C_22  and  C_23 
REMARK    8  A    between atoms: C_23  and  C_24 
REMARK    9  A    between atoms: C_24  and  C_25 
REMARK   10  A    between atoms: C_25  and  O_26 
ROOT
HETATM    1  C   UNK N   1      19.804  15.454   7.694  0.00  0.00     0.040 C 
HETATM    2  C   UNK N   1      21.188  15.637   7.092  0.00  0.00     0.132 C 
HETATM    3  C   UNK N   1      22.182  14.681   7.752  0.00  0.00     0.085 C 
HETATM    4  C   UNK N   1      22.000  13.231   7.272  0.00  0.00     0.216 C 
HETATM    5  N   UNK N   1      22.989  12.378   7.921  0.00  0.00    -0.384 N 
HETATM    6  C   UNK N   1      23.388  11.321   6.995  0.00  0.00     0.173 C 
HETATM    7  C   UNK N   1      23.682  10.060   7.803  0.00  0.00     0.035 C 
HETATM    8  C   UNK N   1      23.670   8.797   6.959  0.00  0.00     0.004 C 
HETATM    9  C   UNK N   1      24.886   8.766   6.062  0.00  0.00     0.022 C 
HETATM   10  C   UNK N   1      24.590   9.647   4.875  0.00  0.00     0.163 C 
HETATM   11  N   UNK N   1      25.016  11.021   5.069  0.00  0.00    -0.190 N 
HETATM   12  O   UNK N   1      25.873  11.527   4.166  0.00  0.00    -0.083 OA
HETATM   13 Fe   UNK N   1      25.191  13.152   3.267  0.00  0.00     0.000 Fe
HETATM   14  O   UNK N   1      26.811  13.284   2.334  0.00  0.00    -0.212 OA
HETATM   15  C   UNK N   1      26.987  14.679   2.178  0.00  0.00     0.286 C 
HETATM   16  N   UNK N   1      25.981  15.405   2.968  0.00  0.00    -0.127 NA
HETATM   17  C   UNK N   1      25.951  16.826   2.684  0.00  0.00     0.127 C 
HETATM   18  C   UNK N   1      25.838  17.545   4.015  0.00  0.00     0.017 C 
HETATM   19  C   UNK N   1      24.772  18.612   3.944  0.00  0.00     0.004 C 
HETATM   20  C   UNK N   1      23.874  18.556   5.177  0.00  0.00     0.035 C 
HETATM   21  C   UNK N   1      22.778  17.480   5.106  0.00  0.00     0.184 C 
HETATM   22  N   UNK N   1      22.168  17.515   3.786  0.00  0.00    -0.345 N 
HETATM   23  C   UNK N   1      21.175  16.689   3.373  0.00  0.00     0.243 C 
HETATM   24  O   UNK N   1      20.778  16.762   2.221  0.00  0.00    -0.271 OA
HETATM   25  C   UNK N   1      20.595  15.666   4.306  0.00  0.00     0.200 A 
HETATM   26  C   UNK N   1      19.188  15.157   3.915  0.00  0.00     0.212 A 
HETATM   27  O   UNK N   1      19.374  13.801   3.748  0.00  0.00    -0.333 OA
HETATM   28  C   UNK N   1      20.660  13.489   3.909  0.00  0.00     0.152 A 
HETATM   29  N   UNK N   1      21.383  14.478   4.229  0.00  0.00    -0.355 N 
ATOM     30  HN  UNK N   1      22.387  14.433   4.405  1.00  0.00     0.162 HD
HETATM   31  C   UNK N   1      21.218  12.172   3.554  0.00  0.00     0.051 A 
HETATM   32  C   UNK N   1      20.354  11.159   3.125  0.00  0.00     0.018 A 
HETATM   33  C   UNK N   1      20.866   9.966   2.610  0.00  0.00     0.001 A 
HETATM   34  C   UNK N   1      22.242   9.812   2.452  0.00  0.00     0.003 A 
HETATM   35  C   UNK N   1      23.105  10.825   2.867  0.00  0.00     0.041 A 
HETATM   36  C   UNK N   1      22.608  11.979   3.472  0.00  0.00     0.121 A 
HETATM   37  O   UNK N   1      23.452  12.921   3.932  0.00  0.00    -0.191 OA
HETATM   38  C   UNK N   1      21.776  17.803   6.200  0.00  0.00     0.282 C 
HETATM   39  O   UNK N   1      21.222  18.892   6.189  0.00  0.00    -0.263 OA
HETATM   40  O   UNK N   1      21.540  16.961   7.243  0.00  0.00    -0.315 OA
HETATM   41  O   UNK N   1      24.773  14.865   2.674  0.00  0.00    -0.117 OA
HETATM   42  C   UNK N   1      24.545  11.781   6.109  0.00  0.00     0.268 C 
HETATM   43  O   UNK N   1      25.009  12.907   6.278  0.00  0.00    -0.269 OA
HETATM   44  H   UNK N   1      23.344  12.499   8.870  0.00  0.00     0.156 HD
HETATM   45  H   UNK N   1      22.501  18.186   3.146  0.00  0.00     0.163 HD
ENDROOT
BRANCH  15  46
HETATM   46  C   UNK N   1      28.373  14.913   2.655  0.00  0.00     0.021 C 
HETATM   47  C   UNK N   1      28.577  14.942   3.969  0.00  0.00    -0.027 C 
BRANCH  47  48
HETATM   48  C   UNK N   1      29.854  14.417   4.507  0.00  0.00     0.027 C 
BRANCH  48  49
HETATM   49  C   UNK N   1      30.703  15.637   4.889  0.00  0.00     0.004 C 
BRANCH  49  50
HETATM   50  C   UNK N   1      30.804  15.789   6.412  0.00  0.00     0.000 C 
BRANCH  50  51
HETATM   51  C   UNK N   1      30.462  17.191   6.900  0.00  0.00     0.001 C 
BRANCH  51  52
HETATM   52  C   UNK N   1      29.018  17.583   6.597  0.00  0.00     0.010 C 
BRANCH  52  53
HETATM   53  C   UNK N   1      27.982  16.869   7.467  0.00  0.00     0.110 C 
BRANCH  53  54
HETATM   54  C   UNK N   1      27.831  17.506   8.810  0.00  0.00     0.139 C 
HETATM   55  O   UNK N   1      27.795  16.813   9.813  0.00  0.00    -0.650 OA
BRANCH  54  56
HETATM   56  O   UNK N   1      27.777  18.847   8.918  0.00  0.00    -0.776 OA
HETATM   57  H   UNK N   1      27.063  19.435   9.062  0.00  0.00     0.167 HD
ENDBRANCH  54  56
ENDBRANCH  53  54
ENDBRANCH  52  53
ENDBRANCH  51  52
ENDBRANCH  50  51
ENDBRANCH  49  50
ENDBRANCH  48  49
ENDBRANCH  47  48
ENDBRANCH  15  46
BRANCH   4  58
HETATM   58  O   UNK N   1      20.720  12.758   7.573  0.00  0.00    -0.377 OA
HETATM   59  H   UNK N   1      20.054  13.310   8.013  0.00  0.00     0.212 HD
ENDBRANCH   4  58
TORSDOF 10
ENDMDL
MODEL 3
REMARK VINA RESULT:      -7.9      1.945      3.896
REMARK  10 active torsions:
REMARK  status: ('A' for Active; 'I' for Inactive)
REMARK    1  A    between atoms: C_4  and  O_5 
REMARK    2  A    between atoms: C_16  and  C_17 
REMARK    3  A    between atoms: C_18  and  C_19 
REMARK    4  A    between atoms: C_19  and  C_20 
REMARK    5  A    between atoms: C_20  and  C_21 
REMARK    6  A    between atoms: C_21  and  C_22 
REMARK    7  A    between atoms: C_22  and  C_23 
REMARK    8  A    between atoms: C_23  and  C_24 
REMARK    9  A    between atoms: C_24  and  C_25 
REMARK   10  A    between atoms: C_25  and  O_26 
ROOT
HETATM    1  C   UNK N   1      21.949  10.916   0.741  0.00  0.00     0.040 C 
HETATM    2  C   UNK N   1      23.199  11.698   1.109  0.00  0.00     0.132 C 
HETATM    3  C   UNK N   1      22.962  13.196   0.918  0.00  0.00     0.085 C 
HETATM    4  C   UNK N   1      22.081  13.791   2.029  0.00  0.00     0.216 C 
HETATM    5  N   UNK N   1      21.911  15.221   1.800  0.00  0.00    -0.384 N 
HETATM    6  C   UNK N   1      21.837  15.904   3.089  0.00  0.00     0.173 C 
HETATM    7  C   UNK N   1      20.888  17.092   2.950  0.00  0.00     0.035 C 
HETATM    8  C   UNK N   1      20.381  17.607   4.285  0.00  0.00     0.004 C 
HETATM    9  C   UNK N   1      21.496  18.309   5.023  0.00  0.00     0.022 C 
HETATM   10  C   UNK N   1      22.342  17.246   5.675  0.00  0.00     0.163 C 
HETATM   11  N   UNK N   1      23.443  16.805   4.838  0.00  0.00    -0.190 N 
HETATM   12  O   UNK N   1      24.681  16.915   5.351  0.00  0.00    -0.083 OA
HETATM   13 Fe   UNK N   1      25.652  15.192   5.422  0.00  0.00     0.000 Fe
HETATM   14  O   UNK N   1      27.151  16.095   6.093  0.00  0.00    -0.212 OA
HETATM   15  C   UNK N   1      28.239  15.359   5.569  0.00  0.00     0.286 C 
HETATM   16  N   UNK N   1      27.756  14.376   4.588  0.00  0.00    -0.127 NA
HETATM   17  C   UNK N   1      28.777  13.433   4.176  0.00  0.00     0.127 C 
HETATM   18  C   UNK N   1      28.658  13.275   2.672  0.00  0.00     0.017 C 
HETATM   19  C   UNK N   1      28.694  11.813   2.295  0.00  0.00     0.004 C 
HETATM   20  C   UNK N   1      27.596  11.494   1.284  0.00  0.00     0.035 C 
HETATM   21  C   UNK N   1      26.208  11.281   1.910  0.00  0.00     0.184 C 
HETATM   22  N   UNK N   1      26.348  10.446   3.093  0.00  0.00    -0.345 N 
HETATM   23  C   UNK N   1      25.324  10.072   3.898  0.00  0.00     0.243 C 
HETATM   24  O   UNK N   1      25.561   9.420   4.903  0.00  0.00    -0.271 OA
HETATM   25  C   UNK N   1      23.915  10.487   3.586  0.00  0.00     0.200 A 
HETATM   26  C   UNK N   1      22.821   9.617   4.248  0.00  0.00     0.212 A 
HETATM   27  O   UNK N   1      22.119  10.519   5.019  0.00  0.00    -0.333 OA
HETATM   28  C   UNK N   1      22.686  11.724   4.950  0.00  0.00     0.152 A 
HETATM   29  N   UNK N   1      23.678  11.770   4.166  0.00  0.00    -0.355 N 
ATOM     30  HN  UNK N   1      24.231  12.606   3.975  1.00  0.00     0.162 HD
HETATM   31  C   UNK N   1      22.322  12.834   5.849  0.00  0.00     0.051 A 
HETATM   32  C   UNK N   1      21.265  12.666   6.749  0.00  0.00     0.018 A 
HETATM   33  C   UNK N   1      21.016  13.625   7.732  0.00  0.00     0.001 A 
HETATM   34  C   UNK N   1      21.869  14.719   7.867  0.00  0.00     0.003 A 
HETATM   35  C   UNK N   1      22.930  14.884   6.979  0.00  0.00     0.041 A 
HETATM   36  C   UNK N   1      23.129  13.982   5.933  0.00  0.00     0.121 A 
HETATM   37  O   UNK N   1      24.115  14.187   5.040  0.00  0.00    -0.191 OA
HETATM   38  C   UNK N   1      25.346  10.621   0.851  0.00  0.00     0.282 C 
HETATM   39  O   UNK N   1      25.704   9.550   0.382  0.00  0.00    -0.263 OA
HETATM   40  O   UNK N   1      24.236  11.219   0.337  0.00  0.00    -0.315 OA
HETATM   41  O   UNK N   1      26.733  13.700   5.167  0.00  0.00    -0.117 OA
HETATM   42  C   UNK N   1      23.233  16.274   3.591  0.00  0.00     0.268 C 
HETATM   43  O   UNK N   1      24.205  16.003   2.890  0.00  0.00    -0.269 OA
HETATM   44  H   UNK N   1      21.852  15.672   0.887  0.00  0.00     0.156 HD
HETATM   45  H   UNK N   1      27.252  10.129   3.325  0.00  0.00     0.163 HD
ENDROOT
BRANCH  15  46
HETATM   46  C   UNK N   1      29.107  16.400   4.961  0.00  0.00     0.021 C 
HETATM   47  C   UNK N   1      30.184  16.780   5.642  0.00  0.00    -0.027 C 
BRANCH  47  48
HETATM   48  C   UNK N   1      31.408  17.152   4.896  0.00  0.00     0.027 C 
BRANCH  48  49
HETATM   49  C   UNK N   1      32.525  17.309   5.937  0.00  0.00     0.004 C 
BRANCH  49  50
HETATM   50  C   UNK N   1      32.070  16.822   7.319  0.00  0.00     0.000 C 
BRANCH  50  51
HETATM   51  C   UNK N   1      32.271  17.858   8.417  0.00  0.00     0.001 C 
BRANCH  51  52
HETATM   52  C   UNK N   1      30.970  18.545   8.825  0.00  0.00     0.010 C 
BRANCH  52  53
HETATM   53  C   UNK N   1      29.789  17.588   9.002  0.00  0.00     0.110 C 
BRANCH  53  54
HETATM   54  C   UNK N   1      28.480  18.239   8.698  0.00  0.00     0.139 C 
HETATM   55  O   UNK N   1      28.380  18.987   7.739  0.00  0.00    -0.650 OA
BRANCH  54  56
HETATM   56  O   UNK N   1      27.400  17.969   9.454  0.00  0.00    -0.776 OA
HETATM   57  H   UNK N   1      26.534  18.326   9.459  0.00  0.00     0.167 HD
ENDBRANCH  54  56
ENDBRANCH  53  54
ENDBRANCH  52  53
ENDBRANCH  51  52
ENDBRANCH  50  51
ENDBRANCH  49  50
ENDBRANCH  48  49
ENDBRANCH  47  48
ENDBRANCH  15  46
BRANCH   4  58
HETATM   58  O   UNK N   1      20.823  13.179   2.057  0.00  0.00    -0.377 OA
HETATM   59  H   UNK N   1      20.686  12.264   1.765  0.00  0.00     0.212 HD
ENDBRANCH   4  58
TORSDOF 10
ENDMDL
MODEL 4
REMARK VINA RESULT:      -7.7      3.081      7.654
REMARK  10 active torsions:
REMARK  status: ('A' for Active; 'I' for Inactive)
REMARK    1  A    between atoms: C_4  and  O_5 
REMARK    2  A    between atoms: C_16  and  C_17 
REMARK    3  A    between atoms: C_18  and  C_19 
REMARK    4  A    between atoms: C_19  and  C_20 
REMARK    5  A    between atoms: C_20  and  C_21 
REMARK    6  A    between atoms: C_21  and  C_22 
REMARK    7  A    between atoms: C_22  and  C_23 
REMARK    8  A    between atoms: C_23  and  C_24 
REMARK    9  A    between atoms: C_24  and  C_25 
REMARK   10  A    between atoms: C_25  and  O_26 
ROOT
HETATM    1  C   UNK N   1      18.828  12.556   4.564  0.00  0.00     0.040 C 
HETATM    2  C   UNK N   1      20.054  13.425   4.792  0.00  0.00     0.132 C 
HETATM    3  C   UNK N   1      21.042  12.713   5.716  0.00  0.00     0.085 C 
HETATM    4  C   UNK N   1      21.793  11.577   5.000  0.00  0.00     0.216 C 
HETATM    5  N   UNK N   1      22.731  10.955   5.927  0.00  0.00    -0.384 N 
HETATM    6  C   UNK N   1      23.917  10.528   5.190  0.00  0.00     0.173 C 
HETATM    7  C   UNK N   1      24.449   9.250   5.834  0.00  0.00     0.035 C 
HETATM    8  C   UNK N   1      25.383   8.470   4.926  0.00  0.00     0.004 C 
HETATM    9  C   UNK N   1      26.696   9.203   4.785  0.00  0.00     0.022 C 
HETATM   10  C   UNK N   1      26.495  10.291   3.761  0.00  0.00     0.163 C 
HETATM   11  N   UNK N   1      26.083  11.553   4.349  0.00  0.00    -0.190 N 
HETATM   12  O   UNK N   1      26.857  12.623   4.100  0.00  0.00    -0.083 OA
HETATM   13 Fe   UNK N   1      25.879  14.109   3.233  0.00  0.00     0.000 Fe
HETATM   14  O   UNK N   1      27.444  15.139   3.294  0.00  0.00    -0.212 OA
HETATM   15  C   UNK N   1      26.962  16.458   3.461  0.00  0.00     0.286 C 
HETATM   16  N   UNK N   1      25.515  16.436   3.723  0.00  0.00    -0.127 NA
HETATM   17  C   UNK N   1      24.909  17.752   3.680  0.00  0.00     0.127 C 
HETATM   18  C   UNK N   1      23.954  17.843   4.855  0.00  0.00     0.017 C 
HETATM   19  C   UNK N   1      22.627  18.409   4.410  0.00  0.00     0.004 C 
HETATM   20  C   UNK N   1      21.475  17.590   4.984  0.00  0.00     0.035 C 
HETATM   21  C   UNK N   1      21.168  16.302   4.202  0.00  0.00     0.184 C 
HETATM   22  N   UNK N   1      21.187  16.600   2.778  0.00  0.00    -0.345 N 
HETATM   23  C   UNK N   1      20.972  15.690   1.797  0.00  0.00     0.243 C 
HETATM   24  O   UNK N   1      21.072  16.035   0.630  0.00  0.00    -0.271 OA
HETATM   25  C   UNK N   1      20.655  14.262   2.135  0.00  0.00     0.200 A 
HETATM   26  C   UNK N   1      19.954  13.469   1.008  0.00  0.00     0.212 A 
HETATM   27  O   UNK N   1      20.825  12.430   0.759  0.00  0.00    -0.333 OA
HETATM   28  C   UNK N   1      21.921  12.558   1.508  0.00  0.00     0.152 A 
HETATM   29  N   UNK N   1      21.881  13.548   2.296  0.00  0.00    -0.355 N 
ATOM     30  HN  UNK N   1      22.620  13.799   2.952  1.00  0.00     0.162 HD
HETATM   31  C   UNK N   1      23.138  11.753   1.295  0.00  0.00     0.051 A 
HETATM   32  C   UNK N   1      23.122  10.732   0.339  0.00  0.00     0.018 A 
HETATM   33  C   UNK N   1      24.303  10.077  -0.013  0.00  0.00     0.001 A 
HETATM   34  C   UNK N   1      25.516  10.491   0.534  0.00  0.00     0.003 A 
HETATM   35  C   UNK N   1      25.537  11.515   1.479  0.00  0.00     0.041 A 
HETATM   36  C   UNK N   1      24.351  12.110   1.909  0.00  0.00     0.121 A 
HETATM   37  O   UNK N   1      24.374  13.050   2.872  0.00  0.00    -0.191 OA
HETATM   38  C   UNK N   1      19.804  15.823   4.662  0.00  0.00     0.282 C 
HETATM   39  O   UNK N   1      18.844  16.568   4.532  0.00  0.00    -0.263 OA
HETATM   40  O   UNK N   1      19.625  14.632   5.298  0.00  0.00    -0.315 OA
HETATM   41  O   UNK N   1      24.947  15.651   2.775  0.00  0.00    -0.117 OA
HETATM   42  C   UNK N   1      24.942  11.659   5.102  0.00  0.00     0.268 C 
HETATM   43  O   UNK N   1      24.690  12.729   5.651  0.00  0.00    -0.269 OA
HETATM   44  H   UNK N   1      22.582  10.837   6.929  0.00  0.00     0.156 HD
HETATM   45  H   UNK N   1      21.367  17.530   2.508  0.00  0.00     0.163 HD
ENDROOT
BRANCH  15  46
HETATM   46  C   UNK N   1      27.748  16.976   4.609  0.00  0.00     0.021 C 
HETATM   47  C   UNK N   1      28.721  16.206   5.088  0.00  0.00    -0.027 C 
BRANCH  47  48
HETATM   48  C   UNK N   1      29.947  16.848   5.617  0.00  0.00     0.027 C 
BRANCH  48  49
HETATM   49  C   UNK N   1      30.788  17.257   4.400  0.00  0.00     0.004 C 
BRANCH  49  50
HETATM   50  C   UNK N   1      32.198  16.655   4.471  0.00  0.00     0.000 C 
BRANCH  50  51
HETATM   51  C   UNK N   1      33.206  17.566   5.157  0.00  0.00     0.001 C 
BRANCH  51  52
HETATM   52  C   UNK N   1      33.619  17.054   6.536  0.00  0.00     0.010 C 
BRANCH  52  53
HETATM   53  C   UNK N   1      33.359  18.045   7.672  0.00  0.00     0.110 C 
BRANCH  53  54
HETATM   54  C   UNK N   1      34.542  18.201   8.571  0.00  0.00     0.139 C 
HETATM   55  O   UNK N   1      34.806  17.334   9.387  0.00  0.00    -0.650 OA
BRANCH  54  56
HETATM   56  O   UNK N   1      35.341  19.278   8.453  0.00  0.00    -0.776 OA
HETATM   57  H   UNK N   1      35.809  19.783   9.088  0.00  0.00     0.167 HD
ENDBRANCH  54  56
ENDBRANCH  53  54
ENDBRANCH  52  53
ENDBRANCH  51  52
ENDBRANCH  50  51
ENDBRANCH  49  50
ENDBRANCH  48  49
ENDBRANCH  47  48
ENDBRANCH  15  46
BRANCH   4  58
HETATM   58  O   UNK N   1      20.905  10.606   4.527  0.00  0.00    -0.377 OA
HETATM   59  H   UNK N   1      20.478   9.963   5.117  0.00  0.00     0.212 HD
ENDBRANCH   4  58
TORSDOF 10
ENDMDL
MODEL 5
REMARK VINA RESULT:      -7.5      7.820     11.650
REMARK  10 active torsions:
REMARK  status: ('A' for Active; 'I' for Inactive)
REMARK    1  A    between atoms: C_4  and  O_5 
REMARK    2  A    between atoms: C_16  and  C_17 
REMARK    3  A    between atoms: C_18  and  C_19 
REMARK    4  A    between atoms: C_19  and  C_20 
REMARK    5  A    between atoms: C_20  and  C_21 
REMARK    6  A    between atoms: C_21  and  C_22 
REMARK    7  A    between atoms: C_22  and  C_23 
REMARK    8  A    between atoms: C_23  and  C_24 
REMARK    9  A    between atoms: C_24  and  C_25 
REMARK   10  A    between atoms: C_25  and  O_26 
ROOT
HETATM    1  C   UNK N   1      34.531   9.026   4.772  0.00  0.00     0.040 C 
HETATM    2  C   UNK N   1      34.034  10.433   5.064  0.00  0.00     0.132 C 
HETATM    3  C   UNK N   1      33.301  10.467   6.405  0.00  0.00     0.085 C 
HETATM    4  C   UNK N   1      34.269  10.398   7.598  0.00  0.00     0.216 C 
HETATM    5  N   UNK N   1      33.511  10.456   8.842  0.00  0.00    -0.384 N 
HETATM    6  C   UNK N   1      34.293  11.176   9.844  0.00  0.00     0.173 C 
HETATM    7  C   UNK N   1      33.997  10.567  11.213  0.00  0.00     0.035 C 
HETATM    8  C   UNK N   1      35.048  10.907  12.254  0.00  0.00     0.004 C 
HETATM    9  C   UNK N   1      34.939  12.363  12.639  0.00  0.00     0.022 C 
HETATM   10  C   UNK N   1      35.638  13.164  11.570  0.00  0.00     0.163 C 
HETATM   11  N   UNK N   1      34.748  13.585  10.504  0.00  0.00    -0.190 N 
HETATM   12  O   UNK N   1      34.672  14.905  10.259  0.00  0.00    -0.083 OA
HETATM   13 Fe   UNK N   1      35.141  15.382   8.397  0.00  0.00     0.000 Fe
HETATM   14  O   UNK N   1      34.749  17.173   8.785  0.00  0.00    -0.212 OA
HETATM   15  C   UNK N   1      34.250  17.673   7.560  0.00  0.00     0.286 C 
HETATM   16  N   UNK N   1      34.055  16.569   6.608  0.00  0.00    -0.127 NA
HETATM   17  C   UNK N   1      33.764  17.022   5.262  0.00  0.00     0.127 C 
HETATM   18  C   UNK N   1      32.643  16.150   4.729  0.00  0.00     0.017 C 
HETATM   19  C   UNK N   1      32.967  15.674   3.334  0.00  0.00     0.004 C 
HETATM   20  C   UNK N   1      32.676  14.183   3.194  0.00  0.00     0.035 C 
HETATM   21  C   UNK N   1      33.787  13.272   3.743  0.00  0.00     0.184 C 
HETATM   22  N   UNK N   1      35.076  13.788   3.309  0.00  0.00    -0.345 N 
HETATM   23  C   UNK N   1      36.273  13.236   3.627  0.00  0.00     0.243 C 
HETATM   24  O   UNK N   1      37.300  13.786   3.260  0.00  0.00    -0.271 OA
HETATM   25  C   UNK N   1      36.343  11.986   4.454  0.00  0.00     0.200 A 
HETATM   26  C   UNK N   1      37.667  11.197   4.326  0.00  0.00     0.212 A 
HETATM   27  O   UNK N   1      38.155  11.180   5.615  0.00  0.00    -0.333 OA
HETATM   28  C   UNK N   1      37.361  11.888   6.418  0.00  0.00     0.152 A 
HETATM   29  N   UNK N   1      36.337  12.351   5.835  0.00  0.00    -0.355 N 
ATOM     30  HN  UNK N   1      35.611  12.907   6.287  1.00  0.00     0.162 HD
HETATM   31  C   UNK N   1      37.739  12.266   7.792  0.00  0.00     0.051 A 
HETATM   32  C   UNK N   1      38.935  11.778   8.329  0.00  0.00     0.018 A 
HETATM   33  C   UNK N   1      39.408  12.260   9.551  0.00  0.00     0.001 A 
HETATM   34  C   UNK N   1      38.725  13.286  10.204  0.00  0.00     0.003 A 
HETATM   35  C   UNK N   1      37.540  13.782   9.665  0.00  0.00     0.041 A 
HETATM   36  C   UNK N   1      37.008  13.240   8.495  0.00  0.00     0.121 A 
HETATM   37  O   UNK N   1      35.828  13.678   8.020  0.00  0.00    -0.191 OA
HETATM   38  C   UNK N   1      33.522  11.881   3.200  0.00  0.00     0.282 C 
HETATM   39  O   UNK N   1      33.481  11.719   1.989  0.00  0.00    -0.263 OA
HETATM   40  O   UNK N   1      33.237  10.824   4.010  0.00  0.00    -0.315 OA
HETATM   41  O   UNK N   1      35.200  15.841   6.596  0.00  0.00    -0.117 OA
HETATM   42  C   UNK N   1      34.036  12.680   9.760  0.00  0.00     0.268 C 
HETATM   43  O   UNK N   1      33.229  13.097   8.932  0.00  0.00    -0.269 OA
HETATM   44  H   UNK N   1      32.583  10.058   8.989  0.00  0.00     0.156 HD
HETATM   45  H   UNK N   1      35.080  14.594   2.743  0.00  0.00     0.163 HD
ENDROOT
BRANCH  15  46
HETATM   46  C   UNK N   1      32.977  18.334   7.942  0.00  0.00     0.021 C 
HETATM   47  C   UNK N   1      31.889  17.575   8.028  0.00  0.00    -0.027 C 
BRANCH  47  48
HETATM   48  C   UNK N   1      30.869  17.898   9.054  0.00  0.00     0.027 C 
BRANCH  48  49
HETATM   49  C   UNK N   1      29.533  17.354   8.530  0.00  0.00     0.004 C 
BRANCH  49  50
HETATM   50  C   UNK N   1      28.545  18.492   8.241  0.00  0.00     0.000 C 
BRANCH  50  51
HETATM   51  C   UNK N   1      28.351  18.757   6.754  0.00  0.00     0.001 C 
BRANCH  51  52
HETATM   52  C   UNK N   1      28.862  17.613   5.880  0.00  0.00     0.010 C 
BRANCH  52  53
HETATM   53  C   UNK N   1      28.465  17.727   4.407  0.00  0.00     0.110 C 
BRANCH  53  54
HETATM   54  C   UNK N   1      29.059  16.641   3.573  0.00  0.00     0.139 C 
HETATM   55  O   UNK N   1      28.756  15.477   3.781  0.00  0.00    -0.650 OA
BRANCH  54  56
HETATM   56  O   UNK N   1      29.895  16.946   2.563  0.00  0.00    -0.776 OA
HETATM   57  H   UNK N   1      29.758  17.390   1.750  0.00  0.00     0.167 HD
ENDBRANCH  54  56
ENDBRANCH  53  54
ENDBRANCH  52  53
ENDBRANCH  51  52
ENDBRANCH  50  51
ENDBRANCH  49  50
ENDBRANCH  48  49
ENDBRANCH  47  48
ENDBRANCH  15  46
BRANCH   4  58
HETATM   58  O   UNK N   1      35.017   9.217   7.573  0.00  0.00    -0.377 OA
HETATM   59  H   UNK N   1      34.603   8.341   7.627  0.00  0.00     0.212 HD
ENDBRANCH   4  58
TORSDOF 10
ENDMDL
MODEL 6
REMARK VINA RESULT:      -7.4      1.941      3.455
REMARK  10 active torsions:
REMARK  status: ('A' for Active; 'I' for Inactive)
REMARK    1  A    between atoms: C_4  and  O_5 
REMARK    2  A    between atoms: C_16  and  C_17 
REMARK    3  A    between atoms: C_18  and  C_19 
REMARK    4  A    between atoms: C_19  and  C_20 
REMARK    5  A    between atoms: C_20  and  C_21 
REMARK    6  A    between atoms: C_21  and  C_22 
REMARK    7  A    between atoms: C_22  and  C_23 
REMARK    8  A    between atoms: C_23  and  C_24 
REMARK    9  A    between atoms: C_24  and  C_25 
REMARK   10  A    between atoms: C_25  and  O_26 
ROOT
HETATM    1  C   UNK N   1      24.368   9.201   0.414  0.00  0.00     0.040 C 
HETATM    2  C   UNK N   1      25.074  10.508   0.734  0.00  0.00     0.132 C 
HETATM    3  C   UNK N   1      24.204  11.694   0.319  0.00  0.00     0.085 C 
HETATM    4  C   UNK N   1      23.028  11.918   1.284  0.00  0.00     0.216 C 
HETATM    5  N   UNK N   1      22.252  13.072   0.845  0.00  0.00    -0.384 N 
HETATM    6  C   UNK N   1      21.729  13.769   2.018  0.00  0.00     0.173 C 
HETATM    7  C   UNK N   1      20.365  14.355   1.659  0.00  0.00     0.035 C 
HETATM    8  C   UNK N   1      19.531  14.707   2.878  0.00  0.00     0.004 C 
HETATM    9  C   UNK N   1      20.111  15.919   3.567  0.00  0.00     0.022 C 
HETATM   10  C   UNK N   1      21.268  15.445   4.410  0.00  0.00     0.163 C 
HETATM   11  N   UNK N   1      22.537  15.486   3.705  0.00  0.00    -0.190 N 
HETATM   12  O   UNK N   1      23.521  16.212   4.263  0.00  0.00    -0.083 OA
HETATM   13 Fe   UNK N   1      25.154  15.159   4.632  0.00  0.00     0.000 Fe
HETATM   14  O   UNK N   1      25.990  16.720   5.247  0.00  0.00    -0.212 OA
HETATM   15  C   UNK N   1      27.346  16.527   4.893  0.00  0.00     0.286 C 
HETATM   16  N   UNK N   1      27.479  15.339   4.038  0.00  0.00    -0.127 NA
HETATM   17  C   UNK N   1      28.858  14.945   3.821  0.00  0.00     0.127 C 
HETATM   18  C   UNK N   1      28.996  14.599   2.350  0.00  0.00     0.017 C 
HETATM   19  C   UNK N   1      29.736  13.293   2.188  0.00  0.00     0.004 C 
HETATM   20  C   UNK N   1      29.029  12.398   1.175  0.00  0.00     0.035 C 
HETATM   21  C   UNK N   1      27.829  11.626   1.749  0.00  0.00     0.184 C 
HETATM   22  N   UNK N   1      28.198  11.078   3.045  0.00  0.00    -0.345 N 
HETATM   23  C   UNK N   1      27.372  10.353   3.838  0.00  0.00     0.243 C 
HETATM   24  O   UNK N   1      27.764   9.992   4.936  0.00  0.00    -0.271 OA
HETATM   25  C   UNK N   1      25.975  10.028   3.394  0.00  0.00     0.200 A 
HETATM   26  C   UNK N   1      25.330   8.820   4.112  0.00  0.00     0.212 A 
HETATM   27  O   UNK N   1      24.211   9.363   4.708  0.00  0.00    -0.333 OA
HETATM   28  C   UNK N   1      24.170  10.679   4.499  0.00  0.00     0.152 A 
HETATM   29  N   UNK N   1      25.115  11.104   3.771  0.00  0.00    -0.355 N 
ATOM     30  HN  UNK N   1      25.243  12.077   3.494  1.00  0.00     0.162 HD
HETATM   31  C   UNK N   1      23.241  11.577   5.209  0.00  0.00     0.051 A 
HETATM   32  C   UNK N   1      22.281  11.026   6.065  0.00  0.00     0.018 A 
HETATM   33  C   UNK N   1      21.512  11.853   6.886  0.00  0.00     0.001 A 
HETATM   34  C   UNK N   1      21.751  13.225   6.910  0.00  0.00     0.003 A 
HETATM   35  C   UNK N   1      22.715  13.775   6.067  0.00  0.00     0.041 A 
HETATM   36  C   UNK N   1      23.421  12.971   5.173  0.00  0.00     0.121 A 
HETATM   37  O   UNK N   1      24.299  13.520   4.314  0.00  0.00    -0.191 OA
HETATM   38  C   UNK N   1      27.489  10.537   0.749  0.00  0.00     0.282 C 
HETATM   39  O   UNK N   1      28.347   9.716   0.458  0.00  0.00    -0.263 OA
HETATM   40  O   UNK N   1      26.295  10.493   0.095  0.00  0.00    -0.315 OA
HETATM   41  O   UNK N   1      26.818  14.326   4.651  0.00  0.00    -0.117 OA
HETATM   42  C   UNK N   1      22.735  14.795   2.537  0.00  0.00     0.268 C 
HETATM   43  O   UNK N   1      23.797  14.940   1.936  0.00  0.00    -0.269 OA
HETATM   44  H   UNK N   1      22.100  13.349  -0.125  0.00  0.00     0.156 HD
HETATM   45  H   UNK N   1      29.113  11.244   3.368  0.00  0.00     0.163 HD
ENDROOT
BRANCH  15  46
HETATM   46  C   UNK N   1      27.707  17.785   4.191  0.00  0.00     0.021 C 
HETATM   47  C   UNK N   1      26.716  18.523   3.699  0.00  0.00    -0.027 C 
BRANCH  47  48
HETATM   48  C   UNK N   1      26.853  19.998   3.701  0.00  0.00     0.027 C 
BRANCH  48  49
HETATM   49  C   UNK N   1      25.992  20.517   4.862  0.00  0.00     0.004 C 
BRANCH  49  50
HETATM   50  C   UNK N   1      26.742  21.578   5.678  0.00  0.00     0.000 C 
BRANCH  50  51
HETATM   51  C   UNK N   1      27.898  21.008   6.488  0.00  0.00     0.001 C 
BRANCH  51  52
HETATM   52  C   UNK N   1      27.511  19.749   7.261  0.00  0.00     0.010 C 
BRANCH  52  53
HETATM   53  C   UNK N   1      28.702  18.896   7.700  0.00  0.00     0.110 C 
BRANCH  53  54
HETATM   54  C   UNK N   1      28.570  18.417   9.108  0.00  0.00     0.139 C 
HETATM   55  O   UNK N   1      29.487  18.582   9.896  0.00  0.00    -0.650 OA
BRANCH  54  56
HETATM   56  O   UNK N   1      27.425  17.841   9.520  0.00  0.00    -0.776 OA
HETATM   57  H   UNK N   1      26.527  18.035   9.340  0.00  0.00     0.167 HD
ENDBRANCH  54  56
ENDBRANCH  53  54
ENDBRANCH  52  53
ENDBRANCH  51  52
ENDBRANCH  50  51
ENDBRANCH  49  50
ENDBRANCH  48  49
ENDBRANCH  47  48
ENDBRANCH  15  46
BRANCH   4  58
HETATM   58  O   UNK N   1      22.193  10.797   1.330  0.00  0.00    -0.377 OA
HETATM   59  H   UNK N   1      21.765  10.503   2.151  0.00  0.00     0.212 HD
ENDBRANCH   4  58
TORSDOF 10
ENDMDL
MODEL 7
REMARK VINA RESULT:      -7.3      3.092      5.533
REMARK  10 active torsions:
REMARK  status: ('A' for Active; 'I' for Inactive)
REMARK    1  A    between atoms: C_4  and  O_5 
REMARK    2  A    between atoms: C_16  and  C_17 
REMARK    3  A    between atoms: C_18  and  C_19 
REMARK    4  A    between atoms: C_19  and  C_20 
REMARK    5  A    between atoms: C_20  and  C_21 
REMARK    6  A    between atoms: C_21  and  C_22 
REMARK    7  A    between atoms: C_22  and  C_23 
REMARK    8  A    between atoms: C_23  and  C_24 
REMARK    9  A    between atoms: C_24  and  C_25 
REMARK   10  A    between atoms: C_25  and  O_26 
ROOT
HETATM    1  C   UNK N   1      21.726  11.038   0.635  0.00  0.00     0.040 C 
HETATM    2  C   UNK N   1      23.023  11.721   1.036  0.00  0.00     0.132 C 
HETATM    3  C   UNK N   1      22.898  13.235   0.865  0.00  0.00     0.085 C 
HETATM    4  C   UNK N   1      22.043  13.876   1.971  0.00  0.00     0.216 C 
HETATM    5  N   UNK N   1      21.981  15.318   1.762  0.00  0.00    -0.384 N 
HETATM    6  C   UNK N   1      21.934  15.986   3.060  0.00  0.00     0.173 C 
HETATM    7  C   UNK N   1      21.076  17.241   2.924  0.00  0.00     0.035 C 
HETATM    8  C   UNK N   1      20.583  17.773   4.258  0.00  0.00     0.004 C 
HETATM    9  C   UNK N   1      21.733  18.381   5.026  0.00  0.00     0.022 C 
HETATM   10  C   UNK N   1      22.488  17.249   5.675  0.00  0.00     0.163 C 
HETATM   11  N   UNK N   1      23.569  16.742   4.850  0.00  0.00    -0.190 N 
HETATM   12  O   UNK N   1      24.802  16.753   5.385  0.00  0.00    -0.083 OA
HETATM   13 Fe   UNK N   1      25.644  14.964   5.446  0.00  0.00     0.000 Fe
HETATM   14  O   UNK N   1      27.192  15.746   6.156  0.00  0.00    -0.212 OA
HETATM   15  C   UNK N   1      28.233  14.940   5.639  0.00  0.00     0.286 C 
HETATM   16  N   UNK N   1      27.698  14.009   4.634  0.00  0.00    -0.127 NA
HETATM   17  C   UNK N   1      28.656  13.001   4.225  0.00  0.00     0.127 C 
HETATM   18  C   UNK N   1      28.553  12.874   2.717  0.00  0.00     0.017 C 
HETATM   19  C   UNK N   1      28.489  11.419   2.317  0.00  0.00     0.004 C 
HETATM   20  C   UNK N   1      27.390  11.195   1.283  0.00  0.00     0.035 C 
HETATM   21  C   UNK N   1      25.979  11.075   1.882  0.00  0.00     0.184 C 
HETATM   22  N   UNK N   1      26.037  10.214   3.054  0.00  0.00    -0.345 N 
HETATM   23  C   UNK N   1      24.973   9.904   3.835  0.00  0.00     0.243 C 
HETATM   24  O   UNK N   1      25.145   9.222   4.833  0.00  0.00    -0.271 OA
HETATM   25  C   UNK N   1      23.604  10.425   3.506  0.00  0.00     0.200 A 
HETATM   26  C   UNK N   1      22.438   9.627   4.135  0.00  0.00     0.212 A 
HETATM   27  O   UNK N   1      21.790  10.567   4.908  0.00  0.00    -0.333 OA
HETATM   28  C   UNK N   1      22.443  11.728   4.868  0.00  0.00     0.152 A 
HETATM   29  N   UNK N   1      23.451  11.714   4.101  0.00  0.00    -0.355 N 
ATOM     30  HN  UNK N   1      24.066  12.510   3.934  1.00  0.00     0.162 HD
HETATM   31  C   UNK N   1      22.145  12.849   5.778  0.00  0.00     0.051 A 
HETATM   32  C   UNK N   1      21.063  12.744   6.657  0.00  0.00     0.018 A 
HETATM   33  C   UNK N   1      20.866  13.705   7.651  0.00  0.00     0.001 A 
HETATM   34  C   UNK N   1      21.793  14.732   7.818  0.00  0.00     0.003 A 
HETATM   35  C   UNK N   1      22.880  14.832   6.951  0.00  0.00     0.041 A 
HETATM   36  C   UNK N   1      23.032  13.934   5.895  0.00  0.00     0.121 A 
HETATM   37  O   UNK N   1      24.045  14.079   5.021  0.00  0.00    -0.191 OA
HETATM   38  C   UNK N   1      25.090  10.494   0.798  0.00  0.00     0.282 C 
HETATM   39  O   UNK N   1      25.378   9.408   0.318  0.00  0.00    -0.263 OA
HETATM   40  O   UNK N   1      24.036  11.180   0.274  0.00  0.00    -0.315 OA
HETATM   41  O   UNK N   1      26.618  13.401   5.185  0.00  0.00    -0.117 OA
HETATM   42  C   UNK N   1      23.343  16.246   3.591  0.00  0.00     0.268 C 
HETATM   43  O   UNK N   1      24.306  15.915   2.903  0.00  0.00    -0.269 OA
HETATM   44  H   UNK N   1      21.972  15.785   0.855  0.00  0.00     0.156 HD
HETATM   45  H   UNK N   1      26.910   9.829   3.296  0.00  0.00     0.163 HD
ENDROOT
BRANCH  15  46
HETATM   46  C   UNK N   1      29.185  15.924   5.062  0.00  0.00     0.021 C 
HETATM   47  C   UNK N   1      30.373  16.048   5.647  0.00  0.00    -0.027 C 
BRANCH  47  48
HETATM   48  C   UNK N   1      31.557  16.346   4.807  0.00  0.00     0.027 C 
BRANCH  48  49
HETATM   49  C   UNK N   1      32.501  17.198   5.666  0.00  0.00     0.004 C 
BRANCH  49  50
HETATM   50  C   UNK N   1      32.022  17.261   7.123  0.00  0.00     0.000 C 
BRANCH  50  51
HETATM   51  C   UNK N   1      33.005  17.965   8.049  0.00  0.00     0.001 C 
BRANCH  51  52
HETATM   52  C   UNK N   1      34.366  17.274   8.097  0.00  0.00     0.010 C 
BRANCH  52  53
HETATM   53  C   UNK N   1      34.432  16.091   9.065  0.00  0.00     0.110 C 
BRANCH  53  54
HETATM   54  C   UNK N   1      35.332  16.357  10.227  0.00  0.00     0.139 C 
HETATM   55  O   UNK N   1      36.442  15.853  10.265  0.00  0.00    -0.650 OA
BRANCH  54  56
HETATM   56  O   UNK N   1      34.937  17.187  11.210  0.00  0.00    -0.776 OA
HETATM   57  H   UNK N   1      34.265  17.838  11.247  0.00  0.00     0.167 HD
ENDBRANCH  54  56
ENDBRANCH  53  54
ENDBRANCH  52  53
ENDBRANCH  51  52
ENDBRANCH  50  51
ENDBRANCH  49  50
ENDBRANCH  48  49
ENDBRANCH  47  48
ENDBRANCH  15  46
BRANCH   4  58
HETATM   58  O   UNK N   1      20.744  13.358   1.967  0.00  0.00    -0.377 OA
HETATM   59  H   UNK N   1      20.076  13.629   2.617  0.00  0.00     0.212 HD
ENDBRANCH   4  58
TORSDOF 10
ENDMDL
MODEL 8
REMARK VINA RESULT:      -7.3     12.358     16.499
REMARK  10 active torsions:
REMARK  status: ('A' for Active; 'I' for Inactive)
REMARK    1  A    between atoms: C_4  and  O_5 
REMARK    2  A    between atoms: C_16  and  C_17 
REMARK    3  A    between atoms: C_18  and  C_19 
REMARK    4  A    between atoms: C_19  and  C_20 
REMARK    5  A    between atoms: C_20  and  C_21 
REMARK    6  A    between atoms: C_21  and  C_22 
REMARK    7  A    between atoms: C_22  and  C_23 
REMARK    8  A    between atoms: C_23  and  C_24 
REMARK    9  A    between atoms: C_24  and  C_25 
REMARK   10  A    between atoms: C_25  and  O_26 
ROOT
HETATM    1  C   UNK N   1      34.428  14.102   7.179  0.00  0.00     0.040 C 
HETATM    2  C   UNK N   1      34.471  13.731   8.652  0.00  0.00     0.132 C 
HETATM    3  C   UNK N   1      33.317  12.789   8.994  0.00  0.00     0.085 C 
HETATM    4  C   UNK N   1      33.556  11.362   8.473  0.00  0.00     0.216 C 
HETATM    5  N   UNK N   1      32.432  10.513   8.849  0.00  0.00    -0.384 N 
HETATM    6  C   UNK N   1      32.924   9.163   9.117  0.00  0.00     0.173 C 
HETATM    7  C   UNK N   1      31.850   8.167   8.686  0.00  0.00     0.035 C 
HETATM    8  C   UNK N   1      32.387   6.760   8.493  0.00  0.00     0.004 C 
HETATM    9  C   UNK N   1      32.723   6.149   9.832  0.00  0.00     0.022 C 
HETATM   10  C   UNK N   1      34.071   6.683  10.244  0.00  0.00     0.163 C 
HETATM   11  N   UNK N   1      33.982   7.892  11.043  0.00  0.00    -0.190 N 
HETATM   12  O   UNK N   1      34.560   7.865  12.256  0.00  0.00    -0.083 OA
HETATM   13 Fe   UNK N   1      35.933   9.269  12.498  0.00  0.00     0.000 Fe
HETATM   14  O   UNK N   1      36.175   8.692  14.265  0.00  0.00    -0.212 OA
HETATM   15  C   UNK N   1      36.502   9.881  14.956  0.00  0.00     0.286 C 
HETATM   16  N   UNK N   1      36.307  11.044  14.079  0.00  0.00    -0.127 NA
HETATM   17  C   UNK N   1      36.835  12.274  14.637  0.00  0.00     0.127 C 
HETATM   18  C   UNK N   1      35.807  13.359  14.380  0.00  0.00     0.017 C 
HETATM   19  C   UNK N   1      36.476  14.596  13.833  0.00  0.00     0.004 C 
HETATM   20  C   UNK N   1      35.698  15.144  12.640  0.00  0.00     0.035 C 
HETATM   21  C   UNK N   1      35.989  14.421  11.315  0.00  0.00     0.184 C 
HETATM   22  N   UNK N   1      37.425  14.220  11.193  0.00  0.00    -0.345 N 
HETATM   23  C   UNK N   1      38.031  13.598  10.152  0.00  0.00     0.243 C 
HETATM   24  O   UNK N   1      39.240  13.428  10.180  0.00  0.00    -0.271 OA
HETATM   25  C   UNK N   1      37.225  13.087   8.993  0.00  0.00     0.200 A 
HETATM   26  C   UNK N   1      38.029  12.870   7.690  0.00  0.00     0.212 A 
HETATM   27  O   UNK N   1      37.861  11.526   7.431  0.00  0.00    -0.333 OA
HETATM   28  C   UNK N   1      37.162  10.952   8.410  0.00  0.00     0.152 A 
HETATM   29  N   UNK N   1      36.774  11.767   9.298  0.00  0.00    -0.355 N 
ATOM     30  HN  UNK N   1      36.219  11.515  10.116  1.00  0.00     0.162 HD
HETATM   31  C   UNK N   1      37.028   9.490   8.551  0.00  0.00     0.051 A 
HETATM   32  C   UNK N   1      37.565   8.658   7.564  0.00  0.00     0.018 A 
HETATM   33  C   UNK N   1      37.615   7.276   7.757  0.00  0.00     0.001 A 
HETATM   34  C   UNK N   1      37.199   6.729   8.969  0.00  0.00     0.003 A 
HETATM   35  C   UNK N   1      36.675   7.557   9.960  0.00  0.00     0.041 A 
HETATM   36  C   UNK N   1      36.530   8.927   9.739  0.00  0.00     0.121 A 
HETATM   37  O   UNK N   1      35.960   9.708  10.674  0.00  0.00    -0.191 OA
HETATM   38  C   UNK N   1      35.446  15.302  10.206  0.00  0.00     0.282 C 
HETATM   39  O   UNK N   1      35.868  16.445  10.101  0.00  0.00    -0.263 OA
HETATM   40  O   UNK N   1      34.440  14.900   9.381  0.00  0.00    -0.315 OA
HETATM   41  O   UNK N   1      36.942  10.777  12.910  0.00  0.00    -0.117 OA
HETATM   42  C   UNK N   1      33.361   9.021  10.574  0.00  0.00     0.268 C 
HETATM   43  O   UNK N   1      33.235   9.984  11.327  0.00  0.00    -0.269 OA
HETATM   44  H   UNK N   1      31.459  10.813   8.914  0.00  0.00     0.156 HD
HETATM   45  H   UNK N   1      37.998  14.560  11.919  0.00  0.00     0.163 HD
ENDROOT
BRANCH  15  46
HETATM   46  C   UNK N   1      35.578   9.876  16.119  0.00  0.00     0.021 C 
HETATM   47  C   UNK N   1      36.109  10.026  17.329  0.00  0.00    -0.027 C 
BRANCH  47  48
HETATM   48  C   UNK N   1      35.342  10.764  18.361  0.00  0.00     0.027 C 
BRANCH  48  49
HETATM   49  C   UNK N   1      34.896   9.727  19.401  0.00  0.00     0.004 C 
BRANCH  49  50
HETATM   50  C   UNK N   1      33.651   8.964  18.927  0.00  0.00     0.000 C 
BRANCH  50  51
HETATM   51  C   UNK N   1      32.705   8.595  20.061  0.00  0.00     0.001 C 
BRANCH  51  52
HETATM   52  C   UNK N   1      33.337   8.779  21.439  0.00  0.00     0.010 C 
BRANCH  52  53
HETATM   53  C   UNK N   1      32.365   9.280  22.509  0.00  0.00     0.110 C 
BRANCH  53  54
HETATM   54  C   UNK N   1      32.772  10.602  23.072  0.00  0.00     0.139 C 
HETATM   55  O   UNK N   1      32.866  10.748  24.280  0.00  0.00    -0.650 OA
BRANCH  54  56
HETATM   56  O   UNK N   1      33.076  11.622  22.247  0.00  0.00    -0.776 OA
HETATM   57  H   UNK N   1      32.541  12.259  21.817  0.00  0.00     0.167 HD
ENDBRANCH  54  56
ENDBRANCH  53  54
ENDBRANCH  52  53
ENDBRANCH  51  52
ENDBRANCH  50  51
ENDBRANCH  49  50
ENDBRANCH  48  49
ENDBRANCH  47  48
ENDBRANCH  15  46
BRANCH   4  58
HETATM   58  O   UNK N   1      33.693  11.351   7.081  0.00  0.00    -0.377 OA
HETATM   59  H   UNK N   1      33.181  11.942   6.506  0.00  0.00     0.212 HD
ENDBRANCH   4  58
TORSDOF 10
ENDMDL
MODEL 9
REMARK VINA RESULT:      -7.0     12.455     16.618
REMARK  10 active torsions:
REMARK  status: ('A' for Active; 'I' for Inactive)
REMARK    1  A    between atoms: C_4  and  O_5 
REMARK    2  A    between atoms: C_16  and  C_17 
REMARK    3  A    between atoms: C_18  and  C_19 
REMARK    4  A    between atoms: C_19  and  C_20 
REMARK    5  A    between atoms: C_20  and  C_21 
REMARK    6  A    between atoms: C_21  and  C_22 
REMARK    7  A    between atoms: C_22  and  C_23 
REMARK    8  A    between atoms: C_23  and  C_24 
REMARK    9  A    between atoms: C_24  and  C_25 
REMARK   10  A    between atoms: C_25  and  O_26 
ROOT
HETATM    1  C   UNK N   1      34.676  10.491   6.288  0.00  0.00     0.040 C 
HETATM    2  C   UNK N   1      34.584  11.171   7.644  0.00  0.00     0.132 C 
HETATM    3  C   UNK N   1      33.796  10.298   8.620  0.00  0.00     0.085 C 
HETATM    4  C   UNK N   1      34.615   9.092   9.112  0.00  0.00     0.216 C 
HETATM    5  N   UNK N   1      33.817   8.315  10.053  0.00  0.00    -0.384 N 
HETATM    6  C   UNK N   1      34.698   7.750  11.072  0.00  0.00     0.173 C 
HETATM    7  C   UNK N   1      34.142   6.390  11.487  0.00  0.00     0.035 C 
HETATM    8  C   UNK N   1      35.168   5.516  12.186  0.00  0.00     0.004 C 
HETATM    9  C   UNK N   1      35.454   6.061  13.566  0.00  0.00     0.022 C 
HETATM   10  C   UNK N   1      36.429   7.200  13.405  0.00  0.00     0.163 C 
HETATM   11  N   UNK N   1      35.776   8.487  13.250  0.00  0.00    -0.190 N 
HETATM   12  O   UNK N   1      36.099   9.445  14.134  0.00  0.00    -0.083 OA
HETATM   13 Fe   UNK N   1      36.819  11.081  13.285  0.00  0.00     0.000 Fe
HETATM   14  O   UNK N   1      36.930  11.879  14.978  0.00  0.00    -0.212 OA
HETATM   15  C   UNK N   1      36.686  13.246  14.712  0.00  0.00     0.286 C 
HETATM   16  N   UNK N   1      36.252  13.419  13.318  0.00  0.00    -0.127 NA
HETATM   17  C   UNK N   1      36.202  14.808  12.905  0.00  0.00     0.127 C 
HETATM   18  C   UNK N   1      34.919  14.994  12.117  0.00  0.00     0.017 C 
HETATM   19  C   UNK N   1      35.194  15.754  10.842  0.00  0.00     0.004 C 
HETATM   20  C   UNK N   1      34.498  15.087   9.659  0.00  0.00     0.035 C 
HETATM   21  C   UNK N   1      35.258  13.881   9.082  0.00  0.00     0.184 C 
HETATM   22  N   UNK N   1      36.669  14.220   8.977  0.00  0.00    -0.345 N 
HETATM   23  C   UNK N   1      37.631  13.381   8.521  0.00  0.00     0.243 C 
HETATM   24  O   UNK N   1      38.796  13.747   8.533  0.00  0.00    -0.271 OA
HETATM   25  C   UNK N   1      37.279  12.002   8.044  0.00  0.00     0.200 A 
HETATM   26  C   UNK N   1      38.327  11.352   7.111  0.00  0.00     0.212 A 
HETATM   27  O   UNK N   1      38.695  10.210   7.789  0.00  0.00    -0.333 OA
HETATM   28  C   UNK N   1      38.081  10.158   8.972  0.00  0.00     0.152 A 
HETATM   29  N   UNK N   1      37.278  11.118   9.166  0.00  0.00    -0.355 N 
ATOM     30  HN  UNK N   1      36.712  11.242  10.005  1.00  0.00     0.162 HD
HETATM   31  C   UNK N   1      38.451   9.198  10.027  0.00  0.00     0.051 A 
HETATM   32  C   UNK N   1      39.414   8.221   9.754  0.00  0.00     0.018 A 
HETATM   33  C   UNK N   1      39.916   7.418  10.780  0.00  0.00     0.001 A 
HETATM   34  C   UNK N   1      39.511   7.640  12.096  0.00  0.00     0.003 A 
HETATM   35  C   UNK N   1      38.560   8.619  12.373  0.00  0.00     0.041 A 
HETATM   36  C   UNK N   1      37.982   9.361  11.342  0.00  0.00     0.121 A 
HETATM   37  O   UNK N   1      37.014  10.256  11.612  0.00  0.00    -0.191 OA
HETATM   38  C   UNK N   1      34.645  13.584   7.727  0.00  0.00     0.282 C 
HETATM   39  O   UNK N   1      34.647  14.460   6.874  0.00  0.00    -0.263 OA
HETATM   40  O   UNK N   1      34.011  12.410   7.454  0.00  0.00    -0.315 OA
HETATM   41  O   UNK N   1      37.138  12.754  12.536  0.00  0.00    -0.117 OA
HETATM   42  C   UNK N   1      34.890   8.727  12.230  0.00  0.00     0.268 C 
HETATM   43  O   UNK N   1      34.298   9.804  12.201  0.00  0.00    -0.269 OA
HETATM   44  H   UNK N   1      32.806   8.186  10.007  0.00  0.00     0.156 HD
HETATM   45  H   UNK N   1      36.944  15.124   9.256  0.00  0.00     0.163 HD
ENDROOT
BRANCH  15  46
HETATM   46  C   UNK N   1      35.632  13.612  15.693  0.00  0.00     0.021 C 
HETATM   47  C   UNK N   1      35.587  12.928  16.833  0.00  0.00    -0.027 C 
BRANCH  47  48
HETATM   48  C   UNK N   1      35.176  13.629  18.072  0.00  0.00     0.027 C 
BRANCH  48  49
HETATM   49  C   UNK N   1      35.206  12.585  19.197  0.00  0.00     0.004 C 
BRANCH  49  50
HETATM   50  C   UNK N   1      35.329  11.163  18.632  0.00  0.00     0.000 C 
BRANCH  50  51
HETATM   51  C   UNK N   1      34.881  10.087  19.612  0.00  0.00     0.001 C 
BRANCH  51  52
HETATM   52  C   UNK N   1      33.898   9.097  18.991  0.00  0.00     0.010 C 
BRANCH  52  53
HETATM   53  C   UNK N   1      34.434   7.668  18.886  0.00  0.00     0.110 C 
BRANCH  53  54
HETATM   54  C   UNK N   1      35.539   7.548  17.889  0.00  0.00     0.139 C 
HETATM   55  O   UNK N   1      36.533   6.894  18.158  0.00  0.00    -0.650 OA
BRANCH  54  56
HETATM   56  O   UNK N   1      35.421   8.124  16.678  0.00  0.00    -0.776 OA
HETATM   57  H   UNK N   1      35.868   7.975  15.869  0.00  0.00     0.167 HD
ENDBRANCH  54  56
ENDBRANCH  53  54
ENDBRANCH  52  53
ENDBRANCH  51  52
ENDBRANCH  50  51
ENDBRANCH  49  50
ENDBRANCH  48  49
ENDBRANCH  47  48
ENDBRANCH  15  46
BRANCH   4  58
HETATM   58  O   UNK N   1      34.993   8.271   8.045  0.00  0.00    -0.377 OA
HETATM   59  H   UNK N   1      34.343   7.800   7.499  0.00  0.00     0.212 HD
ENDBRANCH   4  58
TORSDOF 10
ENDMDL
