REMARK  20 active torsions:
REMARK  status: ('A' for Active; 'I' for Inactive)
REMARK    1  A    between atoms: C_3  and  C_2 
REMARK    2  A    between atoms: C_4  and  C_3 
REMARK    3  A    between atoms: C_5  and  C_4 
REMARK    4  A    between atoms: C_6  and  C_5 
REMARK    5  A    between atoms: C_7  and  C_6 
REMARK    6  A    between atoms: C_8  and  C_7 
REMARK    7  A    between atoms: C_9  and  C_8 
REMARK    8  A    between atoms: C_10  and  C_9 
REMARK    9  A    between atoms: C_11  and  C_10 
REMARK   10  A    between atoms: C_12  and  C_11 
REMARK   11  A    between atoms: C_13  and  C_12 
REMARK   12  A    between atoms: C_20  and  C_13 
REMARK   13  A    between atoms: C_17  and  C_14 
REMARK   14  A    between atoms: C_19  and  C_14 
REMARK   15  A    between atoms: C_18  and  C_15 
REMARK   16  A    between atoms: O_25  and  C_15 
REMARK   17  A    between atoms: O_26  and  C_19 
REMARK   18  A    between atoms: O_31  and  C_20 
REMARK   19  A    between atoms: C_22  and  O_31 
REMARK   20  A    between atoms: N_23  and  O_29 
ROOT
HETATM    1  C   UNK N   1      22.254  -1.328  -1.040  0.00  0.00     0.176 C 
HETATM    2  C   UNK N   1      21.535  -0.385  -0.068  0.00  0.00     0.049 C 
HETATM    3  C   UNK N   1      21.113  -3.183  -0.067  0.00  0.00     0.176 C 
HETATM    4  C   UNK N   1      19.872  -2.307  -0.374  0.00  0.00     0.179 C 
HETATM    5  C   UNK N   1      20.107  -0.925   0.261  0.00  0.00     0.169 C 
HETATM    6  O   UNK N   1      19.697  -2.185  -1.759  0.00  0.00    -0.390 OA
HETATM    7  O   UNK N   1      22.358  -2.641  -0.515  0.00  0.00    -0.381 OA
HETATM    8  H   UNK N   1      19.710  -2.038  -2.717  0.00  0.00     0.210 HD
ENDROOT
BRANCH   3   9
HETATM    9  C   UNK N   1      20.930  -4.577  -0.650  0.00  0.00     0.198 C 
BRANCH   9  10
HETATM   10  O   UNK N   1      21.980  -5.406  -0.252  0.00  0.00    -0.398 OA
HETATM   11  H   UNK N   1      21.846  -6.326   0.025  0.00  0.00     0.209 HD
ENDBRANCH   9  10
ENDBRANCH   3   9
BRANCH   5  12
HETATM   12  O   UNK N   1      19.100  -0.040  -0.109  0.00  0.00    -0.313 OA
BRANCH  12  13
HETATM   13  C   UNK N   1      18.053   0.285   0.698  0.00  0.00     0.259 C 
HETATM   14  O   UNK N   1      17.744  -0.432   1.640  0.00  0.00    -0.265 OA
BRANCH  13  15
HETATM   15  C   UNK N   1      17.304   1.560   0.462  0.00  0.00     0.111 C 
BRANCH  15  16
HETATM   16  C   UNK N   1      15.803   1.338   0.341  0.00  0.00     0.010 C 
BRANCH  16  17
HETATM   17  C   UNK N   1      15.379   1.156  -1.107  0.00  0.00     0.000 C 
BRANCH  17  18
HETATM   18  C   UNK N   1      15.750  -0.224  -1.628  0.00  0.00     0.000 C 
BRANCH  18  19
HETATM   19  C   UNK N   1      14.658  -1.246  -1.348  0.00  0.00     0.000 C 
BRANCH  19  20
HETATM   20  C   UNK N   1      14.770  -1.825   0.057  0.00  0.00     0.000 C 
BRANCH  20  21
HETATM   21  C   UNK N   1      13.919  -1.055   1.061  0.00  0.00     0.000 C 
BRANCH  21  22
HETATM   22  C   UNK N   1      12.446  -1.417   0.943  0.00  0.00     0.000 C 
BRANCH  22  23
HETATM   23  C   UNK N   1      11.811  -0.694  -0.231  0.00  0.00     0.000 C 
BRANCH  23  24
HETATM   24  C   UNK N   1      10.425  -1.250  -0.481  0.00  0.00     0.000 C 
BRANCH  24  25
HETATM   25  C   UNK N   1       9.382  -0.265  -0.000  0.00  0.00    -0.000 C 
BRANCH  25  26
HETATM   26  C   UNK N   1       8.008  -0.883  -0.154  0.00  0.00    -0.005 C 
HETATM   27  C   UNK N   1       6.954   0.123   0.256  0.00  0.00     0.005 C 
ENDBRANCH  25  26
ENDBRANCH  24  25
ENDBRANCH  23  24
ENDBRANCH  22  23
ENDBRANCH  21  22
ENDBRANCH  20  21
ENDBRANCH  19  20
ENDBRANCH  18  19
ENDBRANCH  17  18
ENDBRANCH  16  17
ENDBRANCH  15  16
ENDBRANCH  13  15
ENDBRANCH  12  13
ENDBRANCH   5  12
BRANCH   2  28
HETATM   28  C   UNK N   1      21.543   1.030  -0.662  0.00  0.00     0.095 C 
BRANCH  28  29
HETATM   29  C   UNK N   1      22.288   2.032   0.184  0.00  0.00     0.135 C 
HETATM   30  N   UNK N   1      23.556   1.927   0.401  0.00  0.00    -0.251 N 
ATOM     31  HN  UNK N   1      24.021   2.627   0.977  1.00  0.00     0.196 HD
BRANCH  30  32
HETATM   32  O   UNK N   1      24.263   0.939  -0.103  0.00  0.00    -0.288 OA
HETATM   33  H   UNK N   1      23.906   0.151  -0.462  0.00  0.00     0.244 HD
ENDBRANCH  30  32
BRANCH  29  34
HETATM   34  O   UNK N   1      21.614   3.069   0.709  0.00  0.00    -0.348 OA
HETATM   35  H   UNK N   1      22.005   3.837   1.076  0.00  0.00     0.219 HD
ENDBRANCH  29  34
ENDBRANCH  28  29
ENDBRANCH   2  28
TORSDOF 20
