MODEL 1
REMARK VINA RESULT:      -5.8      0.000      0.000
REMARK  10 active torsions:
REMARK  status: ('A' for Active; 'I' for Inactive)
REMARK    1  A    between atoms: C_3  and  C_2 
REMARK    2  A    between atoms: S_17  and  C_2 
REMARK    3  A    between atoms: C_7  and  C_3 
REMARK    4  A    between atoms: C_3  and  N_9 
REMARK    5  A    between atoms: C_6  and  C_4 
REMARK    6  A    between atoms: C_5  and  S_17 
REMARK    7  A    between atoms: C_8  and  C_6 
REMARK    8  A    between atoms: C_6  and  N_10 
REMARK    9  A    between atoms: O_13  and  C_7 
REMARK   10  A    between atoms: O_15  and  C_8 
ROOT
HETATM    1  C   UNK N   1      35.993  15.051  12.595  0.00  0.00     0.048 A 
HETATM    2  C   UNK N   1      35.754  13.921  13.203  0.00  0.00     0.107 A 
HETATM    3  C   UNK N   1      35.035  15.142  11.457  0.00  0.00     0.193 A 
HETATM    4  N   UNK N   1      34.294  13.863  11.507  0.00  0.00    -0.279 N 
HETATM    5  O   UNK N   1      34.775  13.248  12.597  0.00  0.00    -0.243 OA
HETATM    6  H   UNK N   1      33.580  13.526  10.861  0.00  0.00     0.189 HD
ENDROOT
BRANCH   3   7
HETATM    7  S   UNK N   1      35.948  15.335   9.892  0.00  0.00    -0.135 SA
BRANCH   7   8
HETATM    8  C   UNK N   1      34.487  15.725   8.863  0.00  0.00     0.112 C 
BRANCH   8   9
HETATM    9  C   UNK N   1      34.025  17.157   9.121  0.00  0.00     0.182 C 
BRANCH   9  10
HETATM   10  C   UNK N   1      34.621  18.104   8.119  0.00  0.00     0.163 C 
HETATM   11  O   UNK N   1      34.495  17.894   6.922  0.00  0.00    -0.648 OA
BRANCH  10  12
HETATM   12  O   UNK N   1      35.276  19.203   8.539  0.00  0.00    -0.775 OA
HETATM   13  H   UNK N   1      35.732  19.450   9.318  0.00  0.00     0.167 HD
ENDBRANCH  10  12
ENDBRANCH   9  10
BRANCH   9  14
HETATM   14  N   UNK N   1      32.575  17.229   9.035  0.00  0.00    -0.417 N 
HETATM   15  H   UNK N   1      32.070  18.085   9.264  0.00  0.00     0.150 HD
HETATM   16  H   UNK N   1      32.052  16.404   8.740  0.00  0.00     0.150 HD
ENDBRANCH   9  14
ENDBRANCH   8   9
ENDBRANCH   7   8
ENDBRANCH   3   7
BRANCH   2  17
HETATM   17  C   UNK N   1      36.452  13.446  14.455  0.00  0.00     0.233 C 
BRANCH  17  18
HETATM   18  C   UNK N   1      35.497  12.784  15.418  0.00  0.00     0.169 C 
HETATM   19  O   UNK N   1      35.897  11.935  16.204  0.00  0.00    -0.648 OA
BRANCH  18  20
HETATM   20  O   UNK N   1      34.190  13.107  15.403  0.00  0.00    -0.775 OA
HETATM   21  H   UNK N   1      33.692  13.289  16.175  0.00  0.00     0.167 HD
ENDBRANCH  18  20
ENDBRANCH  17  18
BRANCH  17  22
HETATM   22  N   UNK N   1      37.117  14.569  15.098  0.00  0.00    -0.412 N 
HETATM   23  H   UNK N   1      37.043  14.858  16.074  0.00  0.00     0.151 HD
HETATM   24  H   UNK N   1      37.726  15.134  14.505  0.00  0.00     0.151 HD
ENDBRANCH  17  22
ENDBRANCH   2  17
TORSDOF 10
ENDMDL
MODEL 2
REMARK VINA RESULT:      -5.7     15.853     16.605
REMARK  10 active torsions:
REMARK  status: ('A' for Active; 'I' for Inactive)
REMARK    1  A    between atoms: C_3  and  C_2 
REMARK    2  A    between atoms: S_17  and  C_2 
REMARK    3  A    between atoms: C_7  and  C_3 
REMARK    4  A    between atoms: C_3  and  N_9 
REMARK    5  A    between atoms: C_6  and  C_4 
REMARK    6  A    between atoms: C_5  and  S_17 
REMARK    7  A    between atoms: C_8  and  C_6 
REMARK    8  A    between atoms: C_6  and  N_10 
REMARK    9  A    between atoms: O_13  and  C_7 
REMARK   10  A    between atoms: O_15  and  C_8 
ROOT
HETATM    1  C   UNK N   1      20.313  16.624   6.956  0.00  0.00     0.048 A 
HETATM    2  C   UNK N   1      20.234  17.666   7.739  0.00  0.00     0.107 A 
HETATM    3  C   UNK N   1      21.058  17.053   5.739  0.00  0.00     0.193 A 
HETATM    4  N   UNK N   1      21.308  18.494   5.958  0.00  0.00    -0.279 N 
HETATM    5  O   UNK N   1      20.814  18.729   7.181  0.00  0.00    -0.243 OA
HETATM    6  H   UNK N   1      21.753  19.157   5.323  0.00  0.00     0.189 HD
ENDROOT
BRANCH   3   7
HETATM    7  S   UNK N   1      20.043  16.759   4.254  0.00  0.00    -0.135 SA
BRANCH   7   8
HETATM    8  C   UNK N   1      21.067  17.761   3.117  0.00  0.00     0.112 C 
BRANCH   8   9
HETATM    9  C   UNK N   1      20.217  18.841   2.452  0.00  0.00     0.182 C 
BRANCH   9  10
HETATM   10  C   UNK N   1      20.661  20.211   2.877  0.00  0.00     0.163 C 
HETATM   11  O   UNK N   1      20.358  20.645   3.978  0.00  0.00    -0.648 OA
BRANCH  10  12
HETATM   12  O   UNK N   1      21.420  20.958   2.052  0.00  0.00    -0.775 OA
HETATM   13  H   UNK N   1      21.970  21.710   2.150  0.00  0.00     0.167 HD
ENDBRANCH  10  12
ENDBRANCH   9  10
BRANCH   9  14
HETATM   14  N   UNK N   1      20.329  18.734   1.007  0.00  0.00    -0.417 N 
HETATM   15  H   UNK N   1      20.097  19.516   0.395  0.00  0.00     0.150 HD
HETATM   16  H   UNK N   1      20.647  17.856   0.595  0.00  0.00     0.150 HD
ENDBRANCH   9  14
ENDBRANCH   8   9
ENDBRANCH   7   8
ENDBRANCH   3   7
BRANCH   2  17
HETATM   17  C   UNK N   1      19.613  17.670   9.115  0.00  0.00     0.233 C 
BRANCH  17  18
HETATM   18  C   UNK N   1      18.251  17.018   9.123  0.00  0.00     0.169 C 
HETATM   19  O   UNK N   1      18.133  15.832   9.402  0.00  0.00    -0.648 OA
BRANCH  18  20
HETATM   20  O   UNK N   1      17.157  17.733   8.799  0.00  0.00    -0.775 OA
HETATM   21  H   UNK N   1      16.851  17.844   7.921  0.00  0.00     0.167 HD
ENDBRANCH  18  20
ENDBRANCH  17  18
BRANCH  17  22
HETATM   22  N   UNK N   1      19.518  19.038   9.603  0.00  0.00    -0.412 N 
HETATM   23  H   UNK N   1      18.742  19.463  10.112  0.00  0.00     0.151 HD
HETATM   24  H   UNK N   1      20.318  19.642   9.413  0.00  0.00     0.151 HD
ENDBRANCH  17  22
ENDBRANCH   2  17
TORSDOF 10
ENDMDL
MODEL 3
REMARK VINA RESULT:      -5.6     13.899     16.472
REMARK  10 active torsions:
REMARK  status: ('A' for Active; 'I' for Inactive)
REMARK    1  A    between atoms: C_3  and  C_2 
REMARK    2  A    between atoms: S_17  and  C_2 
REMARK    3  A    between atoms: C_7  and  C_3 
REMARK    4  A    between atoms: C_3  and  N_9 
REMARK    5  A    between atoms: C_6  and  C_4 
REMARK    6  A    between atoms: C_5  and  S_17 
REMARK    7  A    between atoms: C_8  and  C_6 
REMARK    8  A    between atoms: C_6  and  N_10 
REMARK    9  A    between atoms: O_13  and  C_7 
REMARK   10  A    between atoms: O_15  and  C_8 
ROOT
HETATM    1  C   UNK N   1      21.641  17.384   3.254  0.00  0.00     0.048 A 
HETATM    2  C   UNK N   1      21.159  18.587   3.097  0.00  0.00     0.107 A 
HETATM    3  C   UNK N   1      22.247  17.335   4.615  0.00  0.00     0.193 A 
HETATM    4  N   UNK N   1      22.075  18.708   5.136  0.00  0.00    -0.279 N 
HETATM    5  O   UNK N   1      21.388  19.340   4.173  0.00  0.00    -0.243 OA
HETATM    6  H   UNK N   1      22.403  19.088   6.024  0.00  0.00     0.189 HD
ENDROOT
BRANCH   3   7
HETATM    7  S   UNK N   1      24.005  16.871   4.494  0.00  0.00    -0.135 SA
BRANCH   7   8
HETATM    8  C   UNK N   1      24.666  18.564   4.702  0.00  0.00     0.112 C 
BRANCH   8   9
HETATM    9  C   UNK N   1      25.423  18.993   3.446  0.00  0.00     0.182 C 
BRANCH   9  10
HETATM   10  C   UNK N   1      24.930  20.322   2.950  0.00  0.00     0.163 C 
HETATM   11  O   UNK N   1      25.591  20.965   2.148  0.00  0.00    -0.648 OA
BRANCH  10  12
HETATM   12  O   UNK N   1      23.742  20.798   3.368  0.00  0.00    -0.775 OA
HETATM   13  H   UNK N   1      23.462  21.433   3.997  0.00  0.00     0.167 HD
ENDBRANCH  10  12
ENDBRANCH   9  10
BRANCH   9  14
HETATM   14  N   UNK N   1      26.843  19.095   3.740  0.00  0.00    -0.417 N 
HETATM   15  H   UNK N   1      27.548  18.768   3.080  0.00  0.00     0.150 HD
HETATM   16  H   UNK N   1      27.141  19.503   4.627  0.00  0.00     0.150 HD
ENDBRANCH   9  14
ENDBRANCH   8   9
ENDBRANCH   7   8
ENDBRANCH   3   7
BRANCH   2  17
HETATM   17  C   UNK N   1      20.397  19.063   1.882  0.00  0.00     0.233 C 
BRANCH  17  18
HETATM   18  C   UNK N   1      20.919  20.385   1.372  0.00  0.00     0.169 C 
HETATM   19  O   UNK N   1      21.159  20.539   0.182  0.00  0.00    -0.648 OA
BRANCH  18  20
HETATM   20  O   UNK N   1      21.144  21.399   2.228  0.00  0.00    -0.775 OA
HETATM   21  H   UNK N   1      21.915  21.931   2.211  0.00  0.00     0.167 HD
ENDBRANCH  18  20
ENDBRANCH  17  18
BRANCH  17  22
HETATM   22  N   UNK N   1      18.982  19.172   2.206  0.00  0.00    -0.412 N 
HETATM   23  H   UNK N   1      18.362  19.960   2.020  0.00  0.00     0.151 HD
HETATM   24  H   UNK N   1      18.564  18.367   2.674  0.00  0.00     0.151 HD
ENDBRANCH  17  22
ENDBRANCH   2  17
TORSDOF 10
ENDMDL
MODEL 4
REMARK VINA RESULT:      -5.6      1.487      1.588
REMARK  10 active torsions:
REMARK  status: ('A' for Active; 'I' for Inactive)
REMARK    1  A    between atoms: C_3  and  C_2 
REMARK    2  A    between atoms: S_17  and  C_2 
REMARK    3  A    between atoms: C_7  and  C_3 
REMARK    4  A    between atoms: C_3  and  N_9 
REMARK    5  A    between atoms: C_6  and  C_4 
REMARK    6  A    between atoms: C_5  and  S_17 
REMARK    7  A    between atoms: C_8  and  C_6 
REMARK    8  A    between atoms: C_6  and  N_10 
REMARK    9  A    between atoms: O_13  and  C_7 
REMARK   10  A    between atoms: O_15  and  C_8 
ROOT
HETATM    1  C   UNK N   1      36.147  14.769  11.146  0.00  0.00     0.048 A 
HETATM    2  C   UNK N   1      35.587  14.029  12.065  0.00  0.00     0.107 A 
HETATM    3  C   UNK N   1      35.049  15.489  10.441  0.00  0.00     0.193 A 
HETATM    4  N   UNK N   1      33.816  14.974  11.074  0.00  0.00    -0.279 N 
HETATM    5  O   UNK N   1      34.259  14.156  12.038  0.00  0.00    -0.243 OA
HETATM    6  H   UNK N   1      32.849  15.192  10.832  0.00  0.00     0.189 HD
ENDROOT
BRANCH   3   7
HETATM    7  S   UNK N   1      35.105  15.111   8.659  0.00  0.00    -0.135 SA
BRANCH   7   8
HETATM    8  C   UNK N   1      33.526  15.932   8.237  0.00  0.00     0.112 C 
BRANCH   8   9
HETATM    9  C   UNK N   1      33.529  17.374   8.740  0.00  0.00     0.182 C 
BRANCH   9  10
HETATM   10  C   UNK N   1      34.421  18.236   7.895  0.00  0.00     0.163 C 
HETATM   11  O   UNK N   1      34.408  18.132   6.677  0.00  0.00    -0.648 OA
BRANCH  10  12
HETATM   12  O   UNK N   1      35.223  19.149   8.477  0.00  0.00    -0.775 OA
HETATM   13  H   UNK N   1      35.360  19.455   9.351  0.00  0.00     0.167 HD
ENDBRANCH  10  12
ENDBRANCH   9  10
BRANCH   9  14
HETATM   14  N   UNK N   1      32.178  17.910   8.702  0.00  0.00    -0.417 N 
HETATM   15  H   UNK N   1      31.558  17.849   9.509  0.00  0.00     0.150 HD
HETATM   16  H   UNK N   1      31.843  18.357   7.848  0.00  0.00     0.150 HD
ENDBRANCH   9  14
ENDBRANCH   8   9
ENDBRANCH   7   8
ENDBRANCH   3   7
BRANCH   2  17
HETATM   17  C   UNK N   1      36.332  13.175  13.063  0.00  0.00     0.233 C 
BRANCH  17  18
HETATM   18  C   UNK N   1      36.389  13.820  14.427  0.00  0.00     0.169 C 
HETATM   19  O   UNK N   1      35.675  13.415  15.334  0.00  0.00    -0.648 OA
BRANCH  18  20
HETATM   20  O   UNK N   1      37.212  14.862  14.648  0.00  0.00    -0.775 OA
HETATM   21  H   UNK N   1      38.013  14.797  15.129  0.00  0.00     0.167 HD
ENDBRANCH  18  20
ENDBRANCH  17  18
BRANCH  17  22
HETATM   22  N   UNK N   1      37.677  12.914  12.573  0.00  0.00    -0.412 N 
HETATM   23  H   UNK N   1      38.508  13.491  12.703  0.00  0.00     0.151 HD
HETATM   24  H   UNK N   1      37.803  12.055  12.036  0.00  0.00     0.151 HD
ENDBRANCH  17  22
ENDBRANCH   2  17
TORSDOF 10
ENDMDL
MODEL 5
REMARK VINA RESULT:      -5.5      1.406      7.289
REMARK  10 active torsions:
REMARK  status: ('A' for Active; 'I' for Inactive)
REMARK    1  A    between atoms: C_3  and  C_2 
REMARK    2  A    between atoms: S_17  and  C_2 
REMARK    3  A    between atoms: C_7  and  C_3 
REMARK    4  A    between atoms: C_3  and  N_9 
REMARK    5  A    between atoms: C_6  and  C_4 
REMARK    6  A    between atoms: C_5  and  S_17 
REMARK    7  A    between atoms: C_8  and  C_6 
REMARK    8  A    between atoms: C_6  and  N_10 
REMARK    9  A    between atoms: O_13  and  C_7 
REMARK   10  A    between atoms: O_15  and  C_8 
ROOT
HETATM    1  C   UNK N   1      34.033  15.349  10.228  0.00  0.00     0.048 A 
HETATM    2  C   UNK N   1      34.327  16.460   9.608  0.00  0.00     0.107 A 
HETATM    3  C   UNK N   1      35.012  15.204  11.343  0.00  0.00     0.193 A 
HETATM    4  N   UNK N   1      35.912  16.367  11.186  0.00  0.00    -0.279 N 
HETATM    5  O   UNK N   1      35.387  17.052  10.161  0.00  0.00    -0.243 OA
HETATM    6  H   UNK N   1      36.743  16.595  11.733  0.00  0.00     0.189 HD
ENDROOT
BRANCH   3   7
HETATM    7  S   UNK N   1      35.908  13.626  11.178  0.00  0.00    -0.135 SA
BRANCH   7   8
HETATM    8  C   UNK N   1      35.241  12.865  12.703  0.00  0.00     0.112 C 
BRANCH   8   9
HETATM    9  C   UNK N   1      35.826  13.551  13.936  0.00  0.00     0.182 C 
BRANCH   9  10
HETATM   10  C   UNK N   1      35.143  13.081  15.187  0.00  0.00     0.163 C 
HETATM   11  O   UNK N   1      35.621  13.332  16.283  0.00  0.00    -0.648 OA
BRANCH  10  12
HETATM   12  O   UNK N   1      33.983  12.401  15.106  0.00  0.00    -0.775 OA
HETATM   13  H   UNK N   1      33.729  11.504  15.192  0.00  0.00     0.167 HD
ENDBRANCH  10  12
ENDBRANCH   9  10
BRANCH   9  14
HETATM   14  N   UNK N   1      37.247  13.256  14.033  0.00  0.00    -0.417 N 
HETATM   15  H   UNK N   1      37.944  13.842  13.575  0.00  0.00     0.150 HD
HETATM   16  H   UNK N   1      37.552  12.445  14.572  0.00  0.00     0.150 HD
ENDBRANCH   9  14
ENDBRANCH   8   9
ENDBRANCH   7   8
ENDBRANCH   3   7
BRANCH   2  17
HETATM   17  C   UNK N   1      33.551  17.036   8.448  0.00  0.00     0.233 C 
BRANCH  17  18
HETATM   18  C   UNK N   1      34.347  18.078   7.698  0.00  0.00     0.169 C 
HETATM   19  O   UNK N   1      34.440  18.028   6.479  0.00  0.00    -0.648 OA
BRANCH  18  20
HETATM   20  O   UNK N   1      34.979  19.058   8.369  0.00  0.00    -0.775 OA
HETATM   21  H   UNK N   1      35.876  19.010   8.635  0.00  0.00     0.167 HD
ENDBRANCH  18  20
ENDBRANCH  17  18
BRANCH  17  22
HETATM   22  N   UNK N   1      32.303  17.608   8.931  0.00  0.00    -0.412 N 
HETATM   23  H   UNK N   1      31.365  17.219   8.837  0.00  0.00     0.151 HD
HETATM   24  H   UNK N   1      32.376  18.501   9.420  0.00  0.00     0.151 HD
ENDBRANCH  17  22
ENDBRANCH   2  17
TORSDOF 10
ENDMDL
MODEL 6
REMARK VINA RESULT:      -5.4      2.829      6.297
REMARK  10 active torsions:
REMARK  status: ('A' for Active; 'I' for Inactive)
REMARK    1  A    between atoms: C_3  and  C_2 
REMARK    2  A    between atoms: S_17  and  C_2 
REMARK    3  A    between atoms: C_7  and  C_3 
REMARK    4  A    between atoms: C_3  and  N_9 
REMARK    5  A    between atoms: C_6  and  C_4 
REMARK    6  A    between atoms: C_5  and  S_17 
REMARK    7  A    between atoms: C_8  and  C_6 
REMARK    8  A    between atoms: C_6  and  N_10 
REMARK    9  A    between atoms: O_13  and  C_7 
REMARK   10  A    between atoms: O_15  and  C_8 
ROOT
HETATM    1  C   UNK N   1      34.520  14.581   7.417  0.00  0.00     0.048 A 
HETATM    2  C   UNK N   1      33.820  15.680   7.508  0.00  0.00     0.107 A 
HETATM    3  C   UNK N   1      33.607  13.457   7.771  0.00  0.00     0.193 A 
HETATM    4  N   UNK N   1      32.336  14.123   8.128  0.00  0.00    -0.279 N 
HETATM    5  O   UNK N   1      32.571  15.422   7.896  0.00  0.00    -0.243 OA
HETATM    6  H   UNK N   1      31.478  13.693   8.472  0.00  0.00     0.189 HD
ENDROOT
BRANCH   3   7
HETATM    7  S   UNK N   1      34.297  12.516   9.171  0.00  0.00    -0.135 SA
BRANCH   7   8
HETATM    8  C   UNK N   1      35.400  13.846   9.772  0.00  0.00     0.112 C 
BRANCH   8   9
HETATM    9  C   UNK N   1      34.948  14.327  11.149  0.00  0.00     0.182 C 
BRANCH   9  10
HETATM   10  C   UNK N   1      35.958  15.262  11.750  0.00  0.00     0.163 C 
HETATM   11  O   UNK N   1      36.205  15.217  12.946  0.00  0.00    -0.648 OA
BRANCH  10  12
HETATM   12  O   UNK N   1      36.616  16.137  10.966  0.00  0.00    -0.775 OA
HETATM   13  H   UNK N   1      36.525  16.442  10.085  0.00  0.00     0.167 HD
ENDBRANCH  10  12
ENDBRANCH   9  10
BRANCH   9  14
HETATM   14  N   UNK N   1      33.674  15.018  11.033  0.00  0.00    -0.417 N 
HETATM   15  H   UNK N   1      32.796  14.505  10.958  0.00  0.00     0.150 HD
HETATM   16  H   UNK N   1      33.658  16.038  11.027  0.00  0.00     0.150 HD
ENDBRANCH   9  14
ENDBRANCH   8   9
ENDBRANCH   7   8
ENDBRANCH   3   7
BRANCH   2  17
HETATM   17  C   UNK N   1      34.331  17.062   7.176  0.00  0.00     0.233 C 
BRANCH  17  18
HETATM   18  C   UNK N   1      34.508  17.911   8.412  0.00  0.00     0.169 C 
HETATM   19  O   UNK N   1      34.993  19.031   8.330  0.00  0.00    -0.648 OA
BRANCH  18  20
HETATM   20  O   UNK N   1      34.154  17.431   9.618  0.00  0.00    -0.775 OA
HETATM   21  H   UNK N   1      34.483  16.629   9.974  0.00  0.00     0.167 HD
ENDBRANCH  18  20
ENDBRANCH  17  18
BRANCH  17  22
HETATM   22  N   UNK N   1      33.415  17.709   6.248  0.00  0.00    -0.412 N 
HETATM   23  H   UNK N   1      32.550  17.329   5.863  0.00  0.00     0.151 HD
HETATM   24  H   UNK N   1      33.668  18.651   5.947  0.00  0.00     0.151 HD
ENDBRANCH  17  22
ENDBRANCH   2  17
TORSDOF 10
ENDMDL
MODEL 7
REMARK VINA RESULT:      -5.4     12.159     15.003
REMARK  10 active torsions:
REMARK  status: ('A' for Active; 'I' for Inactive)
REMARK    1  A    between atoms: C_3  and  C_2 
REMARK    2  A    between atoms: S_17  and  C_2 
REMARK    3  A    between atoms: C_7  and  C_3 
REMARK    4  A    between atoms: C_3  and  N_9 
REMARK    5  A    between atoms: C_6  and  C_4 
REMARK    6  A    between atoms: C_5  and  S_17 
REMARK    7  A    between atoms: C_8  and  C_6 
REMARK    8  A    between atoms: C_6  and  N_10 
REMARK    9  A    between atoms: O_13  and  C_7 
REMARK   10  A    between atoms: O_15  and  C_8 
ROOT
HETATM    1  C   UNK N   1      24.713  18.472   4.655  0.00  0.00     0.048 A 
HETATM    2  C   UNK N   1      25.468  19.534   4.736  0.00  0.00     0.107 A 
HETATM    3  C   UNK N   1      23.607  18.799   3.710  0.00  0.00     0.193 A 
HETATM    4  N   UNK N   1      23.847  20.213   3.350  0.00  0.00    -0.279 N 
HETATM    5  O   UNK N   1      24.988  20.523   3.981  0.00  0.00    -0.243 OA
HETATM    6  H   UNK N   1      23.275  20.815   2.757  0.00  0.00     0.189 HD
ENDROOT
BRANCH   3   7
HETATM    7  S   UNK N   1      21.999  18.573   4.536  0.00  0.00    -0.135 SA
BRANCH   7   8
HETATM    8  C   UNK N   1      21.066  18.132   3.026  0.00  0.00     0.112 C 
BRANCH   8   9
HETATM    9  C   UNK N   1      20.155  19.285   2.611  0.00  0.00     0.182 C 
BRANCH   9  10
HETATM   10  C   UNK N   1      20.760  20.069   1.483  0.00  0.00     0.163 C 
HETATM   11  O   UNK N   1      21.477  21.032   1.715  0.00  0.00    -0.648 OA
BRANCH  10  12
HETATM   12  O   UNK N   1      20.535  19.698   0.208  0.00  0.00    -0.775 OA
HETATM   13  H   UNK N   1      19.825  19.784  -0.396  0.00  0.00     0.167 HD
ENDBRANCH  10  12
ENDBRANCH   9  10
BRANCH   9  14
HETATM   14  N   UNK N   1      18.865  18.763   2.186  0.00  0.00    -0.417 N 
HETATM   15  H   UNK N   1      18.285  18.205   2.812  0.00  0.00     0.150 HD
HETATM   16  H   UNK N   1      18.535  18.959   1.241  0.00  0.00     0.150 HD
ENDBRANCH   9  14
ENDBRANCH   8   9
ENDBRANCH   7   8
ENDBRANCH   3   7
BRANCH   2  17
HETATM   17  C   UNK N   1      26.745  19.630   5.537  0.00  0.00     0.233 C 
BRANCH  17  18
HETATM   18  C   UNK N   1      26.727  20.800   6.491  0.00  0.00     0.169 C 
HETATM   19  O   UNK N   1      27.395  21.799   6.259  0.00  0.00    -0.648 OA
BRANCH  18  20
HETATM   20  O   UNK N   1      25.992  20.743   7.616  0.00  0.00    -0.775 OA
HETATM   21  H   UNK N   1      25.481  19.999   7.865  0.00  0.00     0.167 HD
ENDBRANCH  18  20
ENDBRANCH  17  18
BRANCH  17  22
HETATM   22  N   UNK N   1      27.881  19.735   4.633  0.00  0.00    -0.412 N 
HETATM   23  H   UNK N   1      28.677  20.368   4.708  0.00  0.00     0.151 HD
HETATM   24  H   UNK N   1      27.880  19.103   3.831  0.00  0.00     0.151 HD
ENDBRANCH  17  22
ENDBRANCH   2  17
TORSDOF 10
ENDMDL
MODEL 8
REMARK VINA RESULT:      -5.3      2.749      6.244
REMARK  10 active torsions:
REMARK  status: ('A' for Active; 'I' for Inactive)
REMARK    1  A    between atoms: C_3  and  C_2 
REMARK    2  A    between atoms: S_17  and  C_2 
REMARK    3  A    between atoms: C_7  and  C_3 
REMARK    4  A    between atoms: C_3  and  N_9 
REMARK    5  A    between atoms: C_6  and  C_4 
REMARK    6  A    between atoms: C_5  and  S_17 
REMARK    7  A    between atoms: C_8  and  C_6 
REMARK    8  A    between atoms: C_6  and  N_10 
REMARK    9  A    between atoms: O_13  and  C_7 
REMARK   10  A    between atoms: O_15  and  C_8 
ROOT
HETATM    1  C   UNK N   1      34.031  14.691   7.633  0.00  0.00     0.048 A 
HETATM    2  C   UNK N   1      33.091  15.392   8.207  0.00  0.00     0.107 A 
HETATM    3  C   UNK N   1      33.774  13.262   7.973  0.00  0.00     0.193 A 
HETATM    4  N   UNK N   1      32.597  13.310   8.866  0.00  0.00    -0.279 N 
HETATM    5  O   UNK N   1      32.261  14.607   8.896  0.00  0.00    -0.243 OA
HETATM    6  H   UNK N   1      32.144  12.534   9.348  0.00  0.00     0.189 HD
ENDROOT
BRANCH   3   7
HETATM    7  S   UNK N   1      35.230  12.552   8.807  0.00  0.00    -0.135 SA
BRANCH   7   8
HETATM    8  C   UNK N   1      34.397  12.223  10.402  0.00  0.00     0.112 C 
BRANCH   8   9
HETATM    9  C   UNK N   1      35.106  12.966  11.532  0.00  0.00     0.182 C 
BRANCH   9  10
HETATM   10  C   UNK N   1      34.832  14.441  11.460  0.00  0.00     0.163 C 
HETATM   11  O   UNK N   1      35.755  15.242  11.467  0.00  0.00    -0.648 OA
BRANCH  10  12
HETATM   12  O   UNK N   1      33.565  14.886  11.362  0.00  0.00    -0.775 OA
HETATM   13  H   UNK N   1      32.808  14.869  11.913  0.00  0.00     0.167 HD
ENDBRANCH  10  12
ENDBRANCH   9  10
BRANCH   9  14
HETATM   14  N   UNK N   1      34.646  12.462  12.816  0.00  0.00    -0.417 N 
HETATM   15  H   UNK N   1      33.868  11.805  12.882  0.00  0.00     0.150 HD
HETATM   16  H   UNK N   1      35.111  12.772  13.670  0.00  0.00     0.150 HD
ENDBRANCH   9  14
ENDBRANCH   8   9
ENDBRANCH   7   8
ENDBRANCH   3   7
BRANCH   2  17
HETATM   17  C   UNK N   1      32.923  16.887   8.078  0.00  0.00     0.233 C 
BRANCH  17  18
HETATM   18  C   UNK N   1      34.147  17.635   8.550  0.00  0.00     0.169 C 
HETATM   19  O   UNK N   1      34.740  18.394   7.795  0.00  0.00    -0.648 OA
BRANCH  18  20
HETATM   20  O   UNK N   1      34.608  17.455   9.802  0.00  0.00    -0.775 OA
HETATM   21  H   UNK N   1      35.229  16.794  10.036  0.00  0.00     0.167 HD
ENDBRANCH  18  20
ENDBRANCH  17  18
BRANCH  17  22
HETATM   22  N   UNK N   1      31.752  17.313   8.829  0.00  0.00    -0.412 N 
HETATM   23  H   UNK N   1      31.707  18.026   9.557  0.00  0.00     0.151 HD
HETATM   24  H   UNK N   1      30.875  16.843   8.602  0.00  0.00     0.151 HD
ENDBRANCH  17  22
ENDBRANCH   2  17
TORSDOF 10
ENDMDL
MODEL 9
REMARK VINA RESULT:      -5.3     13.188     14.083
REMARK  10 active torsions:
REMARK  status: ('A' for Active; 'I' for Inactive)
REMARK    1  A    between atoms: C_3  and  C_2 
REMARK    2  A    between atoms: S_17  and  C_2 
REMARK    3  A    between atoms: C_7  and  C_3 
REMARK    4  A    between atoms: C_3  and  N_9 
REMARK    5  A    between atoms: C_6  and  C_4 
REMARK    6  A    between atoms: C_5  and  S_17 
REMARK    7  A    between atoms: C_8  and  C_6 
REMARK    8  A    between atoms: C_6  and  N_10 
REMARK    9  A    between atoms: O_13  and  C_7 
REMARK   10  A    between atoms: O_15  and  C_8 
ROOT
HETATM    1  C   UNK N   1      22.267  13.699   9.095  0.00  0.00     0.048 A 
HETATM    2  C   UNK N   1      22.072  12.751   9.971  0.00  0.00     0.107 A 
HETATM    3  C   UNK N   1      21.053  14.563   9.114  0.00  0.00     0.193 A 
HETATM    4  N   UNK N   1      20.153  13.899  10.083  0.00  0.00    -0.279 N 
HETATM    5  O   UNK N   1      20.876  12.871  10.549  0.00  0.00    -0.243 OA
HETATM    6  H   UNK N   1      19.202  14.163  10.337  0.00  0.00     0.189 HD
ENDROOT
BRANCH   3   7
HETATM    7  S   UNK N   1      20.318  14.638   7.448  0.00  0.00    -0.135 SA
BRANCH   7   8
HETATM    8  C   UNK N   1      20.186  16.461   7.377  0.00  0.00     0.112 C 
BRANCH   8   9
HETATM    9  C   UNK N   1      19.650  17.005   8.700  0.00  0.00     0.182 C 
BRANCH   9  10
HETATM   10  C   UNK N   1      19.970  18.464   8.850  0.00  0.00     0.163 C 
HETATM   11  O   UNK N   1      20.581  19.056   7.973  0.00  0.00    -0.648 OA
BRANCH  10  12
HETATM   12  O   UNK N   1      19.559  19.134   9.944  0.00  0.00    -0.775 OA
HETATM   13  H   UNK N   1      18.784  19.600  10.188  0.00  0.00     0.167 HD
ENDBRANCH  10  12
ENDBRANCH   9  10
BRANCH   9  14
HETATM   14  N   UNK N   1      18.208  16.828   8.755  0.00  0.00    -0.417 N 
HETATM   15  H   UNK N   1      17.570  17.609   8.603  0.00  0.00     0.150 HD
HETATM   16  H   UNK N   1      17.826  15.902   8.950  0.00  0.00     0.150 HD
ENDBRANCH   9  14
ENDBRANCH   8   9
ENDBRANCH   7   8
ENDBRANCH   3   7
BRANCH   2  17
HETATM   17  C   UNK N   1      23.077  11.682  10.329  0.00  0.00     0.233 C 
BRANCH  17  18
HETATM   18  C   UNK N   1      23.780  11.980  11.631  0.00  0.00     0.169 C 
HETATM   19  O   UNK N   1      23.188  11.864  12.696  0.00  0.00    -0.648 OA
BRANCH  18  20
HETATM   20  O   UNK N   1      25.059  12.398  11.628  0.00  0.00    -0.775 OA
HETATM   21  H   UNK N   1      25.378  13.089  11.081  0.00  0.00     0.167 HD
ENDBRANCH  18  20
ENDBRANCH  17  18
BRANCH  17  22
HETATM   22  N   UNK N   1      24.047  11.546   9.253  0.00  0.00    -0.412 N 
HETATM   23  H   UNK N   1      24.987  11.941   9.211  0.00  0.00     0.151 HD
HETATM   24  H   UNK N   1      23.754  10.993   8.447  0.00  0.00     0.151 HD
ENDBRANCH  17  22
ENDBRANCH   2  17
TORSDOF 10
ENDMDL
