MODEL 1
REMARK VINA RESULT:      -7.8      0.000      0.000
REMARK  17 active torsions:
REMARK  status: ('A' for Active; 'I' for Inactive)
REMARK    1  A    between atoms: C_23  and  C_17 
REMARK    2  A    between atoms: C_27  and  C_17 
REMARK    3  A    between atoms: C_22  and  C_19 
REMARK    4  A    between atoms: N_37  and  C_19 
REMARK    5  A    between atoms: C_30  and  C_20 
REMARK    6  A    between atoms: O_46  and  C_20 
REMARK    7  A    between atoms: O_38  and  C_21 
REMARK    8  A    between atoms: C_25  and  C_24 
REMARK    9  A    between atoms: C_26  and  N_35 
REMARK   10  A    between atoms: C_31  and  C_27 
REMARK   11  A    between atoms: C_27  and  N_33 
REMARK   12  A    between atoms: O_46  and  C_28 
REMARK   13  A    between atoms: P_47  and  C_29 
REMARK   14  A    between atoms: O_40  and  C_30 
REMARK   15  A    between atoms: C_31  and  O_41 
REMARK   16  A    between atoms: P_47  and  O_43 
REMARK   17  A    between atoms: P_47  and  O_44 
ROOT
HETATM    1  C   UNK N   1      21.724  15.152   6.592  0.00  0.00     0.162 C 
ENDROOT
BRANCH   1   2
HETATM    2  C   UNK N   1      22.826  15.397   5.522  0.00  0.00     0.072 C 
BRANCH   2   3
HETATM    3  C   UNK N   1      22.426  16.578   4.733  0.00  0.00    -0.054 A 
HETATM    4  C   UNK N   1      22.280  17.844   5.296  0.00  0.00     0.010 A 
HETATM    5  C   UNK N   1      21.624  18.839   4.558  0.00  0.00     0.038 A 
HETATM    6  C   UNK N   1      21.057  18.548   3.298  0.00  0.00     0.087 A 
HETATM    7  C   UNK N   1      21.204  17.227   2.773  0.00  0.00     0.083 A 
HETATM    8  C   UNK N   1      21.907  16.310   3.496  0.00  0.00     0.029 A 
BRANCH   6   9
HETATM    9  O   UNK N   1      20.383  19.545   2.677  0.00  0.00    -0.340 OA
BRANCH   9  10
HETATM   10  C   UNK N   1      20.889  20.795   2.418  0.00  0.00     0.285 C 
BRANCH  10  11
HETATM   11  C   UNK N   1      20.751  21.127   0.973  0.00  0.00     0.164 C 
HETATM   12  O   UNK N   1      20.924  20.270   0.123  0.00  0.00    -0.648 OA
BRANCH  11  13
HETATM   13  O   UNK N   1      20.450  22.384   0.602  0.00  0.00    -0.775 OA
HETATM   14  H   UNK N   1      20.168  22.559  -0.273  0.00  0.00     0.167 HD
ENDBRANCH  11  13
ENDBRANCH  10  11
ENDBRANCH   9  10
ENDBRANCH   6   9
BRANCH   7  15
HETATM   15  P   UNK N   1      20.411  16.475   1.290  0.00  0.00     0.273 P 
HETATM   16  O   UNK N   1      21.469  15.442   0.808  0.00  0.00    -0.650 OA
BRANCH  15  17
HETATM   17  O   UNK N   1      19.058  15.410   1.492  0.00  0.00    -0.326 OA
HETATM   18  H   UNK N   1      18.835  14.518   1.799  0.00  0.00     0.220 HD
ENDBRANCH  15  17
BRANCH  15  19
HETATM   19  O   UNK N   1      20.247  17.430  -0.145  0.00  0.00    -0.326 OA
HETATM   20  H   UNK N   1      20.582  18.045  -0.815  0.00  0.00     0.220 HD
ENDBRANCH  15  19
ENDBRANCH   7  15
ENDBRANCH   2   3
ENDBRANCH   1   2
BRANCH   1  21
HETATM   21  C   UNK N   1      21.973  13.804   7.092  0.00  0.00     0.135 C 
HETATM   22  N   UNK N   1      21.658  12.814   6.344  0.00  0.00    -0.359 N 
ATOM     23  HN  UNK N   1      20.901  12.911   5.668  1.00  0.00     0.162 HD
BRANCH  22  24
HETATM   24  C   UNK N   1      22.357  11.577   6.449  0.00  0.00     0.175 C 
HETATM   25  C   UNK N   1      21.547  10.420   5.859  0.00  0.00     0.035 C 
HETATM   26  C   UNK N   1      20.824  10.745   4.555  0.00  0.00     0.004 C 
HETATM   27  C   UNK N   1      21.781  10.999   3.406  0.00  0.00     0.020 C 
HETATM   28  C   UNK N   1      22.516  12.322   3.590  0.00  0.00     0.126 C 
HETATM   29  N   UNK N   1      23.709  12.144   4.389  0.00  0.00    -0.346 N 
HETATM   30  C   UNK N   1      23.671  11.802   5.725  0.00  0.00     0.242 C 
HETATM   31  O   UNK N   1      24.707  11.680   6.352  0.00  0.00    -0.271 OA
BRANCH  29  32
HETATM   32  C   UNK N   1      24.991  12.143   3.696  0.00  0.00     0.164 C 
BRANCH  32  33
HETATM   33  C   UNK N   1      25.511  13.558   3.680  0.00  0.00    -0.040 A 
HETATM   34  C   UNK N   1      25.116  14.402   2.638  0.00  0.00     0.009 A 
HETATM   35  C   UNK N   1      25.419  15.728   2.630  0.00  0.00     0.013 A 
HETATM   36  C   UNK N   1      26.131  16.281   3.679  0.00  0.00    -0.026 A 
HETATM   37  C   UNK N   1      26.604  15.450   4.719  0.00  0.00     0.013 A 
HETATM   38  C   UNK N   1      26.297  14.076   4.715  0.00  0.00     0.009 A 
BRANCH  36  39
HETATM   39  C   UNK N   1      26.157  17.745   3.764  0.00  0.00    -0.026 A 
HETATM   40  C   UNK N   1      25.114  18.516   3.244  0.00  0.00     0.012 A 
HETATM   41  C   UNK N   1      25.247  19.904   3.167  0.00  0.00     0.001 A 
HETATM   42  C   UNK N   1      26.429  20.524   3.589  0.00  0.00     0.000 A 
HETATM   43  C   UNK N   1      27.470  19.762   4.116  0.00  0.00     0.001 A 
HETATM   44  C   UNK N   1      27.335  18.382   4.201  0.00  0.00     0.012 A 
ENDBRANCH  36  39
ENDBRANCH  32  33
ENDBRANCH  29  32
ENDBRANCH  22  24
BRANCH  21  45
HETATM   45  O   UNK N   1      22.820  13.647   8.136  0.00  0.00    -0.348 OA
HETATM   46  H   UNK N   1      23.465  13.965   8.737  0.00  0.00     0.219 HD
ENDBRANCH  21  45
ENDBRANCH   1  21
BRANCH   1  47
HETATM   47  N   UNK N   1      20.417  15.322   5.986  0.00  0.00    -0.362 N 
HETATM   48  C   UNK N   1      19.425  15.925   6.550  0.00  0.00     0.107 C 
HETATM   49  C   UNK N   1      19.543  16.533   7.913  0.00  0.00     0.097 C 
ATOM     50  HN  UNK N   1      20.271  14.938   5.052  1.00  0.00     0.162 HD
BRANCH  48  51
HETATM   51  O   UNK N   1      18.258  16.028   5.888  0.00  0.00    -0.350 OA
HETATM   52  H   UNK N   1      17.857  15.611   5.151  0.00  0.00     0.219 HD
ENDBRANCH  48  51
ENDBRANCH   1  47
TORSDOF 17
ENDMDL
MODEL 2
REMARK VINA RESULT:      -7.5      3.741      6.598
REMARK  17 active torsions:
REMARK  status: ('A' for Active; 'I' for Inactive)
REMARK    1  A    between atoms: C_23  and  C_17 
REMARK    2  A    between atoms: C_27  and  C_17 
REMARK    3  A    between atoms: C_22  and  C_19 
REMARK    4  A    between atoms: N_37  and  C_19 
REMARK    5  A    between atoms: C_30  and  C_20 
REMARK    6  A    between atoms: O_46  and  C_20 
REMARK    7  A    between atoms: O_38  and  C_21 
REMARK    8  A    between atoms: C_25  and  C_24 
REMARK    9  A    between atoms: C_26  and  N_35 
REMARK   10  A    between atoms: C_31  and  C_27 
REMARK   11  A    between atoms: C_27  and  N_33 
REMARK   12  A    between atoms: O_46  and  C_28 
REMARK   13  A    between atoms: P_47  and  C_29 
REMARK   14  A    between atoms: O_40  and  C_30 
REMARK   15  A    between atoms: C_31  and  O_41 
REMARK   16  A    between atoms: P_47  and  O_43 
REMARK   17  A    between atoms: P_47  and  O_44 
ROOT
HETATM    1  C   UNK N   1      27.296  19.371   5.049  0.00  0.00     0.162 C 
ENDROOT
BRANCH   1   2
HETATM    2  C   UNK N   1      26.613  18.133   4.401  0.00  0.00     0.072 C 
BRANCH   2   3
HETATM    3  C   UNK N   1      25.291  18.563   3.907  0.00  0.00    -0.054 A 
HETATM    4  C   UNK N   1      25.109  19.719   3.150  0.00  0.00     0.010 A 
HETATM    5  C   UNK N   1      23.809  20.210   2.970  0.00  0.00     0.038 A 
HETATM    6  C   UNK N   1      22.708  19.590   3.600  0.00  0.00     0.087 A 
HETATM    7  C   UNK N   1      22.946  18.424   4.393  0.00  0.00     0.083 A 
HETATM    8  C   UNK N   1      24.217  17.943   4.486  0.00  0.00     0.029 A 
BRANCH   6   9
HETATM    9  O   UNK N   1      21.493  20.163   3.430  0.00  0.00    -0.340 OA
BRANCH   9  10
HETATM   10  C   UNK N   1      20.537  19.733   2.543  0.00  0.00     0.285 C 
BRANCH  10  11
HETATM   11  C   UNK N   1      20.682  20.434   1.237  0.00  0.00     0.164 C 
HETATM   12  O   UNK N   1      20.808  21.647   1.198  0.00  0.00    -0.648 OA
BRANCH  11  13
HETATM   13  O   UNK N   1      20.655  19.728   0.094  0.00  0.00    -0.775 OA
HETATM   14  H   UNK N   1      20.991  18.854   0.076  0.00  0.00     0.167 HD
ENDBRANCH  11  13
ENDBRANCH  10  11
ENDBRANCH   9  10
ENDBRANCH   6   9
BRANCH   7  15
HETATM   15  P   UNK N   1      21.785  17.524   5.505  0.00  0.00     0.273 P 
HETATM   16  O   UNK N   1      21.426  18.591   6.579  0.00  0.00    -0.650 OA
BRANCH  15  17
HETATM   17  O   UNK N   1      20.188  17.147   4.947  0.00  0.00    -0.326 OA
HETATM   18  H   UNK N   1      19.603  16.392   4.776  0.00  0.00     0.220 HD
ENDBRANCH  15  17
BRANCH  15  19
HETATM   19  O   UNK N   1      22.405  16.270   6.523  0.00  0.00    -0.326 OA
HETATM   20  H   UNK N   1      22.996  15.524   6.712  0.00  0.00     0.220 HD
ENDBRANCH  15  19
ENDBRANCH   7  15
ENDBRANCH   2   3
ENDBRANCH   1   2
BRANCH   1  21
HETATM   21  C   UNK N   1      28.729  19.132   4.907  0.00  0.00     0.135 C 
HETATM   22  N   UNK N   1      29.166  17.945   5.104  0.00  0.00    -0.359 N 
ATOM     23  HN  UNK N   1      28.665  17.318   5.734  1.00  0.00     0.162 HD
BRANCH  22  24
HETATM   24  C   UNK N   1      30.348  17.492   4.450  0.00  0.00     0.175 C 
HETATM   25  C   UNK N   1      31.348  16.893   5.442  0.00  0.00     0.035 C 
HETATM   26  C   UNK N   1      30.726  16.015   6.524  0.00  0.00     0.004 C 
HETATM   27  C   UNK N   1      30.126  14.739   5.965  0.00  0.00     0.020 C 
HETATM   28  C   UNK N   1      28.863  15.035   5.165  0.00  0.00     0.126 C 
HETATM   29  N   UNK N   1      29.183  15.347   3.789  0.00  0.00    -0.346 N 
HETATM   30  C   UNK N   1      29.870  16.485   3.421  0.00  0.00     0.242 C 
HETATM   31  O   UNK N   1      30.100  16.705   2.245  0.00  0.00    -0.271 OA
BRANCH  29  32
HETATM   32  C   UNK N   1      28.932  14.319   2.788  0.00  0.00     0.164 C 
BRANCH  32  33
HETATM   33  C   UNK N   1      27.440  14.165   2.644  0.00  0.00    -0.040 A 
HETATM   34  C   UNK N   1      26.707  15.233   2.118  0.00  0.00     0.009 A 
HETATM   35  C   UNK N   1      25.385  15.123   1.819  0.00  0.00     0.013 A 
HETATM   36  C   UNK N   1      24.727  13.923   2.023  0.00  0.00    -0.026 A 
HETATM   37  C   UNK N   1      25.416  12.839   2.613  0.00  0.00     0.013 A 
HETATM   38  C   UNK N   1      26.782  12.964   2.931  0.00  0.00     0.009 A 
BRANCH  36  39
HETATM   39  C   UNK N   1      23.407  13.776   1.402  0.00  0.00    -0.026 A 
HETATM   40  C   UNK N   1      22.445  14.784   1.508  0.00  0.00     0.012 A 
HETATM   41  C   UNK N   1      21.139  14.546   1.074  0.00  0.00     0.001 A 
HETATM   42  C   UNK N   1      20.785  13.296   0.552  0.00  0.00     0.000 A 
HETATM   43  C   UNK N   1      21.742  12.289   0.436  0.00  0.00     0.001 A 
HETATM   44  C   UNK N   1      23.044  12.528   0.860  0.00  0.00     0.012 A 
ENDBRANCH  36  39
ENDBRANCH  32  33
ENDBRANCH  29  32
ENDBRANCH  22  24
BRANCH  21  45
HETATM   45  O   UNK N   1      29.476  20.051   4.252  0.00  0.00    -0.348 OA
HETATM   46  H   UNK N   1      29.738  20.932   4.072  0.00  0.00     0.219 HD
ENDBRANCH  21  45
ENDBRANCH   1  21
BRANCH   1  47
HETATM   47  N   UNK N   1      26.856  19.499   6.426  0.00  0.00    -0.362 N 
HETATM   48  C   UNK N   1      26.645  20.624   7.022  0.00  0.00     0.107 C 
HETATM   49  C   UNK N   1      26.827  21.935   6.321  0.00  0.00     0.097 C 
ATOM     50  HN  UNK N   1      26.704  18.643   6.960  1.00  0.00     0.162 HD
BRANCH  48  51
HETATM   51  O   UNK N   1      26.231  20.621   8.302  0.00  0.00    -0.350 OA
HETATM   52  H   UNK N   1      25.540  21.022   8.793  0.00  0.00     0.219 HD
ENDBRANCH  48  51
ENDBRANCH   1  47
TORSDOF 17
ENDMDL
MODEL 3
REMARK VINA RESULT:      -7.5      3.918      7.211
REMARK  17 active torsions:
REMARK  status: ('A' for Active; 'I' for Inactive)
REMARK    1  A    between atoms: C_23  and  C_17 
REMARK    2  A    between atoms: C_27  and  C_17 
REMARK    3  A    between atoms: C_22  and  C_19 
REMARK    4  A    between atoms: N_37  and  C_19 
REMARK    5  A    between atoms: C_30  and  C_20 
REMARK    6  A    between atoms: O_46  and  C_20 
REMARK    7  A    between atoms: O_38  and  C_21 
REMARK    8  A    between atoms: C_25  and  C_24 
REMARK    9  A    between atoms: C_26  and  N_35 
REMARK   10  A    between atoms: C_31  and  C_27 
REMARK   11  A    between atoms: C_27  and  N_33 
REMARK   12  A    between atoms: O_46  and  C_28 
REMARK   13  A    between atoms: P_47  and  C_29 
REMARK   14  A    between atoms: O_40  and  C_30 
REMARK   15  A    between atoms: C_31  and  O_41 
REMARK   16  A    between atoms: P_47  and  O_43 
REMARK   17  A    between atoms: P_47  and  O_44 
ROOT
HETATM    1  C   UNK N   1      21.668  17.188   4.555  0.00  0.00     0.162 C 
ENDROOT
BRANCH   1   2
HETATM    2  C   UNK N   1      22.792  17.783   3.659  0.00  0.00     0.072 C 
BRANCH   2   3
HETATM    3  C   UNK N   1      24.082  17.288   4.177  0.00  0.00    -0.054 A 
HETATM    4  C   UNK N   1      24.212  16.062   4.827  0.00  0.00     0.010 A 
HETATM    5  C   UNK N   1      25.390  15.797   5.539  0.00  0.00     0.038 A 
HETATM    6  C   UNK N   1      26.398  16.779   5.659  0.00  0.00     0.087 A 
HETATM    7  C   UNK N   1      26.208  18.034   5.002  0.00  0.00     0.083 A 
HETATM    8  C   UNK N   1      25.077  18.223   4.266  0.00  0.00     0.029 A 
BRANCH   6   9
HETATM    9  O   UNK N   1      27.476  16.470   6.418  0.00  0.00    -0.340 OA
BRANCH   9  10
HETATM   10  C   UNK N   1      27.484  16.421   7.790  0.00  0.00     0.285 C 
BRANCH  10  11
HETATM   11  C   UNK N   1      28.108  17.650   8.354  0.00  0.00     0.164 C 
HETATM   12  O   UNK N   1      29.227  17.989   8.008  0.00  0.00    -0.648 OA
BRANCH  11  13
HETATM   13  O   UNK N   1      27.441  18.379   9.264  0.00  0.00    -0.775 OA
HETATM   14  H   UNK N   1      27.911  18.854   9.921  0.00  0.00     0.167 HD
ENDBRANCH  11  13
ENDBRANCH  10  11
ENDBRANCH   9  10
ENDBRANCH   6   9
BRANCH   7  15
HETATM   15  P   UNK N   1      27.208  19.575   5.139  0.00  0.00     0.273 P 
HETATM   16  O   UNK N   1      26.252  20.668   4.580  0.00  0.00    -0.650 OA
BRANCH  15  17
HETATM   17  O   UNK N   1      27.521  20.254   6.702  0.00  0.00    -0.326 OA
HETATM   18  H   UNK N   1      28.242  20.610   7.244  0.00  0.00     0.220 HD
ENDBRANCH  15  17
BRANCH  15  19
HETATM   19  O   UNK N   1      28.561  19.790   4.081  0.00  0.00    -0.326 OA
HETATM   20  H   UNK N   1      28.992  20.159   3.293  0.00  0.00     0.220 HD
ENDBRANCH  15  19
ENDBRANCH   7  15
ENDBRANCH   2   3
ENDBRANCH   1   2
BRANCH   1  21
HETATM   21  C   UNK N   1      20.628  16.759   3.625  0.00  0.00     0.135 C 
HETATM   22  N   UNK N   1      20.917  15.848   2.774  0.00  0.00    -0.359 N 
ATOM     23  HN  UNK N   1      21.880  15.740   2.454  1.00  0.00     0.162 HD
BRANCH  22  24
HETATM   24  C   UNK N   1      19.904  14.983   2.268  0.00  0.00     0.175 C 
HETATM   25  C   UNK N   1      20.276  14.421   0.894  0.00  0.00     0.035 C 
HETATM   26  C   UNK N   1      21.737  14.005   0.748  0.00  0.00     0.004 C 
HETATM   27  C   UNK N   1      22.091  12.811   1.614  0.00  0.00     0.020 C 
HETATM   28  C   UNK N   1      22.115  13.197   3.090  0.00  0.00     0.126 C 
HETATM   29  N   UNK N   1      20.798  13.083   3.676  0.00  0.00    -0.346 N 
HETATM   30  C   UNK N   1      19.746  13.901   3.319  0.00  0.00     0.242 C 
HETATM   31  O   UNK N   1      18.662  13.769   3.857  0.00  0.00    -0.271 OA
BRANCH  29  32
HETATM   32  C   UNK N   1      20.538  11.932   4.533  0.00  0.00     0.164 C 
BRANCH  32  33
HETATM   33  C   UNK N   1      21.301  12.129   5.818  0.00  0.00    -0.040 A 
HETATM   34  C   UNK N   1      20.792  13.024   6.765  0.00  0.00     0.009 A 
HETATM   35  C   UNK N   1      21.335  13.147   8.006  0.00  0.00     0.013 A 
HETATM   36  C   UNK N   1      22.419  12.367   8.366  0.00  0.00    -0.026 A 
HETATM   37  C   UNK N   1      23.003  11.498   7.417  0.00  0.00     0.013 A 
HETATM   38  C   UNK N   1      22.442  11.384   6.131  0.00  0.00     0.009 A 
BRANCH  36  39
HETATM   39  C   UNK N   1      22.758  12.323   9.792  0.00  0.00    -0.026 A 
HETATM   40  C   UNK N   1      24.087  12.226  10.215  0.00  0.00     0.012 A 
HETATM   41  C   UNK N   1      24.373  11.996  11.562  0.00  0.00     0.001 A 
HETATM   42  C   UNK N   1      23.333  11.843  12.488  0.00  0.00     0.000 A 
HETATM   43  C   UNK N   1      22.006  11.947  12.075  0.00  0.00     0.001 A 
HETATM   44  C   UNK N   1      21.721  12.184  10.736  0.00  0.00     0.012 A 
ENDBRANCH  36  39
ENDBRANCH  32  33
ENDBRANCH  29  32
ENDBRANCH  22  24
BRANCH  21  45
HETATM   45  O   UNK N   1      19.341  17.067   3.908  0.00  0.00    -0.348 OA
HETATM   46  H   UNK N   1      18.422  17.038   3.728  0.00  0.00     0.219 HD
ENDBRANCH  21  45
ENDBRANCH   1  21
BRANCH   1  47
HETATM   47  N   UNK N   1      21.227  18.193   5.506  0.00  0.00    -0.362 N 
HETATM   48  C   UNK N   1      20.989  17.961   6.753  0.00  0.00     0.107 C 
HETATM   49  C   UNK N   1      21.165  16.599   7.350  0.00  0.00     0.097 C 
ATOM     50  HN  UNK N   1      21.095  19.146   5.166  1.00  0.00     0.162 HD
BRANCH  48  51
HETATM   51  O   UNK N   1      20.590  18.973   7.544  0.00  0.00    -0.350 OA
HETATM   52  H   UNK N   1      20.939  19.799   7.817  0.00  0.00     0.219 HD
ENDBRANCH  48  51
ENDBRANCH   1  47
TORSDOF 17
ENDMDL
MODEL 4
REMARK VINA RESULT:      -7.5     13.141     16.230
REMARK  17 active torsions:
REMARK  status: ('A' for Active; 'I' for Inactive)
REMARK    1  A    between atoms: C_23  and  C_17 
REMARK    2  A    between atoms: C_27  and  C_17 
REMARK    3  A    between atoms: C_22  and  C_19 
REMARK    4  A    between atoms: N_37  and  C_19 
REMARK    5  A    between atoms: C_30  and  C_20 
REMARK    6  A    between atoms: O_46  and  C_20 
REMARK    7  A    between atoms: O_38  and  C_21 
REMARK    8  A    between atoms: C_25  and  C_24 
REMARK    9  A    between atoms: C_26  and  N_35 
REMARK   10  A    between atoms: C_31  and  C_27 
REMARK   11  A    between atoms: C_27  and  N_33 
REMARK   12  A    between atoms: O_46  and  C_28 
REMARK   13  A    between atoms: P_47  and  C_29 
REMARK   14  A    between atoms: O_40  and  C_30 
REMARK   15  A    between atoms: C_31  and  O_41 
REMARK   16  A    between atoms: P_47  and  O_43 
REMARK   17  A    between atoms: P_47  and  O_44 
ROOT
HETATM    1  C   UNK N   1      30.330  27.323  -5.064  0.00  0.00     0.162 C 
ENDROOT
BRANCH   1   2
HETATM    2  C   UNK N   1      29.920  26.050  -5.859  0.00  0.00     0.072 C 
BRANCH   2   3
HETATM    3  C   UNK N   1      31.028  25.081  -5.749  0.00  0.00    -0.054 A 
HETATM    4  C   UNK N   1      31.802  24.695  -6.842  0.00  0.00     0.010 A 
HETATM    5  C   UNK N   1      32.629  23.570  -6.719  0.00  0.00     0.038 A 
HETATM    6  C   UNK N   1      32.627  22.797  -5.538  0.00  0.00     0.087 A 
HETATM    7  C   UNK N   1      31.793  23.212  -4.453  0.00  0.00     0.083 A 
HETATM    8  C   UNK N   1      31.056  24.350  -4.593  0.00  0.00     0.029 A 
BRANCH   6   9
HETATM    9  O   UNK N   1      33.404  21.688  -5.522  0.00  0.00    -0.340 OA
BRANCH   9  10
HETATM   10  C   UNK N   1      33.001  20.439  -5.927  0.00  0.00     0.285 C 
BRANCH  10  11
HETATM   11  C   UNK N   1      33.288  19.429  -4.871  0.00  0.00     0.164 C 
HETATM   12  O   UNK N   1      34.421  19.009  -4.710  0.00  0.00    -0.648 OA
BRANCH  11  13
HETATM   13  O   UNK N   1      32.287  18.965  -4.103  0.00  0.00    -0.775 OA
HETATM   14  H   UNK N   1      31.421  18.898  -4.453  0.00  0.00     0.167 HD
ENDBRANCH  11  13
ENDBRANCH  10  11
ENDBRANCH   9  10
ENDBRANCH   6   9
BRANCH   7  15
HETATM   15  P   UNK N   1      31.400  22.322  -2.889  0.00  0.00     0.273 P 
HETATM   16  O   UNK N   1      30.397  21.225  -3.350  0.00  0.00    -0.650 OA
BRANCH  15  17
HETATM   17  O   UNK N   1      32.601  21.309  -2.159  0.00  0.00    -0.326 OA
HETATM   18  H   UNK N   1      33.425  20.841  -2.364  0.00  0.00     0.220 HD
ENDBRANCH  15  17
BRANCH  15  19
HETATM   19  O   UNK N   1      30.441  23.122  -1.690  0.00  0.00    -0.326 OA
HETATM   20  H   UNK N   1      30.188  23.895  -1.163  0.00  0.00     0.220 HD
ENDBRANCH  15  19
ENDBRANCH   7  15
ENDBRANCH   2   3
ENDBRANCH   1   2
BRANCH   1  21
HETATM   21  C   UNK N   1      29.211  27.584  -4.164  0.00  0.00     0.135 C 
HETATM   22  N   UNK N   1      28.047  27.181  -4.513  0.00  0.00    -0.359 N 
ATOM     23  HN  UNK N   1      27.818  27.092  -5.503  1.00  0.00     0.162 HD
BRANCH  22  24
HETATM   24  C   UNK N   1      27.069  26.856  -3.529  0.00  0.00     0.175 C 
HETATM   25  C   UNK N   1      25.889  27.830  -3.564  0.00  0.00     0.035 C 
HETATM   26  C   UNK N   1      25.421  28.216  -4.964  0.00  0.00     0.004 C 
HETATM   27  C   UNK N   1      24.811  27.049  -5.717  0.00  0.00     0.020 C 
HETATM   28  C   UNK N   1      25.880  26.036  -6.111  0.00  0.00     0.126 C 
HETATM   29  N   UNK N   1      26.104  25.081  -5.049  0.00  0.00    -0.346 N 
HETATM   30  C   UNK N   1      26.660  25.428  -3.835  0.00  0.00     0.242 C 
HETATM   31  O   UNK N   1      26.839  24.579  -2.981  0.00  0.00    -0.271 OA
BRANCH  29  32
HETATM   32  C   UNK N   1      25.541  23.746  -5.211  0.00  0.00     0.164 C 
BRANCH  32  33
HETATM   33  C   UNK N   1      26.360  23.020  -6.247  0.00  0.00    -0.040 A 
HETATM   34  C   UNK N   1      27.751  23.012  -6.112  0.00  0.00     0.009 A 
HETATM   35  C   UNK N   1      28.550  22.259  -6.915  0.00  0.00     0.013 A 
HETATM   36  C   UNK N   1      27.989  21.461  -7.896  0.00  0.00    -0.026 A 
HETATM   37  C   UNK N   1      26.592  21.491  -8.108  0.00  0.00     0.013 A 
HETATM   38  C   UNK N   1      25.773  22.282  -7.280  0.00  0.00     0.009 A 
BRANCH  36  39
HETATM   39  C   UNK N   1      28.860  20.456  -8.512  0.00  0.00    -0.026 A 
HETATM   40  C   UNK N   1      29.101  20.456  -9.889  0.00  0.00     0.012 A 
HETATM   41  C   UNK N   1      29.777  19.385 -10.476  0.00  0.00     0.001 A 
HETATM   42  C   UNK N   1      30.197  18.302  -9.695  0.00  0.00     0.000 A 
HETATM   43  C   UNK N   1      29.968  18.299  -8.321  0.00  0.00     0.001 A 
HETATM   44  C   UNK N   1      29.302  19.368  -7.734  0.00  0.00     0.012 A 
ENDBRANCH  36  39
ENDBRANCH  32  33
ENDBRANCH  29  32
ENDBRANCH  22  24
BRANCH  21  45
HETATM   45  O   UNK N   1      29.478  27.914  -2.879  0.00  0.00    -0.348 OA
HETATM   46  H   UNK N   1      29.233  28.254  -2.041  0.00  0.00     0.219 HD
ENDBRANCH  21  45
ENDBRANCH   1  21
BRANCH   1  47
HETATM   47  N   UNK N   1      30.603  28.405  -5.991  0.00  0.00    -0.362 N 
HETATM   48  C   UNK N   1      31.783  28.845  -6.272  0.00  0.00     0.107 C 
HETATM   49  C   UNK N   1      33.012  28.250  -5.657  0.00  0.00     0.097 C 
ATOM     50  HN  UNK N   1      29.808  28.849  -6.453  1.00  0.00     0.162 HD
BRANCH  48  51
HETATM   51  O   UNK N   1      31.916  29.851  -7.154  0.00  0.00    -0.350 OA
HETATM   52  H   UNK N   1      31.437  30.174  -7.892  0.00  0.00     0.219 HD
ENDBRANCH  48  51
ENDBRANCH   1  47
TORSDOF 17
ENDMDL
MODEL 5
REMARK VINA RESULT:      -7.4      3.522      7.001
REMARK  17 active torsions:
REMARK  status: ('A' for Active; 'I' for Inactive)
REMARK    1  A    between atoms: C_23  and  C_17 
REMARK    2  A    between atoms: C_27  and  C_17 
REMARK    3  A    between atoms: C_22  and  C_19 
REMARK    4  A    between atoms: N_37  and  C_19 
REMARK    5  A    between atoms: C_30  and  C_20 
REMARK    6  A    between atoms: O_46  and  C_20 
REMARK    7  A    between atoms: O_38  and  C_21 
REMARK    8  A    between atoms: C_25  and  C_24 
REMARK    9  A    between atoms: C_26  and  N_35 
REMARK   10  A    between atoms: C_31  and  C_27 
REMARK   11  A    between atoms: C_27  and  N_33 
REMARK   12  A    between atoms: O_46  and  C_28 
REMARK   13  A    between atoms: P_47  and  C_29 
REMARK   14  A    between atoms: O_40  and  C_30 
REMARK   15  A    between atoms: C_31  and  O_41 
REMARK   16  A    between atoms: P_47  and  O_43 
REMARK   17  A    between atoms: P_47  and  O_44 
ROOT
HETATM    1  C   UNK N   1      21.710  17.217   4.316  0.00  0.00     0.162 C 
ENDROOT
BRANCH   1   2
HETATM    2  C   UNK N   1      22.784  17.887   3.412  0.00  0.00     0.072 C 
BRANCH   2   3
HETATM    3  C   UNK N   1      23.955  18.187   4.259  0.00  0.00    -0.054 A 
HETATM    4  C   UNK N   1      24.568  19.438   4.280  0.00  0.00     0.010 A 
HETATM    5  C   UNK N   1      25.831  19.561   4.876  0.00  0.00     0.038 A 
HETATM    6  C   UNK N   1      26.504  18.428   5.383  0.00  0.00     0.087 A 
HETATM    7  C   UNK N   1      25.850  17.159   5.312  0.00  0.00     0.083 A 
HETATM    8  C   UNK N   1      24.595  17.098   4.784  0.00  0.00     0.029 A 
BRANCH   6   9
HETATM    9  O   UNK N   1      27.748  18.619   5.883  0.00  0.00    -0.340 OA
BRANCH   9  10
HETATM   10  C   UNK N   1      28.027  19.183   7.103  0.00  0.00     0.285 C 
BRANCH  10  11
HETATM   11  C   UNK N   1      28.199  18.129   8.141  0.00  0.00     0.164 C 
HETATM   12  O   UNK N   1      28.971  17.203   7.959  0.00  0.00    -0.648 OA
BRANCH  11  13
HETATM   13  O   UNK N   1      27.485  18.190   9.278  0.00  0.00    -0.775 OA
HETATM   14  H   UNK N   1      27.219  17.400   9.707  0.00  0.00     0.167 HD
ENDBRANCH  11  13
ENDBRANCH  10  11
ENDBRANCH   9  10
ENDBRANCH   6   9
BRANCH   7  15
HETATM   15  P   UNK N   1      26.529  15.485   5.674  0.00  0.00     0.273 P 
HETATM   16  O   UNK N   1      26.125  15.253   7.158  0.00  0.00    -0.650 OA
BRANCH  15  17
HETATM   17  O   UNK N   1      25.785  14.090   4.964  0.00  0.00    -0.326 OA
HETATM   18  H   UNK N   1      25.955  13.383   4.322  0.00  0.00     0.220 HD
ENDBRANCH  15  17
BRANCH  15  19
HETATM   19  O   UNK N   1      28.244  15.287   5.794  0.00  0.00    -0.326 OA
HETATM   20  H   UNK N   1      29.158  15.520   5.569  0.00  0.00     0.220 HD
ENDBRANCH  15  19
ENDBRANCH   7  15
ENDBRANCH   2   3
ENDBRANCH   1   2
BRANCH   1  21
HETATM   21  C   UNK N   1      20.655  16.795   3.401  0.00  0.00     0.135 C 
HETATM   22  N   UNK N   1      20.796  15.680   2.788  0.00  0.00    -0.359 N 
ATOM     23  HN  UNK N   1      21.732  15.325   2.590  1.00  0.00     0.162 HD
BRANCH  22  24
HETATM   24  C   UNK N   1      19.656  14.929   2.380  0.00  0.00     0.175 C 
HETATM   25  C   UNK N   1      19.814  14.393   0.955  0.00  0.00     0.035 C 
HETATM   26  C   UNK N   1      21.203  13.854   0.626  0.00  0.00     0.004 C 
HETATM   27  C   UNK N   1      21.542  12.600   1.409  0.00  0.00     0.020 C 
HETATM   28  C   UNK N   1      21.770  12.922   2.882  0.00  0.00     0.126 C 
HETATM   29  N   UNK N   1      20.524  12.902   3.615  0.00  0.00    -0.346 N 
HETATM   30  C   UNK N   1      19.519  13.824   3.410  0.00  0.00     0.242 C 
HETATM   31  O   UNK N   1      18.496  13.767   4.067  0.00  0.00    -0.271 OA
BRANCH  29  32
HETATM   32  C   UNK N   1      20.259  11.745   4.462  0.00  0.00     0.164 C 
BRANCH  32  33
HETATM   33  C   UNK N   1      21.133  11.854   5.685  0.00  0.00    -0.040 A 
HETATM   34  C   UNK N   1      20.808  12.807   6.655  0.00  0.00     0.009 A 
HETATM   35  C   UNK N   1      21.454  12.870   7.850  0.00  0.00     0.013 A 
HETATM   36  C   UNK N   1      22.460  11.966   8.140  0.00  0.00    -0.026 A 
HETATM   37  C   UNK N   1      22.863  11.030   7.161  0.00  0.00     0.013 A 
HETATM   38  C   UNK N   1      22.197  10.978   5.922  0.00  0.00     0.009 A 
BRANCH  36  39
HETATM   39  C   UNK N   1      22.898  11.887   9.537  0.00  0.00    -0.026 A 
HETATM   40  C   UNK N   1      21.973  11.912  10.585  0.00  0.00     0.012 A 
HETATM   41  C   UNK N   1      22.420  12.026  11.903  0.00  0.00     0.001 A 
HETATM   42  C   UNK N   1      23.788  12.134  12.178  0.00  0.00     0.000 A 
HETATM   43  C   UNK N   1      24.716  12.101  11.139  0.00  0.00     0.001 A 
HETATM   44  C   UNK N   1      24.273  11.980   9.827  0.00  0.00     0.012 A 
ENDBRANCH  36  39
ENDBRANCH  32  33
ENDBRANCH  29  32
ENDBRANCH  22  24
BRANCH  21  45
HETATM   45  O   UNK N   1      19.444  17.392   3.491  0.00  0.00    -0.348 OA
HETATM   46  H   UNK N   1      18.553  17.508   3.224  0.00  0.00     0.219 HD
ENDBRANCH  21  45
ENDBRANCH   1  21
BRANCH   1  47
HETATM   47  N   UNK N   1      21.270  18.164   5.324  0.00  0.00    -0.362 N 
HETATM   48  C   UNK N   1      21.134  17.884   6.577  0.00  0.00     0.107 C 
HETATM   49  C   UNK N   1      21.443  16.522   7.118  0.00  0.00     0.097 C 
ATOM     50  HN  UNK N   1      21.051  19.114   5.023  1.00  0.00     0.162 HD
BRANCH  48  51
HETATM   51  O   UNK N   1      20.724  18.845   7.423  0.00  0.00    -0.350 OA
HETATM   52  H   UNK N   1      20.848  19.049   8.329  0.00  0.00     0.219 HD
ENDBRANCH  48  51
ENDBRANCH   1  47
TORSDOF 17
ENDMDL
MODEL 6
REMARK VINA RESULT:      -7.3      2.216      3.437
REMARK  17 active torsions:
REMARK  status: ('A' for Active; 'I' for Inactive)
REMARK    1  A    between atoms: C_23  and  C_17 
REMARK    2  A    between atoms: C_27  and  C_17 
REMARK    3  A    between atoms: C_22  and  C_19 
REMARK    4  A    between atoms: N_37  and  C_19 
REMARK    5  A    between atoms: C_30  and  C_20 
REMARK    6  A    between atoms: O_46  and  C_20 
REMARK    7  A    between atoms: O_38  and  C_21 
REMARK    8  A    between atoms: C_25  and  C_24 
REMARK    9  A    between atoms: C_26  and  N_35 
REMARK   10  A    between atoms: C_31  and  C_27 
REMARK   11  A    between atoms: C_27  and  N_33 
REMARK   12  A    between atoms: O_46  and  C_28 
REMARK   13  A    between atoms: P_47  and  C_29 
REMARK   14  A    between atoms: O_40  and  C_30 
REMARK   15  A    between atoms: C_31  and  O_41 
REMARK   16  A    between atoms: P_47  and  O_43 
REMARK   17  A    between atoms: P_47  and  O_44 
ROOT
HETATM    1  C   UNK N   1      21.898  13.370   4.991  0.00  0.00     0.162 C 
ENDROOT
BRANCH   1   2
HETATM    2  C   UNK N   1      21.256  14.246   3.878  0.00  0.00     0.072 C 
BRANCH   2   3
HETATM    3  C   UNK N   1      21.973  15.536   3.858  0.00  0.00    -0.054 A 
HETATM    4  C   UNK N   1      23.155  15.751   4.564  0.00  0.00     0.010 A 
HETATM    5  C   UNK N   1      23.613  17.065   4.729  0.00  0.00     0.038 A 
HETATM    6  C   UNK N   1      22.857  18.159   4.254  0.00  0.00     0.087 A 
HETATM    7  C   UNK N   1      21.634  17.893   3.562  0.00  0.00     0.083 A 
HETATM    8  C   UNK N   1      21.262  16.597   3.366  0.00  0.00     0.029 A 
BRANCH   6   9
HETATM    9  O   UNK N   1      23.334  19.400   4.511  0.00  0.00    -0.340 OA
BRANCH   9  10
HETATM   10  C   UNK N   1      24.495  19.919   3.995  0.00  0.00     0.285 C 
BRANCH  10  11
HETATM   11  C   UNK N   1      24.208  20.754   2.795  0.00  0.00     0.164 C 
HETATM   12  O   UNK N   1      25.061  20.918   1.938  0.00  0.00    -0.648 OA
BRANCH  11  13
HETATM   13  O   UNK N   1      23.008  21.344   2.665  0.00  0.00    -0.775 OA
HETATM   14  H   UNK N   1      22.795  21.805   1.877  0.00  0.00     0.167 HD
ENDBRANCH  11  13
ENDBRANCH  10  11
ENDBRANCH   9  10
ENDBRANCH   6   9
BRANCH   7  15
HETATM   15  P   UNK N   1      20.329  19.075   3.021  0.00  0.00     0.273 P 
HETATM   16  O   UNK N   1      20.806  19.503   1.603  0.00  0.00    -0.650 OA
BRANCH  15  17
HETATM   17  O   UNK N   1      18.753  18.480   2.615  0.00  0.00    -0.326 OA
HETATM   18  H   UNK N   1      18.042  18.599   1.966  0.00  0.00     0.220 HD
ENDBRANCH  15  17
BRANCH  15  19
HETATM   19  O   UNK N   1      20.236  20.625   3.787  0.00  0.00    -0.326 OA
HETATM   20  H   UNK N   1      20.237  21.594   3.776  0.00  0.00     0.220 HD
ENDBRANCH  15  19
ENDBRANCH   7  15
ENDBRANCH   2   3
ENDBRANCH   1   2
BRANCH   1  21
HETATM   21  C   UNK N   1      22.213  12.102   4.341  0.00  0.00     0.135 C 
HETATM   22  N   UNK N   1      22.319  12.086   3.065  0.00  0.00    -0.359 N 
ATOM     23  HN  UNK N   1      21.800  12.763   2.505  1.00  0.00     0.162 HD
BRANCH  22  24
HETATM   24  C   UNK N   1      23.156  11.131   2.421  0.00  0.00     0.175 C 
HETATM   25  C   UNK N   1      22.783  10.958   0.946  0.00  0.00     0.035 C 
HETATM   26  C   UNK N   1      22.452  12.255   0.214  0.00  0.00     0.004 C 
HETATM   27  C   UNK N   1      23.657  13.164   0.067  0.00  0.00     0.020 C 
HETATM   28  C   UNK N   1      24.057  13.762   1.411  0.00  0.00     0.126 C 
HETATM   29  N   UNK N   1      24.956  12.881   2.123  0.00  0.00    -0.346 N 
HETATM   30  C   UNK N   1      24.569  11.650   2.610  0.00  0.00     0.242 C 
HETATM   31  O   UNK N   1      25.365  10.955   3.215  0.00  0.00    -0.271 OA
BRANCH  29  32
HETATM   32  C   UNK N   1      26.369  13.238   2.150  0.00  0.00     0.164 C 
BRANCH  32  33
HETATM   33  C   UNK N   1      26.535  14.408   3.085  0.00  0.00    -0.040 A 
HETATM   34  C   UNK N   1      26.522  14.169   4.462  0.00  0.00     0.009 A 
HETATM   35  C   UNK N   1      26.812  15.142   5.367  0.00  0.00     0.013 A 
HETATM   36  C   UNK N   1      27.142  16.413   4.932  0.00  0.00    -0.026 A 
HETATM   37  C   UNK N   1      27.103  16.713   3.552  0.00  0.00     0.013 A 
HETATM   38  C   UNK N   1      26.790  15.703   2.622  0.00  0.00     0.009 A 
BRANCH  36  39
HETATM   39  C   UNK N   1      27.736  17.319   5.921  0.00  0.00    -0.026 A 
HETATM   40  C   UNK N   1      28.482  16.824   6.995  0.00  0.00     0.012 A 
HETATM   41  C   UNK N   1      28.876  17.685   8.022  0.00  0.00     0.001 A 
HETATM   42  C   UNK N   1      28.511  19.036   7.989  0.00  0.00     0.000 A 
HETATM   43  C   UNK N   1      27.775  19.537   6.917  0.00  0.00     0.001 A 
HETATM   44  C   UNK N   1      27.389  18.683   5.891  0.00  0.00     0.012 A 
ENDBRANCH  36  39
ENDBRANCH  32  33
ENDBRANCH  29  32
ENDBRANCH  22  24
BRANCH  21  45
HETATM   45  O   UNK N   1      22.714  11.096   5.095  0.00  0.00    -0.348 OA
HETATM   46  H   UNK N   1      22.932  10.704   5.917  0.00  0.00     0.219 HD
ENDBRANCH  21  45
ENDBRANCH   1  21
BRANCH   1  47
HETATM   47  N   UNK N   1      20.973  13.246   6.103  0.00  0.00    -0.362 N 
HETATM   48  C   UNK N   1      21.256  13.552   7.324  0.00  0.00     0.107 C 
HETATM   49  C   UNK N   1      22.598  14.091   7.711  0.00  0.00     0.097 C 
ATOM     50  HN  UNK N   1      20.036  12.893   5.905  1.00  0.00     0.162 HD
BRANCH  48  51
HETATM   51  O   UNK N   1      20.314  13.402   8.273  0.00  0.00    -0.350 OA
HETATM   52  H   UNK N   1      19.408  13.166   8.298  0.00  0.00     0.219 HD
ENDBRANCH  48  51
ENDBRANCH   1  47
TORSDOF 17
ENDMDL
MODEL 7
REMARK VINA RESULT:      -7.3      4.583      8.965
REMARK  17 active torsions:
REMARK  status: ('A' for Active; 'I' for Inactive)
REMARK    1  A    between atoms: C_23  and  C_17 
REMARK    2  A    between atoms: C_27  and  C_17 
REMARK    3  A    between atoms: C_22  and  C_19 
REMARK    4  A    between atoms: N_37  and  C_19 
REMARK    5  A    between atoms: C_30  and  C_20 
REMARK    6  A    between atoms: O_46  and  C_20 
REMARK    7  A    between atoms: O_38  and  C_21 
REMARK    8  A    between atoms: C_25  and  C_24 
REMARK    9  A    between atoms: C_26  and  N_35 
REMARK   10  A    between atoms: C_31  and  C_27 
REMARK   11  A    between atoms: C_27  and  N_33 
REMARK   12  A    between atoms: O_46  and  C_28 
REMARK   13  A    between atoms: P_47  and  C_29 
REMARK   14  A    between atoms: O_40  and  C_30 
REMARK   15  A    between atoms: C_31  and  O_41 
REMARK   16  A    between atoms: P_47  and  O_43 
REMARK   17  A    between atoms: P_47  and  O_44 
ROOT
HETATM    1  C   UNK N   1      24.989  16.708   4.157  0.00  0.00     0.162 C 
ENDROOT
BRANCH   1   2
HETATM    2  C   UNK N   1      25.460  16.289   5.578  0.00  0.00     0.072 C 
BRANCH   2   3
HETATM    3  C   UNK N   1      26.920  16.492   5.641  0.00  0.00    -0.054 A 
HETATM    4  C   UNK N   1      27.803  15.892   4.745  0.00  0.00     0.010 A 
HETATM    5  C   UNK N   1      29.173  15.896   5.042  0.00  0.00     0.038 A 
HETATM    6  C   UNK N   1      29.647  16.432   6.259  0.00  0.00     0.087 A 
HETATM    7  C   UNK N   1      28.701  17.010   7.163  0.00  0.00     0.083 A 
HETATM    8  C   UNK N   1      27.388  17.044   6.803  0.00  0.00     0.029 A 
BRANCH   6   9
HETATM    9  O   UNK N   1      30.976  16.339   6.502  0.00  0.00    -0.340 OA
BRANCH   9  10
HETATM   10  C   UNK N   1      31.941  17.112   5.905  0.00  0.00     0.285 C 
BRANCH  10  11
HETATM   11  C   UNK N   1      32.946  17.562   6.907  0.00  0.00     0.164 C 
HETATM   12  O   UNK N   1      32.652  17.630   8.089  0.00  0.00    -0.648 OA
BRANCH  11  13
HETATM   13  O   UNK N   1      34.180  17.911   6.504  0.00  0.00    -0.775 OA
HETATM   14  H   UNK N   1      34.543  17.533   5.728  0.00  0.00     0.167 HD
ENDBRANCH  11  13
ENDBRANCH  10  11
ENDBRANCH   9  10
ENDBRANCH   6   9
BRANCH   7  15
HETATM   15  P   UNK N   1      28.958  17.585   8.894  0.00  0.00     0.273 P 
HETATM   16  O   UNK N   1      27.790  16.909   9.668  0.00  0.00    -0.650 OA
BRANCH  15  17
HETATM   17  O   UNK N   1      30.291  16.966   9.811  0.00  0.00    -0.326 OA
HETATM   18  H   UNK N   1      30.494  16.514  10.645  0.00  0.00     0.220 HD
ENDBRANCH  15  17
BRANCH  15  19
HETATM   19  O   UNK N   1      28.651  19.245   9.278  0.00  0.00    -0.326 OA
HETATM   20  H   UNK N   1      28.136  19.955   9.691  0.00  0.00     0.220 HD
ENDBRANCH  15  19
ENDBRANCH   7  15
ENDBRANCH   2   3
ENDBRANCH   1   2
BRANCH   1  21
HETATM   21  C   UNK N   1      24.287  17.973   4.347  0.00  0.00     0.135 C 
HETATM   22  N   UNK N   1      23.114  18.096   3.848  0.00  0.00    -0.359 N 
ATOM     23  HN  UNK N   1      22.857  17.558   3.020  1.00  0.00     0.162 HD
BRANCH  22  24
HETATM   24  C   UNK N   1      22.164  18.976   4.441  0.00  0.00     0.175 C 
HETATM   25  C   UNK N   1      21.249  19.610   3.390  0.00  0.00     0.035 C 
HETATM   26  C   UNK N   1      20.782  18.658   2.293  0.00  0.00     0.004 C 
HETATM   27  C   UNK N   1      19.858  17.575   2.816  0.00  0.00     0.020 C 
HETATM   28  C   UNK N   1      20.622  16.571   3.672  0.00  0.00     0.126 C 
HETATM   29  N   UNK N   1      20.693  17.012   5.048  0.00  0.00    -0.346 N 
HETATM   30  C   UNK N   1      21.405  18.125   5.442  0.00  0.00     0.242 C 
HETATM   31  O   UNK N   1      21.442  18.442   6.617  0.00  0.00    -0.271 OA
BRANCH  29  32
HETATM   32  C   UNK N   1      19.818  16.356   6.012  0.00  0.00     0.164 C 
BRANCH  32  33
HETATM   33  C   UNK N   1      20.686  15.621   7.001  0.00  0.00    -0.040 A 
HETATM   34  C   UNK N   1      20.402  15.754   8.364  0.00  0.00     0.009 A 
HETATM   35  C   UNK N   1      21.039  15.011   9.309  0.00  0.00     0.013 A 
HETATM   36  C   UNK N   1      21.993  14.084   8.932  0.00  0.00    -0.026 A 
HETATM   37  C   UNK N   1      22.355  13.966   7.571  0.00  0.00     0.013 A 
HETATM   38  C   UNK N   1      21.700  14.746   6.600  0.00  0.00     0.009 A 
BRANCH  36  39
HETATM   39  C   UNK N   1      22.413  13.114   9.948  0.00  0.00    -0.026 A 
HETATM   40  C   UNK N   1      21.497  12.586  10.863  0.00  0.00     0.012 A 
HETATM   41  C   UNK N   1      21.952  11.813  11.934  0.00  0.00     0.001 A 
HETATM   42  C   UNK N   1      23.322  11.583  12.106  0.00  0.00     0.000 A 
HETATM   43  C   UNK N   1      24.240  12.099  11.193  0.00  0.00     0.001 A 
HETATM   44  C   UNK N   1      23.788  12.860  10.122  0.00  0.00     0.012 A 
ENDBRANCH  36  39
ENDBRANCH  32  33
ENDBRANCH  29  32
ENDBRANCH  22  24
BRANCH  21  45
HETATM   45  O   UNK N   1      24.728  18.819   5.308  0.00  0.00    -0.348 OA
HETATM   46  H   UNK N   1      25.301  19.489   5.624  0.00  0.00     0.219 HD
ENDBRANCH  21  45
ENDBRANCH   1  21
BRANCH   1  47
HETATM   47  N   UNK N   1      24.162  15.657   3.593  0.00  0.00    -0.362 N 
HETATM   48  C   UNK N   1      24.443  15.008   2.514  0.00  0.00     0.107 C 
HETATM   49  C   UNK N   1      25.692  15.280   1.733  0.00  0.00     0.097 C 
ATOM     50  HN  UNK N   1      23.299  15.416   4.082  1.00  0.00     0.162 HD
BRANCH  48  51
HETATM   51  O   UNK N   1      23.604  14.047   2.088  0.00  0.00    -0.350 OA
HETATM   52  H   UNK N   1      23.284  13.231   2.418  0.00  0.00     0.219 HD
ENDBRANCH  48  51
ENDBRANCH   1  47
TORSDOF 17
ENDMDL
MODEL 8
REMARK VINA RESULT:      -7.3      6.543      9.281
REMARK  17 active torsions:
REMARK  status: ('A' for Active; 'I' for Inactive)
REMARK    1  A    between atoms: C_23  and  C_17 
REMARK    2  A    between atoms: C_27  and  C_17 
REMARK    3  A    between atoms: C_22  and  C_19 
REMARK    4  A    between atoms: N_37  and  C_19 
REMARK    5  A    between atoms: C_30  and  C_20 
REMARK    6  A    between atoms: O_46  and  C_20 
REMARK    7  A    between atoms: O_38  and  C_21 
REMARK    8  A    between atoms: C_25  and  C_24 
REMARK    9  A    between atoms: C_26  and  N_35 
REMARK   10  A    between atoms: C_31  and  C_27 
REMARK   11  A    between atoms: C_27  and  N_33 
REMARK   12  A    between atoms: O_46  and  C_28 
REMARK   13  A    between atoms: P_47  and  C_29 
REMARK   14  A    between atoms: O_40  and  C_30 
REMARK   15  A    between atoms: C_31  and  O_41 
REMARK   16  A    between atoms: P_47  and  O_43 
REMARK   17  A    between atoms: P_47  and  O_44 
ROOT
HETATM    1  C   UNK N   1      31.076  17.253   8.129  0.00  0.00     0.162 C 
ENDROOT
BRANCH   1   2
HETATM    2  C   UNK N   1      31.113  16.120   7.063  0.00  0.00     0.072 C 
BRANCH   2   3
HETATM    3  C   UNK N   1      30.089  16.432   6.047  0.00  0.00    -0.054 A 
HETATM    4  C   UNK N   1      30.233  17.469   5.126  0.00  0.00     0.010 A 
HETATM    5  C   UNK N   1      29.111  17.885   4.397  0.00  0.00     0.038 A 
HETATM    6  C   UNK N   1      27.841  17.317   4.639  0.00  0.00     0.087 A 
HETATM    7  C   UNK N   1      27.734  16.278   5.615  0.00  0.00     0.083 A 
HETATM    8  C   UNK N   1      28.863  15.859   6.252  0.00  0.00     0.029 A 
BRANCH   6   9
HETATM    9  O   UNK N   1      26.795  17.819   3.941  0.00  0.00    -0.340 OA
BRANCH   9  10
HETATM   10  C   UNK N   1      26.520  19.156   3.787  0.00  0.00     0.285 C 
BRANCH  10  11
HETATM   11  C   UNK N   1      25.904  19.710   5.025  0.00  0.00     0.164 C 
HETATM   12  O   UNK N   1      26.314  20.753   5.506  0.00  0.00    -0.648 OA
BRANCH  11  13
HETATM   13  O   UNK N   1      24.901  19.046   5.625  0.00  0.00    -0.775 OA
HETATM   14  H   UNK N   1      24.112  18.864   5.153  0.00  0.00     0.167 HD
ENDBRANCH  11  13
ENDBRANCH  10  11
ENDBRANCH   9  10
ENDBRANCH   6   9
BRANCH   7  15
HETATM   15  P   UNK N   1      26.218  15.497   6.313  0.00  0.00     0.273 P 
HETATM   16  O   UNK N   1      26.403  15.675   7.847  0.00  0.00    -0.650 OA
BRANCH  15  17
HETATM   17  O   UNK N   1      24.687  16.286   6.125  0.00  0.00    -0.326 OA
HETATM   18  H   UNK N   1      24.218  16.901   5.541  0.00  0.00     0.220 HD
ENDBRANCH  15  17
BRANCH  15  19
HETATM   19  O   UNK N   1      26.050  13.776   6.228  0.00  0.00    -0.326 OA
HETATM   20  H   UNK N   1      26.398  12.872   6.267  0.00  0.00     0.220 HD
ENDBRANCH  15  19
ENDBRANCH   7  15
ENDBRANCH   2   3
ENDBRANCH   1   2
BRANCH   1  21
HETATM   21  C   UNK N   1      32.473  17.486   8.482  0.00  0.00     0.135 C 
HETATM   22  N   UNK N   1      33.113  16.548   9.072  0.00  0.00    -0.359 N 
ATOM     23  HN  UNK N   1      32.608  15.876   9.651  1.00  0.00     0.162 HD
BRANCH  22  24
HETATM   24  C   UNK N   1      34.526  16.432   8.926  0.00  0.00     0.175 C 
HETATM   25  C   UNK N   1      35.172  15.806  10.164  0.00  0.00     0.035 C 
HETATM   26  C   UNK N   1      34.398  14.636  10.766  0.00  0.00     0.004 C 
HETATM   27  C   UNK N   1      34.372  13.425   9.853  0.00  0.00     0.020 C 
HETATM   28  C   UNK N   1      33.486  13.678   8.638  0.00  0.00     0.126 C 
HETATM   29  N   UNK N   1      34.233  14.315   7.576  0.00  0.00    -0.346 N 
HETATM   30  C   UNK N   1      34.728  15.598   7.675  0.00  0.00     0.242 C 
HETATM   31  O   UNK N   1      35.338  16.090   6.743  0.00  0.00    -0.271 OA
BRANCH  29  32
HETATM   32  C   UNK N   1      34.632  13.490   6.443  0.00  0.00     0.164 C 
BRANCH  32  33
HETATM   33  C   UNK N   1      33.512  13.512   5.434  0.00  0.00    -0.040 A 
HETATM   34  C   UNK N   1      32.518  12.532   5.520  0.00  0.00     0.009 A 
HETATM   35  C   UNK N   1      31.400  12.569   4.746  0.00  0.00     0.013 A 
HETATM   36  C   UNK N   1      31.216  13.603   3.846  0.00  0.00    -0.026 A 
HETATM   37  C   UNK N   1      32.227  14.576   3.683  0.00  0.00     0.013 A 
HETATM   38  C   UNK N   1      33.387  14.526   4.480  0.00  0.00     0.009 A 
BRANCH  36  39
HETATM   39  C   UNK N   1      29.874  13.753   3.275  0.00  0.00    -0.026 A 
HETATM   40  C   UNK N   1      29.570  14.814   2.417  0.00  0.00     0.012 A 
HETATM   41  C   UNK N   1      28.246  15.044   2.038  0.00  0.00     0.001 A 
HETATM   42  C   UNK N   1      27.220  14.228   2.528  0.00  0.00     0.000 A 
HETATM   43  C   UNK N   1      27.517  13.163   3.377  0.00  0.00     0.001 A 
HETATM   44  C   UNK N   1      28.835  12.928   3.749  0.00  0.00     0.012 A 
ENDBRANCH  36  39
ENDBRANCH  32  33
ENDBRANCH  29  32
ENDBRANCH  22  24
BRANCH  21  45
HETATM   45  O   UNK N   1      33.129  18.509   7.885  0.00  0.00    -0.348 OA
HETATM   46  H   UNK N   1      33.247  19.126   7.190  0.00  0.00     0.219 HD
ENDBRANCH  21  45
ENDBRANCH   1  21
BRANCH   1  47
HETATM   47  N   UNK N   1      30.250  16.836   9.247  0.00  0.00    -0.362 N 
HETATM   48  C   UNK N   1      29.120  17.376   9.558  0.00  0.00     0.107 C 
HETATM   49  C   UNK N   1      28.537  18.502   8.761  0.00  0.00     0.097 C 
ATOM     50  HN  UNK N   1      30.585  16.066   9.826  1.00  0.00     0.162 HD
BRANCH  48  51
HETATM   51  O   UNK N   1      28.435  16.902  10.615  0.00  0.00    -0.350 OA
HETATM   52  H   UNK N   1      28.066  16.079  10.870  0.00  0.00     0.219 HD
ENDBRANCH  48  51
ENDBRANCH   1  47
TORSDOF 17
ENDMDL
MODEL 9
REMARK VINA RESULT:      -7.3      3.372      7.520
REMARK  17 active torsions:
REMARK  status: ('A' for Active; 'I' for Inactive)
REMARK    1  A    between atoms: C_23  and  C_17 
REMARK    2  A    between atoms: C_27  and  C_17 
REMARK    3  A    between atoms: C_22  and  C_19 
REMARK    4  A    between atoms: N_37  and  C_19 
REMARK    5  A    between atoms: C_30  and  C_20 
REMARK    6  A    between atoms: O_46  and  C_20 
REMARK    7  A    between atoms: O_38  and  C_21 
REMARK    8  A    between atoms: C_25  and  C_24 
REMARK    9  A    between atoms: C_26  and  N_35 
REMARK   10  A    between atoms: C_31  and  C_27 
REMARK   11  A    between atoms: C_27  and  N_33 
REMARK   12  A    between atoms: O_46  and  C_28 
REMARK   13  A    between atoms: P_47  and  C_29 
REMARK   14  A    between atoms: O_40  and  C_30 
REMARK   15  A    between atoms: C_31  and  O_41 
REMARK   16  A    between atoms: P_47  and  O_43 
REMARK   17  A    between atoms: P_47  and  O_44 
ROOT
HETATM    1  C   UNK N   1      19.966  16.480   7.311  0.00  0.00     0.162 C 
ENDROOT
BRANCH   1   2
HETATM    2  C   UNK N   1      21.407  15.900   7.390  0.00  0.00     0.072 C 
BRANCH   2   3
HETATM    3  C   UNK N   1      21.350  14.679   8.218  0.00  0.00    -0.054 A 
HETATM    4  C   UNK N   1      20.673  14.625   9.435  0.00  0.00     0.010 A 
HETATM    5  C   UNK N   1      20.906  13.539  10.289  0.00  0.00     0.038 A 
HETATM    6  C   UNK N   1      21.861  12.553   9.960  0.00  0.00     0.087 A 
HETATM    7  C   UNK N   1      22.555  12.665   8.715  0.00  0.00     0.083 A 
HETATM    8  C   UNK N   1      22.248  13.702   7.886  0.00  0.00     0.029 A 
BRANCH   6   9
HETATM    9  O   UNK N   1      22.076  11.571  10.868  0.00  0.00    -0.340 OA
BRANCH   9  10
HETATM   10  C   UNK N   1      22.029  11.736  12.230  0.00  0.00     0.285 C 
BRANCH  10  11
HETATM   11  C   UNK N   1      23.393  11.982  12.775  0.00  0.00     0.164 C 
HETATM   12  O   UNK N   1      23.577  12.033  13.980  0.00  0.00    -0.648 OA
BRANCH  11  13
HETATM   13  O   UNK N   1      24.424  12.166  11.933  0.00  0.00    -0.775 OA
HETATM   14  H   UNK N   1      25.193  11.636  12.011  0.00  0.00     0.167 HD
ENDBRANCH  11  13
ENDBRANCH  10  11
ENDBRANCH   9  10
ENDBRANCH   6   9
BRANCH   7  15
HETATM   15  P   UNK N   1      23.990  11.688   8.097  0.00  0.00     0.273 P 
HETATM   16  O   UNK N   1      24.967  11.692   9.308  0.00  0.00    -0.650 OA
BRANCH  15  17
HETATM   17  O   UNK N   1      23.827   9.977   7.879  0.00  0.00    -0.326 OA
HETATM   18  H   UNK N   1      23.307   9.219   8.188  0.00  0.00     0.220 HD
ENDBRANCH  15  17
BRANCH  15  19
HETATM   19  O   UNK N   1      25.012  12.380   6.884  0.00  0.00    -0.326 OA
HETATM   20  H   UNK N   1      25.839  12.436   6.381  0.00  0.00     0.220 HD
ENDBRANCH  15  19
ENDBRANCH   7  15
ENDBRANCH   2   3
ENDBRANCH   1   2
BRANCH   1  21
HETATM   21  C   UNK N   1      19.744  16.753   5.895  0.00  0.00     0.135 C 
HETATM   22  N   UNK N   1      20.714  17.233   5.212  0.00  0.00    -0.359 N 
ATOM     23  HN  UNK N   1      21.427  17.799   5.673  1.00  0.00     0.162 HD
BRANCH  22  24
HETATM   24  C   UNK N   1      20.806  16.984   3.812  0.00  0.00     0.175 C 
HETATM   25  C   UNK N   1      20.539  18.250   2.995  0.00  0.00     0.035 C 
HETATM   26  C   UNK N   1      21.173  19.519   3.557  0.00  0.00     0.004 C 
HETATM   27  C   UNK N   1      22.688  19.490   3.494  0.00  0.00     0.020 C 
HETATM   28  C   UNK N   1      23.257  18.493   4.498  0.00  0.00     0.126 C 
HETATM   29  N   UNK N   1      23.325  17.166   3.927  0.00  0.00    -0.346 N 
HETATM   30  C   UNK N   1      22.204  16.433   3.599  0.00  0.00     0.242 C 
HETATM   31  O   UNK N   1      22.321  15.314   3.134  0.00  0.00    -0.271 OA
BRANCH  29  32
HETATM   32  C   UNK N   1      24.634  16.678   3.511  0.00  0.00     0.164 C 
BRANCH  32  33
HETATM   33  C   UNK N   1      25.638  17.091   4.556  0.00  0.00    -0.040 A 
HETATM   34  C   UNK N   1      25.847  16.247   5.651  0.00  0.00     0.009 A 
HETATM   35  C   UNK N   1      26.836  16.472   6.557  0.00  0.00     0.013 A 
HETATM   36  C   UNK N   1      27.679  17.558   6.404  0.00  0.00    -0.026 A 
HETATM   37  C   UNK N   1      27.461  18.471   5.348  0.00  0.00     0.013 A 
HETATM   38  C   UNK N   1      26.427  18.238   4.421  0.00  0.00     0.009 A 
BRANCH  36  39
HETATM   39  C   UNK N   1      28.896  17.572   7.222  0.00  0.00    -0.026 A 
HETATM   40  C   UNK N   1      28.972  18.337   8.390  0.00  0.00     0.012 A 
HETATM   41  C   UNK N   1      30.196  18.484   9.046  0.00  0.00     0.001 A 
HETATM   42  C   UNK N   1      31.350  17.884   8.529  0.00  0.00     0.000 A 
HETATM   43  C   UNK N   1      31.281  17.113   7.370  0.00  0.00     0.001 A 
HETATM   44  C   UNK N   1      30.062  16.960   6.720  0.00  0.00     0.012 A 
ENDBRANCH  36  39
ENDBRANCH  32  33
ENDBRANCH  29  32
ENDBRANCH  22  24
BRANCH  21  45
HETATM   45  O   UNK N   1      18.677  16.182   5.286  0.00  0.00    -0.348 OA
HETATM   46  H   UNK N   1      18.245  15.462   4.872  0.00  0.00     0.219 HD
ENDBRANCH  21  45
ENDBRANCH   1  21
BRANCH   1  47
HETATM   47  N   UNK N   1      19.872  17.656   8.157  0.00  0.00    -0.362 N 
HETATM   48  C   UNK N   1      18.949  17.849   9.037  0.00  0.00     0.107 C 
HETATM   49  C   UNK N   1      17.870  16.840   9.282  0.00  0.00     0.097 C 
ATOM     50  HN  UNK N   1      20.583  18.380   8.047  1.00  0.00     0.162 HD
BRANCH  48  51
HETATM   51  O   UNK N   1      18.966  18.977   9.770  0.00  0.00    -0.350 OA
HETATM   52  H   UNK N   1      18.530  19.805   9.751  0.00  0.00     0.219 HD
ENDBRANCH  48  51
ENDBRANCH   1  47
TORSDOF 17
ENDMDL
