MODEL 1
REMARK VINA RESULT:      -5.5      0.000      0.000
REMARK  8 active torsions:
REMARK  status: ('A' for Active; 'I' for Inactive)
REMARK    1  A    between atoms: C_2  and  N_1 
REMARK    2  A    between atoms: C_2  and  C_3 
REMARK    3  A    between atoms: C_2  and  C_13 
REMARK    4  A    between atoms: C_3  and  C_4 
REMARK    5  A    between atoms: N_8  and  P_9 
REMARK    6  A    between atoms: P_9  and  O_10 
REMARK    7  A    between atoms: P_9  and  O_11 
REMARK    8  A    between atoms: C_13  and  O_14 
ROOT
HETATM    1  C   UNK N   1      34.616  14.392   9.022  0.00  0.00     0.041 A 
HETATM    2  C   UNK N   1      33.458  13.647   8.992  0.00  0.00     0.114 A 
HETATM    3  N   UNK N   1      33.610  12.597   9.822  0.00  0.00    -0.360 N 
HETATM    4  C   UNK N   1      34.847  12.710  10.348  0.00  0.00     0.193 A 
HETATM    5  N   UNK N   1      35.480  13.799   9.876  0.00  0.00    -0.253 N 
HETATM    6  H   UNK N   1      32.951  11.890  10.008  0.00  0.00     0.166 HD
ENDROOT
BRANCH   1   7
HETATM    7  C   UNK N   1      34.765  15.654   8.213  0.00  0.00     0.094 C 
BRANCH   7   8
HETATM    8  C   UNK N   1      34.168  16.940   8.763  0.00  0.00     0.178 C 
BRANCH   8   9
HETATM    9  N   UNK N   1      34.625  17.132  10.129  0.00  0.00    -0.417 N 
HETATM   10  H   UNK N   1      35.097  16.872  10.996  0.00  0.00     0.150 HD
HETATM   11  H   UNK N   1      34.269  18.063  10.348  0.00  0.00     0.150 HD
ENDBRANCH   8   9
BRANCH   8  12
HETATM   12  C   UNK N   1      34.570  18.131   7.938  0.00  0.00     0.163 C 
HETATM   13  O   UNK N   1      34.320  18.182   6.743  0.00  0.00    -0.648 OA
BRANCH  12  14
HETATM   14  O   UNK N   1      35.205  19.162   8.525  0.00  0.00    -0.775 OA
HETATM   15  H   UNK N   1      35.380  19.956   8.059  0.00  0.00     0.167 HD
ENDBRANCH  12  14
ENDBRANCH   8  12
ENDBRANCH   7   8
ENDBRANCH   1   7
BRANCH   5  16
HETATM   16  P   UNK N   1      37.145  14.257  10.405  0.00  0.00     0.354 P 
HETATM   17  O   UNK N   1      38.106  14.019   9.210  0.00  0.00    -0.637 OA
BRANCH  16  18
HETATM   18  O   UNK N   1      37.691  13.316  11.755  0.00  0.00    -0.312 OA
HETATM   19  H   UNK N   1      38.507  13.123  12.243  0.00  0.00     0.222 HD
ENDBRANCH  16  18
BRANCH  16  20
HETATM   20  O   UNK N   1      37.199  15.950  10.785  0.00  0.00    -0.312 OA
HETATM   21  H   UNK N   1      36.988  16.270  11.676  0.00  0.00     0.222 HD
ENDBRANCH  16  20
ENDBRANCH   5  16
TORSDOF 8
ENDMDL
MODEL 2
REMARK VINA RESULT:      -5.5      4.712      6.254
REMARK  8 active torsions:
REMARK  status: ('A' for Active; 'I' for Inactive)
REMARK    1  A    between atoms: C_2  and  N_1 
REMARK    2  A    between atoms: C_2  and  C_3 
REMARK    3  A    between atoms: C_2  and  C_13 
REMARK    4  A    between atoms: C_3  and  C_4 
REMARK    5  A    between atoms: N_8  and  P_9 
REMARK    6  A    between atoms: P_9  and  O_10 
REMARK    7  A    between atoms: P_9  and  O_11 
REMARK    8  A    between atoms: C_13  and  O_14 
ROOT
HETATM    1  C   UNK N   1      31.076  17.057   7.145  0.00  0.00     0.041 A 
HETATM    2  C   UNK N   1      30.976  17.088   5.772  0.00  0.00     0.114 A 
HETATM    3  N   UNK N   1      29.756  17.559   5.448  0.00  0.00    -0.360 N 
HETATM    4  C   UNK N   1      29.129  17.813   6.616  0.00  0.00     0.193 A 
HETATM    5  N   UNK N   1      29.916  17.516   7.666  0.00  0.00    -0.253 N 
HETATM    6  H   UNK N   1      29.394  17.693   4.542  0.00  0.00     0.166 HD
ENDROOT
BRANCH   1   7
HETATM    7  C   UNK N   1      32.333  16.595   7.836  0.00  0.00     0.094 C 
BRANCH   7   8
HETATM    8  C   UNK N   1      33.138  17.613   8.629  0.00  0.00     0.178 C 
BRANCH   8   9
HETATM    9  N   UNK N   1      33.761  16.950   9.762  0.00  0.00    -0.417 N 
HETATM   10  H   UNK N   1      33.877  16.704  10.745  0.00  0.00     0.150 HD
HETATM   11  H   UNK N   1      34.522  16.433   9.319  0.00  0.00     0.150 HD
ENDBRANCH   8   9
BRANCH   8  12
HETATM   12  C   UNK N   1      34.206  18.250   7.783  0.00  0.00     0.163 C 
HETATM   13  O   UNK N   1      34.963  19.086   8.251  0.00  0.00    -0.648 OA
BRANCH  12  14
HETATM   14  O   UNK N   1      34.337  17.884   6.494  0.00  0.00    -0.775 OA
HETATM   15  H   UNK N   1      35.176  17.862   6.077  0.00  0.00     0.167 HD
ENDBRANCH  12  14
ENDBRANCH   8  12
ENDBRANCH   7   8
ENDBRANCH   1   7
BRANCH   5  16
HETATM   16  P   UNK N   1      29.387  17.769   9.374  0.00  0.00     0.354 P 
HETATM   17  O   UNK N   1      29.999  19.108   9.867  0.00  0.00    -0.637 OA
BRANCH  16  18
HETATM   18  O   UNK N   1      29.916  16.495  10.425  0.00  0.00    -0.312 OA
HETATM   19  H   UNK N   1      29.641  15.611  10.713  0.00  0.00     0.222 HD
ENDBRANCH  16  18
BRANCH  16  20
HETATM   20  O   UNK N   1      27.660  17.932   9.440  0.00  0.00    -0.312 OA
HETATM   21  H   UNK N   1      27.150  18.179   8.653  0.00  0.00     0.222 HD
ENDBRANCH  16  20
ENDBRANCH   5  16
TORSDOF 8
ENDMDL
MODEL 3
REMARK VINA RESULT:      -5.5     14.966     16.698
REMARK  8 active torsions:
REMARK  status: ('A' for Active; 'I' for Inactive)
REMARK    1  A    between atoms: C_2  and  N_1 
REMARK    2  A    between atoms: C_2  and  C_3 
REMARK    3  A    between atoms: C_2  and  C_13 
REMARK    4  A    between atoms: C_3  and  C_4 
REMARK    5  A    between atoms: N_8  and  P_9 
REMARK    6  A    between atoms: P_9  and  O_10 
REMARK    7  A    between atoms: P_9  and  O_11 
REMARK    8  A    between atoms: C_13  and  O_14 
ROOT
HETATM    1  C   UNK N   1      21.570  17.610   3.358  0.00  0.00     0.041 A 
HETATM    2  C   UNK N   1      22.572  16.840   3.905  0.00  0.00     0.114 A 
HETATM    3  N   UNK N   1      23.614  17.645   4.193  0.00  0.00    -0.360 N 
HETATM    4  C   UNK N   1      23.241  18.888   3.824  0.00  0.00     0.193 A 
HETATM    5  N   UNK N   1      21.997  18.892   3.314  0.00  0.00    -0.253 N 
HETATM    6  H   UNK N   1      24.474  17.380   4.592  0.00  0.00     0.166 HD
ENDROOT
BRANCH   1   7
HETATM    7  C   UNK N   1      20.252  17.012   2.942  0.00  0.00     0.094 C 
BRANCH   7   8
HETATM    8  C   UNK N   1      20.225  16.098   1.727  0.00  0.00     0.178 C 
BRANCH   8   9
HETATM    9  N   UNK N   1      19.371  14.955   2.008  0.00  0.00    -0.417 N 
HETATM   10  H   UNK N   1      18.599  14.461   2.456  0.00  0.00     0.150 HD
HETATM   11  H   UNK N   1      19.780  14.229   1.420  0.00  0.00     0.150 HD
ENDBRANCH   8   9
BRANCH   8  12
HETATM   12  C   UNK N   1      19.704  16.813   0.511  0.00  0.00     0.163 C 
HETATM   13  O   UNK N   1      20.445  17.487  -0.188  0.00  0.00    -0.648 OA
BRANCH  12  14
HETATM   14  O   UNK N   1      18.404  16.700   0.181  0.00  0.00    -0.775 OA
HETATM   15  H   UNK N   1      17.927  17.424  -0.176  0.00  0.00     0.167 HD
ENDBRANCH  12  14
ENDBRANCH   8  12
ENDBRANCH   7   8
ENDBRANCH   1   7
BRANCH   5  16
HETATM   16  P   UNK N   1      21.185  20.405   2.753  0.00  0.00     0.354 P 
HETATM   17  O   UNK N   1      20.078  20.760   3.781  0.00  0.00    -0.637 OA
BRANCH  16  18
HETATM   18  O   UNK N   1      20.456  20.224   1.190  0.00  0.00    -0.312 OA
HETATM   19  H   UNK N   1      19.604  19.987   0.793  0.00  0.00     0.222 HD
ENDBRANCH  16  18
BRANCH  16  20
HETATM   20  O   UNK N   1      22.323  21.716   2.742  0.00  0.00    -0.312 OA
HETATM   21  H   UNK N   1      22.317  22.379   2.034  0.00  0.00     0.222 HD
ENDBRANCH  16  20
ENDBRANCH   5  16
TORSDOF 8
ENDMDL
MODEL 4
REMARK VINA RESULT:      -5.2      5.146      6.598
REMARK  8 active torsions:
REMARK  status: ('A' for Active; 'I' for Inactive)
REMARK    1  A    between atoms: C_2  and  N_1 
REMARK    2  A    between atoms: C_2  and  C_3 
REMARK    3  A    between atoms: C_2  and  C_13 
REMARK    4  A    between atoms: C_3  and  C_4 
REMARK    5  A    between atoms: N_8  and  P_9 
REMARK    6  A    between atoms: P_9  and  O_10 
REMARK    7  A    between atoms: P_9  and  O_11 
REMARK    8  A    between atoms: C_13  and  O_14 
ROOT
HETATM    1  C   UNK N   1      31.104  17.186   7.637  0.00  0.00     0.041 A 
HETATM    2  C   UNK N   1      31.162  16.850   6.303  0.00  0.00     0.114 A 
HETATM    3  N   UNK N   1      29.902  16.734   5.841  0.00  0.00    -0.360 N 
HETATM    4  C   UNK N   1      29.093  17.000   6.888  0.00  0.00     0.193 A 
HETATM    5  N   UNK N   1      29.804  17.281   7.994  0.00  0.00    -0.253 N 
HETATM    6  H   UNK N   1      29.626  16.502   4.925  0.00  0.00     0.166 HD
ENDROOT
BRANCH   1   7
HETATM    7  C   UNK N   1      32.352  17.412   8.450  0.00  0.00     0.094 C 
BRANCH   7   8
HETATM    8  C   UNK N   1      33.203  16.206   8.816  0.00  0.00     0.178 C 
BRANCH   8   9
HETATM    9  N   UNK N   1      34.128  16.578   9.874  0.00  0.00    -0.417 N 
HETATM   10  H   UNK N   1      34.451  16.661  10.839  0.00  0.00     0.150 HD
HETATM   11  H   UNK N   1      34.897  16.997   9.352  0.00  0.00     0.150 HD
ENDBRANCH   8   9
BRANCH   8  12
HETATM   12  C   UNK N   1      32.356  15.056   9.286  0.00  0.00     0.163 C 
HETATM   13  O   UNK N   1      32.243  14.042   8.614  0.00  0.00    -0.648 OA
BRANCH  12  14
HETATM   14  O   UNK N   1      31.721  15.140  10.470  0.00  0.00    -0.775 OA
HETATM   15  H   UNK N   1      31.660  15.952  10.934  0.00  0.00     0.167 HD
ENDBRANCH  12  14
ENDBRANCH   8  12
ENDBRANCH   7   8
ENDBRANCH   1   7
BRANCH   5  16
HETATM   16  P   UNK N   1      29.022  17.712   9.564  0.00  0.00     0.354 P 
HETATM   17  O   UNK N   1      29.133  16.482  10.504  0.00  0.00    -0.637 OA
BRANCH  16  18
HETATM   18  O   UNK N   1      27.347  18.121   9.377  0.00  0.00    -0.312 OA
HETATM   19  H   UNK N   1      26.759  18.574   8.752  0.00  0.00     0.222 HD
ENDBRANCH  16  18
BRANCH  16  20
HETATM   20  O   UNK N   1      29.883  19.019  10.313  0.00  0.00    -0.312 OA
HETATM   21  H   UNK N   1      29.994  19.059  11.276  0.00  0.00     0.222 HD
ENDBRANCH  16  20
ENDBRANCH   5  16
TORSDOF 8
ENDMDL
MODEL 5
REMARK VINA RESULT:      -5.2      2.139      2.595
REMARK  8 active torsions:
REMARK  status: ('A' for Active; 'I' for Inactive)
REMARK    1  A    between atoms: C_2  and  N_1 
REMARK    2  A    between atoms: C_2  and  C_3 
REMARK    3  A    between atoms: C_2  and  C_13 
REMARK    4  A    between atoms: C_3  and  C_4 
REMARK    5  A    between atoms: N_8  and  P_9 
REMARK    6  A    between atoms: P_9  and  O_10 
REMARK    7  A    between atoms: P_9  and  O_11 
REMARK    8  A    between atoms: C_13  and  O_14 
ROOT
HETATM    1  C   UNK N   1      34.340  14.969   7.759  0.00  0.00     0.041 A 
HETATM    2  C   UNK N   1      35.045  14.389   6.728  0.00  0.00     0.114 A 
HETATM    3  N   UNK N   1      36.243  13.997   7.204  0.00  0.00    -0.360 N 
HETATM    4  C   UNK N   1      36.258  14.337   8.510  0.00  0.00     0.193 A 
HETATM    5  N   UNK N   1      35.107  14.930   8.872  0.00  0.00    -0.253 N 
HETATM    6  H   UNK N   1      36.963  13.552   6.701  0.00  0.00     0.166 HD
ENDROOT
BRANCH   1   7
HETATM    7  C   UNK N   1      32.944  15.499   7.562  0.00  0.00     0.094 C 
BRANCH   7   8
HETATM    8  C   UNK N   1      32.732  17.005   7.589  0.00  0.00     0.178 C 
BRANCH   8   9
HETATM    9  N   UNK N   1      32.522  17.433   8.962  0.00  0.00    -0.417 N 
HETATM   10  H   UNK N   1      32.716  17.972   9.806  0.00  0.00     0.150 HD
HETATM   11  H   UNK N   1      31.719  16.870   9.244  0.00  0.00     0.150 HD
ENDBRANCH   8   9
BRANCH   8  12
HETATM   12  C   UNK N   1      33.916  17.738   7.021  0.00  0.00     0.163 C 
HETATM   13  O   UNK N   1      34.115  17.772   5.816  0.00  0.00    -0.648 OA
BRANCH  12  14
HETATM   14  O   UNK N   1      34.762  18.375   7.850  0.00  0.00    -0.775 OA
HETATM   15  H   UNK N   1      34.841  19.309   7.842  0.00  0.00     0.167 HD
ENDBRANCH  12  14
ENDBRANCH   8  12
ENDBRANCH   7   8
ENDBRANCH   1   7
BRANCH   5  16
HETATM   16  P   UNK N   1      34.791  15.480  10.563  0.00  0.00     0.354 P 
HETATM   17  O   UNK N   1      35.848  14.815  11.484  0.00  0.00    -0.637 OA
BRANCH  16  18
HETATM   18  O   UNK N   1      33.210  15.034  11.118  0.00  0.00    -0.312 OA
HETATM   19  H   UNK N   1      32.280  15.130  10.861  0.00  0.00     0.222 HD
ENDBRANCH  16  18
BRANCH  16  20
HETATM   20  O   UNK N   1      35.011  17.198  10.676  0.00  0.00    -0.312 OA
HETATM   21  H   UNK N   1      35.294  17.718   9.908  0.00  0.00     0.222 HD
ENDBRANCH  16  20
ENDBRANCH   5  16
TORSDOF 8
ENDMDL
MODEL 6
REMARK VINA RESULT:      -5.0      4.180      6.165
REMARK  8 active torsions:
REMARK  status: ('A' for Active; 'I' for Inactive)
REMARK    1  A    between atoms: C_2  and  N_1 
REMARK    2  A    between atoms: C_2  and  C_3 
REMARK    3  A    between atoms: C_2  and  C_13 
REMARK    4  A    between atoms: C_3  and  C_4 
REMARK    5  A    between atoms: N_8  and  P_9 
REMARK    6  A    between atoms: P_9  and  O_10 
REMARK    7  A    between atoms: P_9  and  O_11 
REMARK    8  A    between atoms: C_13  and  O_14 
ROOT
HETATM    1  C   UNK N   1      31.234  17.047   7.514  0.00  0.00     0.041 A 
HETATM    2  C   UNK N   1      30.240  17.373   8.409  0.00  0.00     0.114 A 
HETATM    3  N   UNK N   1      29.127  17.675   7.713  0.00  0.00    -0.360 N 
HETATM    4  C   UNK N   1      29.448  17.530   6.411  0.00  0.00     0.193 A 
HETATM    5  N   UNK N   1      30.728  17.146   6.264  0.00  0.00    -0.253 N 
HETATM    6  H   UNK N   1      28.254  17.946   8.080  0.00  0.00     0.166 HD
ENDROOT
BRANCH   1   7
HETATM    7  C   UNK N   1      32.609  16.638   7.973  0.00  0.00     0.094 C 
BRANCH   7   8
HETATM    8  C   UNK N   1      33.421  17.629   8.793  0.00  0.00     0.178 C 
BRANCH   8   9
HETATM    9  N   UNK N   1      34.089  16.921   9.873  0.00  0.00    -0.417 N 
HETATM   10  H   UNK N   1      34.856  16.416  10.317  0.00  0.00     0.150 HD
HETATM   11  H   UNK N   1      33.386  16.940  10.611  0.00  0.00     0.150 HD
ENDBRANCH   8   9
BRANCH   8  12
HETATM   12  C   UNK N   1      34.453  18.326   7.950  0.00  0.00     0.163 C 
HETATM   13  O   UNK N   1      35.231  19.128   8.443  0.00  0.00    -0.648 OA
BRANCH  12  14
HETATM   14  O   UNK N   1      34.529  18.053   6.634  0.00  0.00    -0.775 OA
HETATM   15  H   UNK N   1      35.269  17.607   6.271  0.00  0.00     0.167 HD
ENDBRANCH  12  14
ENDBRANCH   8  12
ENDBRANCH   7   8
ENDBRANCH   1   7
BRANCH   5  16
HETATM   16  P   UNK N   1      31.465  16.833   4.645  0.00  0.00     0.354 P 
HETATM   17  O   UNK N   1      32.699  17.763   4.497  0.00  0.00    -0.637 OA
BRANCH  16  18
HETATM   18  O   UNK N   1      30.365  17.156   3.345  0.00  0.00    -0.312 OA
HETATM   19  H   UNK N   1      29.541  16.810   2.967  0.00  0.00     0.222 HD
ENDBRANCH  16  18
BRANCH  16  20
HETATM   20  O   UNK N   1      32.037  15.196   4.563  0.00  0.00    -0.312 OA
HETATM   21  H   UNK N   1      32.093  14.727   3.716  0.00  0.00     0.222 HD
ENDBRANCH  16  20
ENDBRANCH   5  16
TORSDOF 8
ENDMDL
MODEL 7
REMARK VINA RESULT:      -5.0      5.280      6.452
REMARK  8 active torsions:
REMARK  status: ('A' for Active; 'I' for Inactive)
REMARK    1  A    between atoms: C_2  and  N_1 
REMARK    2  A    between atoms: C_2  and  C_3 
REMARK    3  A    between atoms: C_2  and  C_13 
REMARK    4  A    between atoms: C_3  and  C_4 
REMARK    5  A    between atoms: N_8  and  P_9 
REMARK    6  A    between atoms: P_9  and  O_10 
REMARK    7  A    between atoms: P_9  and  O_11 
REMARK    8  A    between atoms: C_13  and  O_14 
ROOT
HETATM    1  C   UNK N   1      30.754  17.200   5.959  0.00  0.00     0.041 A 
HETATM    2  C   UNK N   1      30.386  17.338   4.639  0.00  0.00     0.114 A 
HETATM    3  N   UNK N   1      31.498  17.558   3.911  0.00  0.00    -0.360 N 
HETATM    4  C   UNK N   1      32.526  17.550   4.785  0.00  0.00     0.193 A 
HETATM    5  N   UNK N   1      32.097  17.331   6.040  0.00  0.00    -0.253 N 
HETATM    6  H   UNK N   1      31.551  17.696   2.938  0.00  0.00     0.166 HD
ENDROOT
BRANCH   1   7
HETATM    7  C   UNK N   1      29.740  16.923   7.038  0.00  0.00     0.094 C 
BRANCH   7   8
HETATM    8  C   UNK N   1      28.700  17.990   7.342  0.00  0.00     0.178 C 
BRANCH   8   9
HETATM    9  N   UNK N   1      27.397  17.531   6.889  0.00  0.00    -0.417 N 
HETATM   10  H   UNK N   1      26.456  17.152   6.999  0.00  0.00     0.150 HD
HETATM   11  H   UNK N   1      27.461  17.662   5.879  0.00  0.00     0.150 HD
ENDBRANCH   8   9
BRANCH   8  12
HETATM   12  C   UNK N   1      28.631  18.287   8.815  0.00  0.00     0.163 C 
HETATM   13  O   UNK N   1      29.641  18.541   9.453  0.00  0.00    -0.648 OA
BRANCH  12  14
HETATM   14  O   UNK N   1      27.437  18.285   9.437  0.00  0.00    -0.775 OA
HETATM   15  H   UNK N   1      26.859  17.550   9.379  0.00  0.00     0.167 HD
ENDBRANCH  12  14
ENDBRANCH   8  12
ENDBRANCH   7   8
ENDBRANCH   1   7
BRANCH   5  16
HETATM   16  P   UNK N   1      33.227  17.229   7.446  0.00  0.00     0.354 P 
HETATM   17  O   UNK N   1      33.800  15.788   7.492  0.00  0.00    -0.637 OA
BRANCH  16  18
HETATM   18  O   UNK N   1      32.437  17.563   8.953  0.00  0.00    -0.312 OA
HETATM   19  H   UNK N   1      32.068  17.092   9.717  0.00  0.00     0.222 HD
ENDBRANCH  16  18
BRANCH  16  20
HETATM   20  O   UNK N   1      34.562  18.312   7.210  0.00  0.00    -0.312 OA
HETATM   21  H   UNK N   1      35.153  18.221   6.446  0.00  0.00     0.222 HD
ENDBRANCH  16  20
ENDBRANCH   5  16
TORSDOF 8
ENDMDL
MODEL 8
REMARK VINA RESULT:      -4.9      3.330      4.329
REMARK  8 active torsions:
REMARK  status: ('A' for Active; 'I' for Inactive)
REMARK    1  A    between atoms: C_2  and  N_1 
REMARK    2  A    between atoms: C_2  and  C_3 
REMARK    3  A    between atoms: C_2  and  C_13 
REMARK    4  A    between atoms: C_3  and  C_4 
REMARK    5  A    between atoms: N_8  and  P_9 
REMARK    6  A    between atoms: P_9  and  O_10 
REMARK    7  A    between atoms: P_9  and  O_11 
REMARK    8  A    between atoms: C_13  and  O_14 
ROOT
HETATM    1  C   UNK N   1      34.529  15.328   9.355  0.00  0.00     0.041 A 
HETATM    2  C   UNK N   1      35.029  14.748  10.499  0.00  0.00     0.114 A 
HETATM    3  N   UNK N   1      35.613  15.710  11.240  0.00  0.00    -0.360 N 
HETATM    4  C   UNK N   1      35.463  16.859  10.548  0.00  0.00     0.193 A 
HETATM    5  N   UNK N   1      34.803  16.652   9.396  0.00  0.00    -0.253 N 
HETATM    6  H   UNK N   1      36.058  15.598  12.111  0.00  0.00     0.166 HD
ENDROOT
BRANCH   1   7
HETATM    7  C   UNK N   1      33.793  14.522   8.317  0.00  0.00     0.094 C 
BRANCH   7   8
HETATM    8  C   UNK N   1      32.274  14.587   8.294  0.00  0.00     0.178 C 
BRANCH   8   9
HETATM    9  N   UNK N   1      31.824  15.578   9.257  0.00  0.00    -0.417 N 
HETATM   10  H   UNK N   1      31.681  16.520   9.622  0.00  0.00     0.150 HD
HETATM   11  H   UNK N   1      31.419  14.998   9.992  0.00  0.00     0.150 HD
ENDBRANCH   8   9
BRANCH   8  12
HETATM   12  C   UNK N   1      31.759  14.957   6.931  0.00  0.00     0.163 C 
HETATM   13  O   UNK N   1      31.141  14.151   6.252  0.00  0.00    -0.648 OA
BRANCH  12  14
HETATM   14  O   UNK N   1      31.972  16.198   6.455  0.00  0.00    -0.775 OA
HETATM   15  H   UNK N   1      31.468  16.540   5.743  0.00  0.00     0.167 HD
ENDBRANCH  12  14
ENDBRANCH   8  12
ENDBRANCH   7   8
ENDBRANCH   1   7
BRANCH   5  16
HETATM   16  P   UNK N   1      34.411  17.991   8.250  0.00  0.00     0.354 P 
HETATM   17  O   UNK N   1      34.703  17.488   6.811  0.00  0.00    -0.637 OA
BRANCH  16  18
HETATM   18  O   UNK N   1      35.359  19.413   8.546  0.00  0.00    -0.312 OA
HETATM   19  H   UNK N   1      36.275  19.721   8.472  0.00  0.00     0.222 HD
ENDBRANCH  16  18
BRANCH  16  20
HETATM   20  O   UNK N   1      32.718  18.364   8.335  0.00  0.00    -0.312 OA
HETATM   21  H   UNK N   1      32.082  17.726   8.693  0.00  0.00     0.222 HD
ENDBRANCH  16  20
ENDBRANCH   5  16
TORSDOF 8
ENDMDL
MODEL 9
REMARK VINA RESULT:      -4.8      2.398      4.336
REMARK  8 active torsions:
REMARK  status: ('A' for Active; 'I' for Inactive)
REMARK    1  A    between atoms: C_2  and  N_1 
REMARK    2  A    between atoms: C_2  and  C_3 
REMARK    3  A    between atoms: C_2  and  C_13 
REMARK    4  A    between atoms: C_3  and  C_4 
REMARK    5  A    between atoms: N_8  and  P_9 
REMARK    6  A    between atoms: P_9  and  O_10 
REMARK    7  A    between atoms: P_9  and  O_11 
REMARK    8  A    between atoms: C_13  and  O_14 
ROOT
HETATM    1  C   UNK N   1      34.469  14.546   8.791  0.00  0.00     0.041 A 
HETATM    2  C   UNK N   1      33.685  13.445   9.051  0.00  0.00     0.114 A 
HETATM    3  N   UNK N   1      32.394  13.830   9.024  0.00  0.00    -0.360 N 
HETATM    4  C   UNK N   1      32.402  15.151   8.747  0.00  0.00     0.193 A 
HETATM    5  N   UNK N   1      33.657  15.610   8.599  0.00  0.00    -0.253 N 
HETATM    6  H   UNK N   1      31.603  13.263   9.174  0.00  0.00     0.166 HD
ENDROOT
BRANCH   1   7
HETATM    7  C   UNK N   1      35.971  14.450   8.730  0.00  0.00     0.094 C 
BRANCH   7   8
HETATM    8  C   UNK N   1      36.731  14.179  10.019  0.00  0.00     0.178 C 
BRANCH   8   9
HETATM    9  N   UNK N   1      38.155  14.344   9.778  0.00  0.00    -0.417 N 
HETATM   10  H   UNK N   1      39.130  14.047   9.738  0.00  0.00     0.150 HD
HETATM   11  H   UNK N   1      38.212  15.317   9.476  0.00  0.00     0.150 HD
ENDBRANCH   8   9
BRANCH   8  12
HETATM   12  C   UNK N   1      36.306  15.116  11.116  0.00  0.00     0.163 C 
HETATM   13  O   UNK N   1      35.676  14.711  12.081  0.00  0.00    -0.648 OA
BRANCH  12  14
HETATM   14  O   UNK N   1      36.635  16.419  11.040  0.00  0.00    -0.775 OA
HETATM   15  H   UNK N   1      36.531  16.902  10.243  0.00  0.00     0.167 HD
ENDBRANCH  12  14
ENDBRANCH   8  12
ENDBRANCH   7   8
ENDBRANCH   1   7
BRANCH   5  16
HETATM   16  P   UNK N   1      34.016  17.333   8.192  0.00  0.00     0.354 P 
HETATM   17  O   UNK N   1      32.700  18.141   8.343  0.00  0.00    -0.637 OA
BRANCH  16  18
HETATM   18  O   UNK N   1      34.602  17.520   6.571  0.00  0.00    -0.312 OA
HETATM   19  H   UNK N   1      34.460  18.079   5.792  0.00  0.00     0.222 HD
ENDBRANCH  16  18
BRANCH  16  20
HETATM   20  O   UNK N   1      35.157  17.982   9.327  0.00  0.00    -0.312 OA
HETATM   21  H   UNK N   1      35.938  18.472   9.027  0.00  0.00     0.222 HD
ENDBRANCH  16  20
ENDBRANCH   5  16
TORSDOF 8
ENDMDL
