MODEL 1
REMARK VINA RESULT:      -5.4      0.000      0.000
REMARK  4 active torsions:
REMARK  status: ('A' for Active; 'I' for Inactive)
REMARK    1  A    between atoms: O_1  and  N_2 
REMARK    2  A    between atoms: C_7  and  O_8 
REMARK    3  A    between atoms: C_9  and  O_10 
REMARK    4  A    between atoms: C_11  and  O_12 
ROOT
HETATM    1  N   UNK N   1      33.467  14.629  10.327  0.00  0.00    -0.255 N 
ATOM      2  HN  UNK N   1      32.962  13.781  10.068  1.00  0.00     0.195 HD
HETATM    3  C   UNK N   1      33.682  15.511   9.389  0.00  0.00     0.129 A 
HETATM    4  N   UNK N   1      33.181  15.177   8.114  0.00  0.00    -0.374 N 
HETATM    5  C   UNK N   1      33.265  15.948   6.894  0.00  0.00     0.155 A 
HETATM    6  C   UNK N   1      33.983  17.261   7.046  0.00  0.00     0.167 A 
HETATM    7  C   UNK N   1      34.567  17.738   8.355  0.00  0.00     0.184 A 
HETATM    8  C   UNK N   1      34.427  16.853   9.588  0.00  0.00     0.218 A 
HETATM    9  H   UNK N   1      32.716  14.312   8.045  0.00  0.00     0.161 HD
ENDROOT
BRANCH   1  10
HETATM   10  O   UNK N   1      33.845  14.744  11.565  0.00  0.00    -0.288 OA
HETATM   11  H   UNK N   1      34.166  15.565  11.882  0.00  0.00     0.244 HD
ENDBRANCH   1  10
BRANCH   8  12
HETATM   12  O   UNK N   1      34.976  17.317  10.790  0.00  0.00    -0.385 OA
HETATM   13  H   UNK N   1      35.644  18.020  10.780  0.00  0.00     0.210 HD
ENDBRANCH   8  12
BRANCH   7  14
HETATM   14  O   UNK N   1      35.218  18.973   8.406  0.00  0.00    -0.390 OA
HETATM   15  H   UNK N   1      34.897  19.713   7.868  0.00  0.00     0.210 HD
ENDBRANCH   7  14
BRANCH   6  16
HETATM   16  O   UNK N   1      34.093  18.043   5.903  0.00  0.00    -0.391 OA
HETATM   17  H   UNK N   1      34.864  17.948   5.322  0.00  0.00     0.210 HD
ENDBRANCH   6  16
TORSDOF 4
ENDMDL
MODEL 2
REMARK VINA RESULT:      -5.3     14.680     15.568
REMARK  4 active torsions:
REMARK  status: ('A' for Active; 'I' for Inactive)
REMARK    1  A    between atoms: O_1  and  N_2 
REMARK    2  A    between atoms: C_7  and  O_8 
REMARK    3  A    between atoms: C_9  and  O_10 
REMARK    4  A    between atoms: C_11  and  O_12 
ROOT
HETATM    1  N   UNK N   1      19.783  16.307   2.891  0.00  0.00    -0.255 N 
ATOM      2  HN  UNK N   1      19.797  15.972   3.854  1.00  0.00     0.195 HD
HETATM    3  C   UNK N   1      20.153  17.541   2.678  0.00  0.00     0.129 A 
HETATM    4  N   UNK N   1      20.531  18.269   3.825  0.00  0.00    -0.374 N 
HETATM    5  C   UNK N   1      20.981  19.641   3.901  0.00  0.00     0.155 A 
HETATM    6  C   UNK N   1      21.039  20.343   2.572  0.00  0.00     0.167 A 
HETATM    7  C   UNK N   1      20.662  19.678   1.269  0.00  0.00     0.184 A 
HETATM    8  C   UNK N   1      20.198  18.227   1.291  0.00  0.00     0.218 A 
HETATM    9  H   UNK N   1      20.483  17.784   4.681  0.00  0.00     0.161 HD
ENDROOT
BRANCH   1  10
HETATM   10  O   UNK N   1      19.399  15.471   1.973  0.00  0.00    -0.288 OA
HETATM   11  H   UNK N   1      18.648  15.664   1.448  0.00  0.00     0.244 HD
ENDBRANCH   1  10
BRANCH   8  12
HETATM   12  O   UNK N   1      19.854  17.632   0.070  0.00  0.00    -0.385 OA
HETATM   13  H   UNK N   1      19.728  18.182  -0.719  0.00  0.00     0.210 HD
ENDBRANCH   8  12
BRANCH   7  14
HETATM   14  O   UNK N   1      20.745  20.405   0.079  0.00  0.00    -0.390 OA
HETATM   15  H   UNK N   1      21.412  20.171  -0.587  0.00  0.00     0.210 HD
ENDBRANCH   7  14
BRANCH   6  16
HETATM   16  O   UNK N   1      21.466  21.665   2.587  0.00  0.00    -0.391 OA
HETATM   17  H   UNK N   1      21.838  22.046   3.397  0.00  0.00     0.210 HD
ENDBRANCH   6  16
TORSDOF 4
ENDMDL
MODEL 3
REMARK VINA RESULT:      -4.9     11.557     12.455
REMARK  4 active torsions:
REMARK  status: ('A' for Active; 'I' for Inactive)
REMARK    1  A    between atoms: O_1  and  N_2 
REMARK    2  A    between atoms: C_7  and  O_8 
REMARK    3  A    between atoms: C_9  and  O_10 
REMARK    4  A    between atoms: C_11  and  O_12 
ROOT
HETATM    1  N   UNK N   1      24.956  12.578  10.677  0.00  0.00    -0.255 N 
ATOM      2  HN  UNK N   1      25.774  12.817  10.117  1.00  0.00     0.195 HD
HETATM    3  C   UNK N   1      23.782  12.841  10.168  0.00  0.00     0.129 A 
HETATM    4  N   UNK N   1      23.793  13.432   8.888  0.00  0.00    -0.374 N 
HETATM    5  C   UNK N   1      22.661  13.831   8.082  0.00  0.00     0.155 A 
HETATM    6  C   UNK N   1      21.326  13.567   8.723  0.00  0.00     0.167 A 
HETATM    7  C   UNK N   1      21.175  12.939  10.089  0.00  0.00     0.184 A 
HETATM    8  C   UNK N   1      22.429  12.552  10.863  0.00  0.00     0.218 A 
HETATM    9  H   UNK N   1      24.680  13.593   8.493  0.00  0.00     0.161 HD
ENDROOT
BRANCH   1  10
HETATM   10  O   UNK N   1      25.164  12.036  11.839  0.00  0.00    -0.288 OA
HETATM   11  H   UNK N   1      24.461  11.617  12.294  0.00  0.00     0.244 HD
ENDBRANCH   1  10
BRANCH   8  12
HETATM   12  O   UNK N   1      22.264  11.971  12.127  0.00  0.00    -0.385 OA
HETATM   13  H   UNK N   1      21.803  12.458  12.828  0.00  0.00     0.210 HD
ENDBRANCH   8  12
BRANCH   7  14
HETATM   14  O   UNK N   1      19.896  12.729  10.610  0.00  0.00    -0.390 OA
HETATM   15  H   UNK N   1      19.262  12.174  10.129  0.00  0.00     0.210 HD
ENDBRANCH   7  14
BRANCH   6  16
HETATM   16  O   UNK N   1      20.203  13.931   7.991  0.00  0.00    -0.391 OA
HETATM   17  H   UNK N   1      19.562  14.556   8.365  0.00  0.00     0.210 HD
ENDBRANCH   6  16
TORSDOF 4
ENDMDL
MODEL 4
REMARK VINA RESULT:      -4.9     14.268     15.752
REMARK  4 active torsions:
REMARK  status: ('A' for Active; 'I' for Inactive)
REMARK    1  A    between atoms: O_1  and  N_2 
REMARK    2  A    between atoms: C_7  and  O_8 
REMARK    3  A    between atoms: C_9  and  O_10 
REMARK    4  A    between atoms: C_11  and  O_12 
ROOT
HETATM    1  N   UNK N   1      20.863  20.509   1.066  0.00  0.00    -0.255 N 
ATOM      2  HN  UNK N   1      21.235  21.394   1.411  1.00  0.00     0.195 HD
HETATM    3  C   UNK N   1      20.735  19.535   1.927  0.00  0.00     0.129 A 
HETATM    4  N   UNK N   1      21.133  19.833   3.246  0.00  0.00    -0.374 N 
HETATM    5  C   UNK N   1      21.107  18.964   4.401  0.00  0.00     0.155 A 
HETATM    6  C   UNK N   1      20.584  17.582   4.119  0.00  0.00     0.167 A 
HETATM    7  C   UNK N   1      20.125  17.135   2.751  0.00  0.00     0.184 A 
HETATM    8  C   UNK N   1      20.191  18.124   1.594  0.00  0.00     0.218 A 
HETATM    9  H   UNK N   1      21.471  20.745   3.401  0.00  0.00     0.161 HD
ENDROOT
BRANCH   1  10
HETATM   10  O   UNK N   1      20.554  20.441  -0.194  0.00  0.00    -0.288 OA
HETATM   11  H   UNK N   1      21.099  19.960  -0.785  0.00  0.00     0.244 HD
ENDBRANCH   1  10
BRANCH   8  12
HETATM   12  O   UNK N   1      19.760  17.686   0.335  0.00  0.00    -0.385 OA
HETATM   13  H   UNK N   1      18.915  17.998  -0.024  0.00  0.00     0.210 HD
ENDBRANCH   8  12
BRANCH   7  14
HETATM   14  O   UNK N   1      19.653  15.832   2.578  0.00  0.00    -0.390 OA
HETATM   15  H   UNK N   1      19.829  15.159   3.255  0.00  0.00     0.210 HD
ENDBRANCH   7  14
BRANCH   6  16
HETATM   16  O   UNK N   1      20.538  16.705   5.196  0.00  0.00    -0.391 OA
HETATM   17  H   UNK N   1      19.720  16.222   5.393  0.00  0.00     0.210 HD
ENDBRANCH   6  16
TORSDOF 4
ENDMDL
MODEL 5
REMARK VINA RESULT:      -4.7     12.409     12.941
REMARK  4 active torsions:
REMARK  status: ('A' for Active; 'I' for Inactive)
REMARK    1  A    between atoms: O_1  and  N_2 
REMARK    2  A    between atoms: C_7  and  O_8 
REMARK    3  A    between atoms: C_9  and  O_10 
REMARK    4  A    between atoms: C_11  and  O_12 
ROOT
HETATM    1  N   UNK N   1      45.460  19.884   2.360  0.00  0.00    -0.255 N 
ATOM      2  HN  UNK N   1      45.275  19.145   1.681  1.00  0.00     0.195 HD
HETATM    3  C   UNK N   1      44.591  20.855   2.444  0.00  0.00     0.129 A 
HETATM    4  N   UNK N   1      43.487  20.760   1.571  0.00  0.00    -0.374 N 
HETATM    5  C   UNK N   1      42.376  21.675   1.439  0.00  0.00     0.155 A 
HETATM    6  C   UNK N   1      42.443  22.861   2.362  0.00  0.00     0.167 A 
HETATM    7  C   UNK N   1      43.570  23.082   3.344  0.00  0.00     0.184 A 
HETATM    8  C   UNK N   1      44.698  22.059   3.410  0.00  0.00     0.218 A 
HETATM    9  H   UNK N   1      43.470  19.973   0.979  0.00  0.00     0.161 HD
ENDROOT
BRANCH   1  10
HETATM   10  O   UNK N   1      46.543  19.783   3.072  0.00  0.00    -0.288 OA
HETATM   11  H   UNK N   1      47.290  20.307   2.865  0.00  0.00     0.244 HD
ENDBRANCH   1  10
BRANCH   8  12
HETATM   12  O   UNK N   1      45.732  22.286   4.328  0.00  0.00    -0.385 OA
HETATM   13  H   UNK N   1      45.883  21.660   5.053  0.00  0.00     0.210 HD
ENDBRANCH   8  12
BRANCH   7  14
HETATM   14  O   UNK N   1      43.553  24.212   4.164  0.00  0.00    -0.390 OA
HETATM   15  H   UNK N   1      42.869  24.889   4.043  0.00  0.00     0.210 HD
ENDBRANCH   7  14
BRANCH   6  16
HETATM   16  O   UNK N   1      41.399  23.774   2.276  0.00  0.00    -0.391 OA
HETATM   17  H   UNK N   1      41.056  24.039   1.409  0.00  0.00     0.210 HD
ENDBRANCH   6  16
TORSDOF 4
ENDMDL
MODEL 6
REMARK VINA RESULT:      -4.7      2.618      4.092
REMARK  4 active torsions:
REMARK  status: ('A' for Active; 'I' for Inactive)
REMARK    1  A    between atoms: O_1  and  N_2 
REMARK    2  A    between atoms: C_7  and  O_8 
REMARK    3  A    between atoms: C_9  and  O_10 
REMARK    4  A    between atoms: C_11  and  O_12 
ROOT
HETATM    1  N   UNK N   1      32.369  14.933   9.857  0.00  0.00    -0.255 N 
ATOM      2  HN  UNK N   1      31.749  14.123   9.848  1.00  0.00     0.195 HD
HETATM    3  C   UNK N   1      33.601  14.743  10.243  0.00  0.00     0.129 A 
HETATM    4  N   UNK N   1      33.928  13.419  10.605  0.00  0.00    -0.374 N 
HETATM    5  C   UNK N   1      35.200  12.911  11.067  0.00  0.00     0.155 A 
HETATM    6  C   UNK N   1      36.281  13.952  11.159  0.00  0.00     0.167 A 
HETATM    7  C   UNK N   1      36.064  15.403  10.802  0.00  0.00     0.184 A 
HETATM    8  C   UNK N   1      34.686  15.844  10.324  0.00  0.00     0.218 A 
HETATM    9  H   UNK N   1      33.200  12.760  10.534  0.00  0.00     0.161 HD
ENDROOT
BRANCH   1  10
HETATM   10  O   UNK N   1      31.868  16.073   9.484  0.00  0.00    -0.288 OA
HETATM   11  H   UNK N   1      32.282  16.873   9.739  0.00  0.00     0.244 HD
ENDBRANCH   1  10
BRANCH   8  12
HETATM   12  O   UNK N   1      34.508  17.196   9.999  0.00  0.00    -0.385 OA
HETATM   13  H   UNK N   1      34.496  17.474   9.070  0.00  0.00     0.210 HD
ENDBRANCH   8  12
BRANCH   7  14
HETATM   14  O   UNK N   1      37.125  16.305  10.917  0.00  0.00    -0.390 OA
HETATM   15  H   UNK N   1      37.994  15.995  11.215  0.00  0.00     0.210 HD
ENDBRANCH   7  14
BRANCH   6  16
HETATM   16  O   UNK N   1      37.526  13.517  11.598  0.00  0.00    -0.391 OA
HETATM   17  H   UNK N   1      37.649  13.254  12.523  0.00  0.00     0.210 HD
ENDBRANCH   6  16
TORSDOF 4
ENDMDL
MODEL 7
REMARK VINA RESULT:      -4.7     11.140     12.267
REMARK  4 active torsions:
REMARK  status: ('A' for Active; 'I' for Inactive)
REMARK    1  A    between atoms: O_1  and  N_2 
REMARK    2  A    between atoms: C_7  and  O_8 
REMARK    3  A    between atoms: C_9  and  O_10 
REMARK    4  A    between atoms: C_11  and  O_12 
ROOT
HETATM    1  N   UNK N   1      45.238  21.377   3.908  0.00  0.00    -0.255 N 
ATOM      2  HN  UNK N   1      45.581  20.430   4.067  1.00  0.00     0.195 HD
HETATM    3  C   UNK N   1      44.057  21.506   3.367  0.00  0.00     0.129 A 
HETATM    4  N   UNK N   1      43.392  20.299   3.063  0.00  0.00    -0.374 N 
HETATM    5  C   UNK N   1      42.088  20.128   2.465  0.00  0.00     0.155 A 
HETATM    6  C   UNK N   1      41.385  21.419   2.141  0.00  0.00     0.167 A 
HETATM    7  C   UNK N   1      41.986  22.777   2.415  0.00  0.00     0.184 A 
HETATM    8  C   UNK N   1      43.369  22.856   3.050  0.00  0.00     0.218 A 
HETATM    9  H   UNK N   1      43.876  19.471   3.286  0.00  0.00     0.161 HD
ENDROOT
BRANCH   1  10
HETATM   10  O   UNK N   1      46.011  22.360   4.262  0.00  0.00    -0.288 OA
HETATM   11  H   UNK N   1      46.785  22.547   3.770  0.00  0.00     0.244 HD
ENDBRANCH   1  10
BRANCH   8  12
HETATM   12  O   UNK N   1      43.904  24.127   3.294  0.00  0.00    -0.385 OA
HETATM   13  H   UNK N   1      43.323  24.855   3.564  0.00  0.00     0.210 HD
ENDBRANCH   8  12
BRANCH   7  14
HETATM   14  O   UNK N   1      41.263  23.926   2.083  0.00  0.00    -0.390 OA
HETATM   15  H   UNK N   1      40.973  24.069   1.168  0.00  0.00     0.210 HD
ENDBRANCH   7  14
BRANCH   6  16
HETATM   16  O   UNK N   1      40.126  21.312   1.564  0.00  0.00    -0.391 OA
HETATM   17  H   UNK N   1      39.782  22.033   1.014  0.00  0.00     0.210 HD
ENDBRANCH   6  16
TORSDOF 4
ENDMDL
MODEL 8
REMARK VINA RESULT:      -4.6     14.386     14.925
REMARK  4 active torsions:
REMARK  status: ('A' for Active; 'I' for Inactive)
REMARK    1  A    between atoms: O_1  and  N_2 
REMARK    2  A    between atoms: C_7  and  O_8 
REMARK    3  A    between atoms: C_9  and  O_10 
REMARK    4  A    between atoms: C_11  and  O_12 
ROOT
HETATM    1  N   UNK N   1      20.204  16.872   4.026  0.00  0.00    -0.255 N 
ATOM      2  HN  UNK N   1      19.924  15.976   3.625  1.00  0.00     0.195 HD
HETATM    3  C   UNK N   1      20.384  17.869   3.203  0.00  0.00     0.129 A 
HETATM    4  N   UNK N   1      20.166  17.579   1.839  0.00  0.00    -0.374 N 
HETATM    5  C   UNK N   1      20.287  18.472   0.710  0.00  0.00     0.155 A 
HETATM    6  C   UNK N   1      20.698  19.872   1.074  0.00  0.00     0.167 A 
HETATM    7  C   UNK N   1      20.962  20.313   2.494  0.00  0.00     0.184 A 
HETATM    8  C   UNK N   1      20.808  19.298   3.620  0.00  0.00     0.218 A 
HETATM    9  H   UNK N   1      19.899  16.655   1.631  0.00  0.00     0.161 HD
ENDROOT
BRANCH   1  10
HETATM   10  O   UNK N   1      20.353  16.929   5.316  0.00  0.00    -0.288 OA
HETATM   11  H   UNK N   1      20.371  17.758   5.749  0.00  0.00     0.244 HD
ENDBRANCH   1  10
BRANCH   8  12
HETATM   12  O   UNK N   1      21.059  19.730   4.929  0.00  0.00    -0.385 OA
HETATM   13  H   UNK N   1      21.059  20.678   5.135  0.00  0.00     0.210 HD
ENDBRANCH   8  12
BRANCH   7  14
HETATM   14  O   UNK N   1      21.339  21.635   2.743  0.00  0.00    -0.390 OA
HETATM   15  H   UNK N   1      22.278  21.881   2.735  0.00  0.00     0.210 HD
ENDBRANCH   7  14
BRANCH   6  16
HETATM   16  O   UNK N   1      20.829  20.773   0.024  0.00  0.00    -0.391 OA
HETATM   17  H   UNK N   1      20.069  21.307  -0.255  0.00  0.00     0.210 HD
ENDBRANCH   6  16
TORSDOF 4
ENDMDL
MODEL 9
REMARK VINA RESULT:      -4.6      1.422      2.419
REMARK  4 active torsions:
REMARK  status: ('A' for Active; 'I' for Inactive)
REMARK    1  A    between atoms: O_1  and  N_2 
REMARK    2  A    between atoms: C_7  and  O_8 
REMARK    3  A    between atoms: C_9  and  O_10 
REMARK    4  A    between atoms: C_11  and  O_12 
ROOT
HETATM    1  N   UNK N   1      32.593  14.248   7.565  0.00  0.00    -0.255 N 
ATOM      2  HN  UNK N   1      32.262  14.189   6.602  1.00  0.00     0.195 HD
HETATM    3  C   UNK N   1      33.225  15.334   7.918  0.00  0.00     0.129 A 
HETATM    4  N   UNK N   1      33.374  16.307   6.908  0.00  0.00    -0.374 N 
HETATM    5  C   UNK N   1      34.022  17.595   7.002  0.00  0.00     0.155 A 
HETATM    6  C   UNK N   1      34.594  17.898   8.360  0.00  0.00     0.167 A 
HETATM    7  C   UNK N   1      34.503  16.943   9.527  0.00  0.00     0.184 A 
HETATM    8  C   UNK N   1      33.799  15.606   9.330  0.00  0.00     0.218 A 
HETATM    9  H   UNK N   1      32.990  16.081   6.030  0.00  0.00     0.161 HD
ENDROOT
BRANCH   1  10
HETATM   10  O   UNK N   1      32.351  13.235   8.342  0.00  0.00    -0.288 OA
HETATM   11  H   UNK N   1      32.988  12.967   8.974  0.00  0.00     0.244 HD
ENDBRANCH   1  10
BRANCH   8  12
HETATM   12  O   UNK N   1      33.728  14.737  10.427  0.00  0.00    -0.385 OA
HETATM   13  H   UNK N   1      33.612  15.093  11.321  0.00  0.00     0.210 HD
ENDBRANCH   8  12
BRANCH   7  14
HETATM   14  O   UNK N   1      35.063  17.305  10.755  0.00  0.00    -0.390 OA
HETATM   15  H   UNK N   1      35.967  17.030  10.976  0.00  0.00     0.210 HD
ENDBRANCH   7  14
BRANCH   6  16
HETATM   16  O   UNK N   1      35.229  19.125   8.506  0.00  0.00    -0.391 OA
HETATM   17  H   UNK N   1      35.759  19.306   9.298  0.00  0.00     0.210 HD
ENDBRANCH   6  16
TORSDOF 4
ENDMDL
