MODEL 1
REMARK VINA RESULT:      -5.5      0.000      0.000
REMARK  11 active torsions:
REMARK  status: ('A' for Active; 'I' for Inactive)
REMARK    1  A    between atoms: C_3  and  C_1 
REMARK    2  A    between atoms: O_6  and  C_1 
REMARK    3  A    between atoms: C_4  and  C_2 
REMARK    4  A    between atoms: O_13  and  C_2 
REMARK    5  A    between atoms: C_5  and  C_3 
REMARK    6  A    between atoms: C_5  and  C_4 
REMARK    7  A    between atoms: C_4  and  O_8 
REMARK    8  A    between atoms: C_5  and  O_9 
REMARK    9  A    between atoms: P_14  and  O_10 
REMARK   10  A    between atoms: P_14  and  O_11 
REMARK   11  A    between atoms: P_14  and  O_13 
ROOT
HETATM    1  C   UNK N   1      35.733  15.863  11.323  0.00  0.00     0.178 C 
ENDROOT
BRANCH   1   2
HETATM    2  C   UNK N   1      34.796  16.322  10.207  0.00  0.00     0.215 C 
BRANCH   2   3
HETATM    3  O   UNK N   1      35.157  17.568   9.680  0.00  0.00    -0.294 OA
BRANCH   3   4
HETATM    4  P   UNK N   1      34.021  17.818   8.386  0.00  0.00     0.390 P 
HETATM    5  O   UNK N   1      34.673  16.469   7.984  0.00  0.00    -0.632 OA
BRANCH   4   6
HETATM    6  O   UNK N   1      34.545  18.120   6.760  0.00  0.00    -0.307 OA
HETATM    7  H   UNK N   1      34.404  18.867   6.158  0.00  0.00     0.222 HD
ENDBRANCH   4   6
BRANCH   4   8
HETATM    8  O   UNK N   1      35.221  19.072   8.349  0.00  0.00    -0.307 OA
HETATM    9  H   UNK N   1      36.089  19.366   8.028  0.00  0.00     0.222 HD
ENDBRANCH   4   8
ENDBRANCH   3   4
ENDBRANCH   2   3
ENDBRANCH   1   2
BRANCH   1  10
HETATM   10  C   UNK N   1      35.465  14.409  11.761  0.00  0.00     0.220 C 
BRANCH  10  11
HETATM   11  C   UNK N   1      35.919  14.182  13.191  0.00  0.00     0.181 C 
HETATM   12  O   UNK N   1      36.508  15.070  13.788  0.00  0.00    -0.293 OA
BRANCH  11  13
HETATM   13  C   UNK N   1      35.654  12.891  13.904  0.00  0.00     0.245 C 
BRANCH  13  14
HETATM   14  O   UNK N   1      34.285  12.620  13.910  0.00  0.00    -0.393 OA
HETATM   15  H   UNK N   1      33.821  12.219  13.159  0.00  0.00     0.209 HD
ENDBRANCH  13  14
ENDBRANCH  11  13
ENDBRANCH  10  11
BRANCH  10  16
HETATM   16  O   UNK N   1      34.097  14.137  11.647  0.00  0.00    -0.385 OA
HETATM   17  H   UNK N   1      33.406  14.318  10.991  0.00  0.00     0.210 HD
ENDBRANCH  10  16
ENDBRANCH   1  10
BRANCH   1  18
HETATM   18  O   UNK N   1      37.060  16.019  10.911  0.00  0.00    -0.390 OA
HETATM   19  H   UNK N   1      37.738  16.710  10.974  0.00  0.00     0.210 HD
ENDBRANCH   1  18
TORSDOF 11
ENDMDL
MODEL 2
REMARK VINA RESULT:      -5.3      1.163      2.035
REMARK  11 active torsions:
REMARK  status: ('A' for Active; 'I' for Inactive)
REMARK    1  A    between atoms: C_3  and  C_1 
REMARK    2  A    between atoms: O_6  and  C_1 
REMARK    3  A    between atoms: C_4  and  C_2 
REMARK    4  A    between atoms: O_13  and  C_2 
REMARK    5  A    between atoms: C_5  and  C_3 
REMARK    6  A    between atoms: C_5  and  C_4 
REMARK    7  A    between atoms: C_4  and  O_8 
REMARK    8  A    between atoms: C_5  and  O_9 
REMARK    9  A    between atoms: P_14  and  O_10 
REMARK   10  A    between atoms: P_14  and  O_11 
REMARK   11  A    between atoms: P_14  and  O_13 
ROOT
HETATM    1  C   UNK N   1      34.747  15.093  10.649  0.00  0.00     0.178 C 
ENDROOT
BRANCH   1   2
HETATM    2  C   UNK N   1      34.646  15.903   9.357  0.00  0.00     0.215 C 
BRANCH   2   3
HETATM    3  O   UNK N   1      34.585  17.281   9.590  0.00  0.00    -0.294 OA
BRANCH   3   4
HETATM    4  P   UNK N   1      33.683  17.894   8.233  0.00  0.00     0.390 P 
HETATM    5  O   UNK N   1      34.058  16.466   7.752  0.00  0.00    -0.632 OA
BRANCH   4   6
HETATM    6  O   UNK N   1      34.439  18.196   6.700  0.00  0.00    -0.307 OA
HETATM    7  H   UNK N   1      35.334  18.021   6.370  0.00  0.00     0.222 HD
ENDBRANCH   4   6
BRANCH   4   8
HETATM    8  O   UNK N   1      35.130  18.832   8.434  0.00  0.00    -0.307 OA
HETATM    9  H   UNK N   1      35.622  19.638   8.210  0.00  0.00     0.222 HD
ENDBRANCH   4   8
ENDBRANCH   3   4
ENDBRANCH   2   3
ENDBRANCH   1   2
BRANCH   1  10
HETATM   10  C   UNK N   1      35.800  15.660  11.623  0.00  0.00     0.220 C 
BRANCH  10  11
HETATM   11  C   UNK N   1      36.276  14.590  12.588  0.00  0.00     0.181 C 
HETATM   12  O   UNK N   1      36.245  14.801  13.790  0.00  0.00    -0.293 OA
BRANCH  11  13
HETATM   13  C   UNK N   1      36.777  13.263  12.104  0.00  0.00     0.245 C 
BRANCH  13  14
HETATM   14  O   UNK N   1      37.965  13.431  11.392  0.00  0.00    -0.393 OA
HETATM   15  H   UNK N   1      38.791  13.727  11.803  0.00  0.00     0.209 HD
ENDBRANCH  13  14
ENDBRANCH  11  13
ENDBRANCH  10  11
BRANCH  10  16
HETATM   16  O   UNK N   1      36.885  16.157  10.891  0.00  0.00    -0.385 OA
HETATM   17  H   UNK N   1      37.060  16.952  10.365  0.00  0.00     0.210 HD
ENDBRANCH  10  16
ENDBRANCH   1  10
BRANCH   1  18
HETATM   18  O   UNK N   1      33.491  15.032  11.261  0.00  0.00    -0.390 OA
HETATM   19  H   UNK N   1      33.148  15.076  12.167  0.00  0.00     0.210 HD
ENDBRANCH   1  18
TORSDOF 11
ENDMDL
MODEL 3
REMARK VINA RESULT:      -5.2      2.483      5.875
REMARK  11 active torsions:
REMARK  status: ('A' for Active; 'I' for Inactive)
REMARK    1  A    between atoms: C_3  and  C_1 
REMARK    2  A    between atoms: O_6  and  C_1 
REMARK    3  A    between atoms: C_4  and  C_2 
REMARK    4  A    between atoms: O_13  and  C_2 
REMARK    5  A    between atoms: C_5  and  C_3 
REMARK    6  A    between atoms: C_5  and  C_4 
REMARK    7  A    between atoms: C_4  and  O_8 
REMARK    8  A    between atoms: C_5  and  O_9 
REMARK    9  A    between atoms: P_14  and  O_10 
REMARK   10  A    between atoms: P_14  and  O_11 
REMARK   11  A    between atoms: P_14  and  O_13 
ROOT
HETATM    1  C   UNK N   1      33.898  15.165   9.949  0.00  0.00     0.178 C 
ENDROOT
BRANCH   1   2
HETATM    2  C   UNK N   1      34.724  14.195  10.794  0.00  0.00     0.215 C 
BRANCH   2   3
HETATM    3  O   UNK N   1      34.643  14.471  12.163  0.00  0.00    -0.294 OA
BRANCH   3   4
HETATM    4  P   UNK N   1      35.980  13.590  12.845  0.00  0.00     0.390 P 
HETATM    5  O   UNK N   1      34.929  13.514  13.985  0.00  0.00    -0.632 OA
BRANCH   4   6
HETATM    6  O   UNK N   1      36.862  14.190  14.214  0.00  0.00    -0.307 OA
HETATM    7  H   UNK N   1      36.578  14.486  15.092  0.00  0.00     0.222 HD
ENDBRANCH   4   6
BRANCH   4   8
HETATM    8  O   UNK N   1      36.446  15.244  12.601  0.00  0.00    -0.307 OA
HETATM    9  H   UNK N   1      37.164  15.880  12.450  0.00  0.00     0.222 HD
ENDBRANCH   4   8
ENDBRANCH   3   4
ENDBRANCH   2   3
ENDBRANCH   1   2
BRANCH   1  10
HETATM   10  C   UNK N   1      34.654  16.474   9.642  0.00  0.00     0.220 C 
BRANCH  10  11
HETATM   11  C   UNK N   1      33.824  17.381   8.751  0.00  0.00     0.181 C 
HETATM   12  O   UNK N   1      32.608  17.271   8.739  0.00  0.00    -0.293 OA
BRANCH  11  13
HETATM   13  C   UNK N   1      34.460  18.426   7.885  0.00  0.00     0.245 C 
BRANCH  13  14
HETATM   14  O   UNK N   1      35.344  19.199   8.639  0.00  0.00    -0.393 OA
HETATM   15  H   UNK N   1      35.471  20.149   8.494  0.00  0.00     0.209 HD
ENDBRANCH  13  14
ENDBRANCH  11  13
ENDBRANCH  10  11
BRANCH  10  16
HETATM   16  O   UNK N   1      34.951  17.128  10.843  0.00  0.00    -0.385 OA
HETATM   17  H   UNK N   1      34.863  16.920  11.786  0.00  0.00     0.210 HD
ENDBRANCH  10  16
ENDBRANCH   1  10
BRANCH   1  18
HETATM   18  O   UNK N   1      33.502  14.533   8.766  0.00  0.00    -0.390 OA
HETATM   19  H   UNK N   1      32.964  14.764   7.993  0.00  0.00     0.210 HD
ENDBRANCH   1  18
TORSDOF 11
ENDMDL
MODEL 4
REMARK VINA RESULT:      -5.0      2.705      5.765
REMARK  11 active torsions:
REMARK  status: ('A' for Active; 'I' for Inactive)
REMARK    1  A    between atoms: C_3  and  C_1 
REMARK    2  A    between atoms: O_6  and  C_1 
REMARK    3  A    between atoms: C_4  and  C_2 
REMARK    4  A    between atoms: O_13  and  C_2 
REMARK    5  A    between atoms: C_5  and  C_3 
REMARK    6  A    between atoms: C_5  and  C_4 
REMARK    7  A    between atoms: C_4  and  O_8 
REMARK    8  A    between atoms: C_5  and  O_9 
REMARK    9  A    between atoms: P_14  and  O_10 
REMARK   10  A    between atoms: P_14  and  O_11 
REMARK   11  A    between atoms: P_14  and  O_13 
ROOT
HETATM    1  C   UNK N   1      35.715  14.316  11.034  0.00  0.00     0.178 C 
ENDROOT
BRANCH   1   2
HETATM    2  C   UNK N   1      35.518  13.210  12.070  0.00  0.00     0.215 C 
BRANCH   2   3
HETATM    3  O   UNK N   1      34.978  13.687  13.269  0.00  0.00    -0.294 OA
BRANCH   3   4
HETATM    4  P   UNK N   1      35.819  12.779  14.494  0.00  0.00     0.390 P 
HETATM    5  O   UNK N   1      34.504  13.164  15.224  0.00  0.00    -0.632 OA
BRANCH   4   6
HETATM    6  O   UNK N   1      36.398  13.530  15.947  0.00  0.00    -0.307 OA
HETATM    7  H   UNK N   1      37.212  14.016  16.149  0.00  0.00     0.222 HD
ENDBRANCH   4   6
BRANCH   4   8
HETATM    8  O   UNK N   1      36.716  14.219  14.128  0.00  0.00    -0.307 OA
HETATM    9  H   UNK N   1      37.520  14.743  14.274  0.00  0.00     0.222 HD
ENDBRANCH   4   8
ENDBRANCH   3   4
ENDBRANCH   2   3
ENDBRANCH   1   2
BRANCH   1  10
HETATM   10  C   UNK N   1      34.747  15.499  11.240  0.00  0.00     0.220 C 
BRANCH  10  11
HETATM   11  C   UNK N   1      35.005  16.593  10.219  0.00  0.00     0.181 C 
HETATM   12  O   UNK N   1      35.870  17.428  10.432  0.00  0.00    -0.293 OA
BRANCH  11  13
HETATM   13  C   UNK N   1      34.227  16.672   8.941  0.00  0.00     0.245 C 
BRANCH  13  14
HETATM   14  O   UNK N   1      32.956  17.193   9.184  0.00  0.00    -0.393 OA
HETATM   15  H   UNK N   1      32.143  16.676   9.076  0.00  0.00     0.209 HD
ENDBRANCH  13  14
ENDBRANCH  11  13
ENDBRANCH  10  11
BRANCH  10  16
HETATM   16  O   UNK N   1      33.429  15.043  11.126  0.00  0.00    -0.385 OA
HETATM   17  H   UNK N   1      32.762  14.691  11.736  0.00  0.00     0.210 HD
ENDBRANCH  10  16
ENDBRANCH   1  10
BRANCH   1  18
HETATM   18  O   UNK N   1      37.043  14.753  11.064  0.00  0.00    -0.390 OA
HETATM   19  H   UNK N   1      37.918  14.348  10.956  0.00  0.00     0.210 HD
ENDBRANCH   1  18
TORSDOF 11
ENDMDL
MODEL 5
REMARK VINA RESULT:      -4.9      2.711      4.254
REMARK  11 active torsions:
REMARK  status: ('A' for Active; 'I' for Inactive)
REMARK    1  A    between atoms: C_3  and  C_1 
REMARK    2  A    between atoms: O_6  and  C_1 
REMARK    3  A    between atoms: C_4  and  C_2 
REMARK    4  A    between atoms: O_13  and  C_2 
REMARK    5  A    between atoms: C_5  and  C_3 
REMARK    6  A    between atoms: C_5  and  C_4 
REMARK    7  A    between atoms: C_4  and  O_8 
REMARK    8  A    between atoms: C_5  and  O_9 
REMARK    9  A    between atoms: P_14  and  O_10 
REMARK   10  A    between atoms: P_14  and  O_11 
REMARK   11  A    between atoms: P_14  and  O_13 
ROOT
HETATM    1  C   UNK N   1      34.215  17.777   8.067  0.00  0.00     0.178 C 
ENDROOT
BRANCH   1   2
HETATM    2  C   UNK N   1      32.739  17.941   8.428  0.00  0.00     0.215 C 
BRANCH   2   3
HETATM    3  O   UNK N   1      31.886  17.395   7.463  0.00  0.00    -0.294 OA
BRANCH   3   4
HETATM    4  P   UNK N   1      30.342  17.324   8.263  0.00  0.00     0.390 P 
HETATM    5  O   UNK N   1      30.943  18.635   8.838  0.00  0.00    -0.632 OA
BRANCH   4   6
HETATM    6  O   UNK N   1      30.215  17.079   9.976  0.00  0.00    -0.307 OA
HETATM    7  H   UNK N   1      30.730  17.421  10.722  0.00  0.00     0.222 HD
ENDBRANCH   4   6
BRANCH   4   8
HETATM    8  O   UNK N   1      31.313  15.976   8.766  0.00  0.00    -0.307 OA
HETATM    9  H   UNK N   1      32.189  15.648   9.025  0.00  0.00     0.222 HD
ENDBRANCH   4   8
ENDBRANCH   3   4
ENDBRANCH   2   3
ENDBRANCH   1   2
BRANCH   1  10
HETATM   10  C   UNK N   1      34.783  16.412   8.503  0.00  0.00     0.220 C 
BRANCH  10  11
HETATM   11  C   UNK N   1      34.987  16.366  10.007  0.00  0.00     0.181 C 
HETATM   12  O   UNK N   1      35.523  17.304  10.575  0.00  0.00    -0.293 OA
BRANCH  11  13
HETATM   13  C   UNK N   1      34.536  15.193  10.825  0.00  0.00     0.245 C 
BRANCH  13  14
HETATM   14  O   UNK N   1      33.146  15.203  10.948  0.00  0.00    -0.393 OA
HETATM   15  H   UNK N   1      32.690  15.419  11.776  0.00  0.00     0.209 HD
ENDBRANCH  13  14
ENDBRANCH  11  13
ENDBRANCH  10  11
BRANCH  10  16
HETATM   16  O   UNK N   1      33.901  15.398   8.111  0.00  0.00    -0.385 OA
HETATM   17  H   UNK N   1      33.979  14.558   7.634  0.00  0.00     0.210 HD
ENDBRANCH  10  16
ENDBRANCH   1  10
BRANCH   1  18
HETATM   18  O   UNK N   1      34.383  17.966   6.692  0.00  0.00    -0.390 OA
HETATM   19  H   UNK N   1      35.124  17.950   6.066  0.00  0.00     0.210 HD
ENDBRANCH   1  18
TORSDOF 11
ENDMDL
MODEL 6
REMARK VINA RESULT:      -4.6     16.499     17.829
REMARK  11 active torsions:
REMARK  status: ('A' for Active; 'I' for Inactive)
REMARK    1  A    between atoms: C_3  and  C_1 
REMARK    2  A    between atoms: O_6  and  C_1 
REMARK    3  A    between atoms: C_4  and  C_2 
REMARK    4  A    between atoms: O_13  and  C_2 
REMARK    5  A    between atoms: C_5  and  C_3 
REMARK    6  A    between atoms: C_5  and  C_4 
REMARK    7  A    between atoms: C_4  and  O_8 
REMARK    8  A    between atoms: C_5  and  O_9 
REMARK    9  A    between atoms: P_14  and  O_10 
REMARK   10  A    between atoms: P_14  and  O_11 
REMARK   11  A    between atoms: P_14  and  O_13 
ROOT
HETATM    1  C   UNK N   1      19.991  17.269   3.525  0.00  0.00     0.178 C 
ENDROOT
BRANCH   1   2
HETATM    2  C   UNK N   1      20.689  16.167   2.730  0.00  0.00     0.215 C 
BRANCH   2   3
HETATM    3  O   UNK N   1      19.785  15.290   2.120  0.00  0.00    -0.294 OA
BRANCH   3   4
HETATM    4  P   UNK N   1      20.798  14.248   1.162  0.00  0.00     0.390 P 
HETATM    5  O   UNK N   1      21.537  14.248   2.526  0.00  0.00    -0.632 OA
BRANCH   4   6
HETATM    6  O   UNK N   1      22.412  14.705   0.718  0.00  0.00    -0.307 OA
HETATM    7  H   UNK N   1      23.279  14.459   1.075  0.00  0.00     0.222 HD
ENDBRANCH   4   6
BRANCH   4   8
HETATM    8  O   UNK N   1      20.824  15.850   0.493  0.00  0.00    -0.307 OA
HETATM    9  H   UNK N   1      20.804  16.406  -0.302  0.00  0.00     0.222 HD
ENDBRANCH   4   8
ENDBRANCH   3   4
ENDBRANCH   2   3
ENDBRANCH   1   2
BRANCH   1  10
HETATM   10  C   UNK N   1      19.563  18.459   2.641  0.00  0.00     0.220 C 
BRANCH  10  11
HETATM   11  C   UNK N   1      20.717  19.424   2.438  0.00  0.00     0.181 C 
HETATM   12  O   UNK N   1      21.717  19.327   3.132  0.00  0.00    -0.293 OA
BRANCH  11  13
HETATM   13  C   UNK N   1      20.668  20.497   1.393  0.00  0.00     0.245 C 
BRANCH  13  14
HETATM   14  O   UNK N   1      20.684  19.927   0.120  0.00  0.00    -0.393 OA
HETATM   15  H   UNK N   1      21.318  19.244  -0.145  0.00  0.00     0.209 HD
ENDBRANCH  13  14
ENDBRANCH  11  13
ENDBRANCH  10  11
BRANCH  10  16
HETATM   16  O   UNK N   1      19.122  17.978   1.403  0.00  0.00    -0.385 OA
HETATM   17  H   UNK N   1      19.417  17.298   0.778  0.00  0.00     0.210 HD
ENDBRANCH  10  16
ENDBRANCH   1  10
BRANCH   1  18
HETATM   18  O   UNK N   1      18.888  16.732   4.198  0.00  0.00    -0.390 OA
HETATM   19  H   UNK N   1      18.478  16.838   5.071  0.00  0.00     0.210 HD
ENDBRANCH   1  18
TORSDOF 11
ENDMDL
MODEL 7
REMARK VINA RESULT:      -4.6      2.044      2.960
REMARK  11 active torsions:
REMARK  status: ('A' for Active; 'I' for Inactive)
REMARK    1  A    between atoms: C_3  and  C_1 
REMARK    2  A    between atoms: O_6  and  C_1 
REMARK    3  A    between atoms: C_4  and  C_2 
REMARK    4  A    between atoms: O_13  and  C_2 
REMARK    5  A    between atoms: C_5  and  C_3 
REMARK    6  A    between atoms: C_5  and  C_4 
REMARK    7  A    between atoms: C_4  and  O_8 
REMARK    8  A    between atoms: C_5  and  O_9 
REMARK    9  A    between atoms: P_14  and  O_10 
REMARK   10  A    between atoms: P_14  and  O_11 
REMARK   11  A    between atoms: P_14  and  O_13 
ROOT
HETATM    1  C   UNK N   1      36.669  13.412  12.488  0.00  0.00     0.178 C 
ENDROOT
BRANCH   1   2
HETATM    2  C   UNK N   1      36.602  14.389  11.315  0.00  0.00     0.215 C 
BRANCH   2   3
HETATM    3  O   UNK N   1      35.774  15.487  11.577  0.00  0.00    -0.294 OA
BRANCH   3   4
HETATM    4  P   UNK N   1      35.229  15.982  10.000  0.00  0.00     0.390 P 
HETATM    5  O   UNK N   1      35.891  17.281  10.534  0.00  0.00    -0.632 OA
BRANCH   4   6
HETATM    6  O   UNK N   1      33.970  17.159   9.800  0.00  0.00    -0.307 OA
HETATM    7  H   UNK N   1      33.482  17.705  10.436  0.00  0.00     0.222 HD
ENDBRANCH   4   6
BRANCH   4   8
HETATM    8  O   UNK N   1      33.856  15.588  10.986  0.00  0.00    -0.307 OA
HETATM    9  H   UNK N   1      32.889  15.549  11.067  0.00  0.00     0.222 HD
ENDBRANCH   4   8
ENDBRANCH   3   4
ENDBRANCH   2   3
ENDBRANCH   1   2
BRANCH   1  10
HETATM   10  C   UNK N   1      35.442  12.479  12.553  0.00  0.00     0.220 C 
BRANCH  10  11
HETATM   11  C   UNK N   1      35.440  11.677  13.841  0.00  0.00     0.181 C 
HETATM   12  O   UNK N   1      36.362  10.915  14.083  0.00  0.00    -0.293 OA
BRANCH  11  13
HETATM   13  C   UNK N   1      34.330  11.802  14.842  0.00  0.00     0.245 C 
BRANCH  13  14
HETATM   14  O   UNK N   1      34.299  13.096  15.363  0.00  0.00    -0.393 OA
HETATM   15  H   UNK N   1      33.696  13.783  15.039  0.00  0.00     0.209 HD
ENDBRANCH  13  14
ENDBRANCH  11  13
ENDBRANCH  10  11
BRANCH  10  16
HETATM   16  O   UNK N   1      34.274  13.246  12.467  0.00  0.00    -0.385 OA
HETATM   17  H   UNK N   1      34.018  14.072  12.028  0.00  0.00     0.210 HD
ENDBRANCH  10  16
ENDBRANCH   1  10
BRANCH   1  18
HETATM   18  O   UNK N   1      37.851  12.669  12.410  0.00  0.00    -0.390 OA
HETATM   19  H   UNK N   1      38.595  12.596  11.792  0.00  0.00     0.210 HD
ENDBRANCH   1  18
TORSDOF 11
ENDMDL
MODEL 8
REMARK VINA RESULT:      -4.3      2.622      5.995
REMARK  11 active torsions:
REMARK  status: ('A' for Active; 'I' for Inactive)
REMARK    1  A    between atoms: C_3  and  C_1 
REMARK    2  A    between atoms: O_6  and  C_1 
REMARK    3  A    between atoms: C_4  and  C_2 
REMARK    4  A    between atoms: O_13  and  C_2 
REMARK    5  A    between atoms: C_5  and  C_3 
REMARK    6  A    between atoms: C_5  and  C_4 
REMARK    7  A    between atoms: C_4  and  O_8 
REMARK    8  A    between atoms: C_5  and  O_9 
REMARK    9  A    between atoms: P_14  and  O_10 
REMARK   10  A    between atoms: P_14  and  O_11 
REMARK   11  A    between atoms: P_14  and  O_13 
ROOT
HETATM    1  C   UNK N   1      34.600  15.267  11.104  0.00  0.00     0.178 C 
ENDROOT
BRANCH   1   2
HETATM    2  C   UNK N   1      35.288  14.231  11.993  0.00  0.00     0.215 C 
BRANCH   2   3
HETATM    3  O   UNK N   1      36.251  14.800  12.834  0.00  0.00    -0.294 OA
BRANCH   3   4
HETATM    4  P   UNK N   1      36.265  13.749  14.221  0.00  0.00     0.390 P 
HETATM    5  O   UNK N   1      36.884  15.050  14.798  0.00  0.00    -0.632 OA
BRANCH   4   6
HETATM    6  O   UNK N   1      37.750  13.185  14.921  0.00  0.00    -0.307 OA
HETATM    7  H   UNK N   1      38.257  13.476  15.694  0.00  0.00     0.222 HD
ENDBRANCH   4   6
BRANCH   4   8
HETATM    8  O   UNK N   1      37.316  13.103  12.999  0.00  0.00    -0.307 OA
HETATM    9  H   UNK N   1      37.670  13.180  12.099  0.00  0.00     0.222 HD
ENDBRANCH   4   8
ENDBRANCH   3   4
ENDBRANCH   2   3
ENDBRANCH   1   2
BRANCH   1  10
HETATM   10  C   UNK N   1      35.157  15.277   9.666  0.00  0.00     0.220 C 
BRANCH  10  11
HETATM   11  C   UNK N   1      34.649  16.484   8.898  0.00  0.00     0.181 C 
HETATM   12  O   UNK N   1      34.365  17.508   9.498  0.00  0.00    -0.293 OA
BRANCH  11  13
HETATM   13  C   UNK N   1      34.495  16.458   7.407  0.00  0.00     0.245 C 
BRANCH  13  14
HETATM   14  O   UNK N   1      35.452  15.615   6.841  0.00  0.00    -0.393 OA
HETATM   15  H   UNK N   1      36.238  15.311   7.320  0.00  0.00     0.209 HD
ENDBRANCH  13  14
ENDBRANCH  11  13
ENDBRANCH  10  11
BRANCH  10  16
HETATM   16  O   UNK N   1      36.555  15.296   9.712  0.00  0.00    -0.385 OA
HETATM   17  H   UNK N   1      37.246  14.699  10.038  0.00  0.00     0.210 HD
ENDBRANCH  10  16
ENDBRANCH   1  10
BRANCH   1  18
HETATM   18  O   UNK N   1      33.221  15.035  11.099  0.00  0.00    -0.390 OA
HETATM   19  H   UNK N   1      32.461  15.310  11.634  0.00  0.00     0.210 HD
ENDBRANCH   1  18
TORSDOF 11
ENDMDL
MODEL 9
REMARK VINA RESULT:      -4.3      1.844      2.970
REMARK  11 active torsions:
REMARK  status: ('A' for Active; 'I' for Inactive)
REMARK    1  A    between atoms: C_3  and  C_1 
REMARK    2  A    between atoms: O_6  and  C_1 
REMARK    3  A    between atoms: C_4  and  C_2 
REMARK    4  A    between atoms: O_13  and  C_2 
REMARK    5  A    between atoms: C_5  and  C_3 
REMARK    6  A    between atoms: C_5  and  C_4 
REMARK    7  A    between atoms: C_4  and  O_8 
REMARK    8  A    between atoms: C_5  and  O_9 
REMARK    9  A    between atoms: P_14  and  O_10 
REMARK   10  A    between atoms: P_14  and  O_11 
REMARK   11  A    between atoms: P_14  and  O_13 
ROOT
HETATM    1  C   UNK N   1      34.716  14.002   9.125  0.00  0.00     0.178 C 
ENDROOT
BRANCH   1   2
HETATM    2  C   UNK N   1      34.124  14.797   7.962  0.00  0.00     0.215 C 
BRANCH   2   3
HETATM    3  O   UNK N   1      34.650  16.090   7.873  0.00  0.00    -0.294 OA
BRANCH   3   4
HETATM    4  P   UNK N   1      33.504  16.938   6.874  0.00  0.00     0.390 P 
HETATM    5  O   UNK N   1      34.194  16.002   5.847  0.00  0.00    -0.632 OA
BRANCH   4   6
HETATM    6  O   UNK N   1      34.015  18.043   5.638  0.00  0.00    -0.307 OA
HETATM    7  H   UNK N   1      33.544  18.733   5.146  0.00  0.00     0.222 HD
ENDBRANCH   4   6
BRANCH   4   8
HETATM    8  O   UNK N   1      34.667  18.065   7.499  0.00  0.00    -0.307 OA
HETATM    9  H   UNK N   1      35.589  18.366   7.515  0.00  0.00     0.222 HD
ENDBRANCH   4   8
ENDBRANCH   3   4
ENDBRANCH   2   3
ENDBRANCH   1   2
BRANCH   1  10
HETATM   10  C   UNK N   1      33.999  14.285  10.461  0.00  0.00     0.220 C 
BRANCH  10  11
HETATM   11  C   UNK N   1      34.944  14.940  11.453  0.00  0.00     0.181 C 
HETATM   12  O   UNK N   1      35.087  14.455  12.564  0.00  0.00    -0.293 OA
BRANCH  11  13
HETATM   13  C   UNK N   1      35.722  16.171  11.100  0.00  0.00     0.245 C 
BRANCH  13  14
HETATM   14  O   UNK N   1      34.867  17.146  10.584  0.00  0.00    -0.393 OA
HETATM   15  H   UNK N   1      34.661  17.223   9.640  0.00  0.00     0.209 HD
ENDBRANCH  13  14
ENDBRANCH  11  13
ENDBRANCH  10  11
BRANCH  10  16
HETATM   16  O   UNK N   1      32.901  15.120  10.228  0.00  0.00    -0.385 OA
HETATM   17  H   UNK N   1      31.956  15.099  10.445  0.00  0.00     0.210 HD
ENDBRANCH  10  16
ENDBRANCH   1  10
BRANCH   1  18
HETATM   18  O   UNK N   1      34.678  12.637   8.824  0.00  0.00    -0.390 OA
HETATM   19  H   UNK N   1      33.991  11.966   8.690  0.00  0.00     0.210 HD
ENDBRANCH   1  18
TORSDOF 11
ENDMDL
