REMARK  4 active torsions:
REMARK  status: ('A' for Active; 'I' for Inactive)
REMARK    1  A    between atoms: N_1  and  C_2 
REMARK    2  A    between atoms: C_6  and  B_8 
REMARK    3  A    between atoms: B_8  and  O_9 
REMARK    4  A    between atoms: B_8  and  O_10 
ROOT
HETATM    1  C   UNK N   1       1.981  -0.516   0.000  0.00  0.00     0.025 A 
HETATM    2  C   UNK N   1       0.830  -1.308   0.000  0.00  0.00     0.029 A 
HETATM    3  C   UNK N   1      -0.433  -0.706   0.000  0.00  0.00     0.002 A 
HETATM    4  C   UNK N   1      -0.543   0.690   0.000  0.00  0.00     0.001 A 
HETATM    5  C   UNK N   1       0.611   1.483  -0.000  0.00  0.00    -0.030 A 
HETATM    6  C   UNK N   1       1.872   0.876  -0.000  0.00  0.00     0.029 A 
ENDROOT
BRANCH   5   7
HETATM    7  B   UNK N   1       0.511   3.045  -0.000  0.00  0.00     0.529 B 
BRANCH   7   8
HETATM    8  O   UNK N   1      -0.793   3.703   0.000  0.00  0.00    -0.433 OA
HETATM    9  H   UNK N   1      -0.848   4.672   0.000  0.00  0.00     0.185 HD
ENDBRANCH   7   8
BRANCH   7  10
HETATM   10  O   UNK N   1       1.728   3.852  -0.000  0.00  0.00    -0.433 OA
HETATM   11  H   UNK N   1       2.597   3.420  -0.000  0.00  0.00     0.185 HD
ENDBRANCH   7  10
ENDBRANCH   5   7
BRANCH   1  12
HETATM   12  N   UNK N   1       3.254  -1.119   0.000  0.00  0.00    -0.399 N 
HETATM   13  H   UNK N   1       3.334  -2.100   0.000  0.00  0.00     0.156 HD
HETATM   14  H   UNK N   1       4.064  -0.559   0.000  0.00  0.00     0.156 HD
ENDBRANCH   1  12
TORSDOF 4
