REMARK  8 active torsions:
REMARK  status: ('A' for Active; 'I' for Inactive)
REMARK    1  A    between atoms: C_6  and  N_2 
REMARK       I    between atoms: C_11  and  N_16 
REMARK    2  A    between atoms: C_13  and  O_19 
REMARK    3  A    between atoms: C_17  and  C_20 
REMARK    4  A    between atoms: C_18  and  O_21 
REMARK    5  A    between atoms: C_20  and  O_22 
REMARK    6  A    between atoms: O_22  and  P_23 
REMARK    7  A    between atoms: P_23  and  O_24 
REMARK    8  A    between atoms: P_23  and  O_25 
ROOT
HETATM    1  C   UNK N   1      -0.067   0.549  -0.524  0.00  0.00     0.262 C 
HETATM    2  O   UNK N   1      -1.027   1.456  -0.024  0.00  0.00    -0.353 OA
HETATM    3  C   UNK N   1      -0.392  -0.815   0.049  0.00  0.00     0.198 C 
HETATM    4  C   UNK N   1      -2.097   0.666   0.447  0.00  0.00     0.180 C 
HETATM    5  C   UNK N   1      -1.870  -0.745  -0.041  0.00  0.00     0.182 C 
ENDROOT
BRANCH   1   6
HETATM    6  N   UNK N   1       1.296   1.019  -0.242  0.00  0.00    -0.297 N 
HETATM    7  C   UNK N   1       2.437   0.324  -0.114  0.00  0.00     0.159 A 
HETATM    8  C   UNK N   1       3.467   1.178   0.043  0.00  0.00     0.147 A 
HETATM    9  N   UNK N   1       2.607  -1.020  -0.147  0.00  0.00    -0.174 N 
HETATM   10  N   UNK N   1       3.018   2.446   0.024  0.00  0.00    -0.345 N 
HETATM   11  C   UNK N   1       4.759   0.696   0.174  0.00  0.00     0.290 A 
HETATM   12  C   UNK N   1       1.673   2.324  -0.161  0.00  0.00     0.188 A 
ATOM     13  HN  UNK N   1       3.560   3.303   0.124  1.00  0.00     0.167 HD
HETATM   14  N   UNK N   1       4.942  -0.670   0.148  0.00  0.00    -0.154 N 
HETATM   15  O   UNK N   1       5.707   1.448   0.299  0.00  0.00    -0.265 OA
HETATM   16  C   UNK N   1       3.873  -1.519  -0.008  0.00  0.00     0.680 A 
HETATM   17  H   UNK N   1       5.849  -1.041   0.242  0.00  0.00     0.187 HD
HETATM   18  N   UNK N   1       4.081  -2.912  -0.027  0.00  0.00    -0.234 N 
HETATM   19  H   UNK N   1       3.311  -3.525  -0.041  0.00  0.00     0.174 HD
HETATM   20  H   UNK N   1       4.997  -3.273  -0.027  0.00  0.00     0.174 HD
ATOM     21  HN  UNK N   1       1.810  -1.644  -0.272  1.00  0.00     0.186 HD
ENDBRANCH   1   6
BRANCH   3  22
HETATM   22  O   UNK N   1       0.085  -1.840  -0.768  0.00  0.00    -0.388 OA
HETATM   23  H   UNK N   1      -0.367  -2.484  -1.336  0.00  0.00     0.210 HD
ENDBRANCH   3  22
BRANCH   4  24
HETATM   24  C   UNK N   1      -3.416   1.217  -0.072  0.00  0.00     0.215 C 
BRANCH  24  25
HETATM   25  O   UNK N   1      -4.487   0.604   0.584  0.00  0.00    -0.294 OA
BRANCH  25  26
HETATM   26  P   UNK N   1      -5.673   0.313  -0.653  0.00  0.00     0.390 P 
HETATM   27  O   UNK N   1      -6.403   1.306   0.292  0.00  0.00    -0.632 OA
BRANCH  26  28
HETATM   28  O   UNK N   1      -5.312  -1.171   0.172  0.00  0.00    -0.307 OA
HETATM   29  H   UNK N   1      -5.929  -1.760   0.633  0.00  0.00     0.222 HD
ENDBRANCH  26  28
BRANCH  26  30
HETATM   30  O   UNK N   1      -7.132  -0.531  -0.240  0.00  0.00    -0.307 OA
HETATM   31  H   UNK N   1      -7.948  -0.061  -0.010  0.00  0.00     0.222 HD
ENDBRANCH  26  30
ENDBRANCH  25  26
ENDBRANCH  24  25
ENDBRANCH   4  24
BRANCH   5  32
HETATM   32  O   UNK N   1      -2.475  -1.689   0.789  0.00  0.00    -0.390 OA
HETATM   33  H   UNK N   1      -3.254  -1.653   1.366  0.00  0.00     0.210 HD
ENDBRANCH   5  32
TORSDOF 8
