MODEL 1
REMARK VINA RESULT:      -2.7      0.000      0.000
REMARK  1 active torsions:
REMARK  status: ('A' for Active; 'I' for Inactive)
REMARK    1  A    between atoms: O_1  and  C_2 
ROOT
HETATM    1  O   UNK N   1      17.972  26.184   7.166  0.00  0.00    -0.783 OA
HETATM    2  H   UNK N   1      17.756  25.276   7.079  0.00  0.00     0.166 HD
ENDROOT
BRANCH   1   3
HETATM    3  C   UNK N   1      17.272  26.964   8.009  0.00  0.00     0.274 C 
HETATM    4  O   UNK N   1      17.848  27.793   8.694  0.00  0.00    -0.657 OA
ENDBRANCH   1   3
TORSDOF 1
ENDMDL
MODEL 2
REMARK VINA RESULT:      -2.7     19.029     19.141
REMARK  1 active torsions:
REMARK  status: ('A' for Active; 'I' for Inactive)
REMARK    1  A    between atoms: O_1  and  C_2 
ROOT
HETATM    1  O   UNK N   1      35.373  19.312   8.582  0.00  0.00    -0.783 OA
HETATM    2  H   UNK N   1      36.204  19.074   8.945  0.00  0.00     0.166 HD
ENDROOT
BRANCH   1   3
HETATM    3  C   UNK N   1      34.537  18.358   8.132  0.00  0.00     0.274 C 
HETATM    4  O   UNK N   1      34.509  18.081   6.945  0.00  0.00    -0.657 OA
ENDBRANCH   1   3
TORSDOF 1
ENDMDL
MODEL 3
REMARK VINA RESULT:      -2.6      2.720      2.823
REMARK  1 active torsions:
REMARK  status: ('A' for Active; 'I' for Inactive)
REMARK    1  A    between atoms: O_1  and  C_2 
ROOT
HETATM    1  O   UNK N   1      19.189  25.092  10.587  0.00  0.00    -0.783 OA
HETATM    2  H   UNK N   1      19.569  24.996  11.439  0.00  0.00     0.166 HD
ENDROOT
BRANCH   1   3
HETATM    3  C   UNK N   1      18.751  26.296  10.177  0.00  0.00     0.274 C 
HETATM    4  O   UNK N   1      18.386  26.454   9.024  0.00  0.00    -0.657 OA
ENDBRANCH   1   3
TORSDOF 1
ENDMDL
MODEL 4
REMARK VINA RESULT:      -2.5      9.859     10.132
REMARK  1 active torsions:
REMARK  status: ('A' for Active; 'I' for Inactive)
REMARK    1  A    between atoms: O_1  and  C_2 
ROOT
HETATM    1  O   UNK N   1      20.631  20.586  -0.127  0.00  0.00    -0.783 OA
HETATM    2  H   UNK N   1      19.815  20.906  -0.460  0.00  0.00     0.166 HD
ENDROOT
BRANCH   1   3
HETATM    3  C   UNK N   1      20.821  20.485   1.201  0.00  0.00     0.274 C 
HETATM    4  O   UNK N   1      21.913  20.739   1.683  0.00  0.00    -0.657 OA
ENDBRANCH   1   3
TORSDOF 1
ENDMDL
MODEL 5
REMARK VINA RESULT:      -2.4     20.981     21.199
REMARK  1 active torsions:
REMARK  status: ('A' for Active; 'I' for Inactive)
REMARK    1  A    between atoms: O_1  and  C_2 
ROOT
HETATM    1  O   UNK N   1      36.936  16.064  10.890  0.00  0.00    -0.783 OA
HETATM    2  H   UNK N   1      37.307  15.507  10.235  0.00  0.00     0.166 HD
ENDROOT
BRANCH   1   3
HETATM    3  C   UNK N   1      35.677  16.520  10.752  0.00  0.00     0.274 C 
HETATM    4  O   UNK N   1      35.471  17.589  10.203  0.00  0.00    -0.657 OA
ENDBRANCH   1   3
TORSDOF 1
ENDMDL
MODEL 6
REMARK VINA RESULT:      -2.4     17.177     17.611
REMARK  1 active torsions:
REMARK  status: ('A' for Active; 'I' for Inactive)
REMARK    1  A    between atoms: O_1  and  C_2 
ROOT
HETATM    1  O   UNK N   1      32.129  21.469  -2.236  0.00  0.00    -0.783 OA
HETATM    2  H   UNK N   1      33.032  21.656  -2.404  0.00  0.00     0.166 HD
ENDROOT
BRANCH   1   3
HETATM    3  C   UNK N   1      31.185  22.377  -2.546  0.00  0.00     0.274 C 
HETATM    4  O   UNK N   1      30.624  23.002  -1.661  0.00  0.00    -0.657 OA
ENDBRANCH   1   3
TORSDOF 1
ENDMDL
MODEL 7
REMARK VINA RESULT:      -2.3     16.786     16.844
REMARK  1 active torsions:
REMARK  status: ('A' for Active; 'I' for Inactive)
REMARK    1  A    between atoms: O_1  and  C_2 
ROOT
HETATM    1  O   UNK N   1      24.282  12.167  12.118  0.00  0.00    -0.783 OA
HETATM    2  H   UNK N   1      24.772  11.431  11.808  0.00  0.00     0.166 HD
ENDROOT
BRANCH   1   3
HETATM    3  C   UNK N   1      23.401  12.014  13.124  0.00  0.00     0.274 C 
HETATM    4  O   UNK N   1      23.697  12.366  14.254  0.00  0.00    -0.657 OA
ENDBRANCH   1   3
TORSDOF 1
ENDMDL
MODEL 8
REMARK VINA RESULT:      -2.3      8.359      8.508
REMARK  1 active torsions:
REMARK  status: ('A' for Active; 'I' for Inactive)
REMARK    1  A    between atoms: O_1  and  C_2 
ROOT
HETATM    1  O   UNK N   1      21.875  21.644   2.701  0.00  0.00    -0.783 OA
HETATM    2  H   UNK N   1      21.735  22.408   2.177  0.00  0.00     0.166 HD
ENDROOT
BRANCH   1   3
HETATM    3  C   UNK N   1      20.910  20.711   2.802  0.00  0.00     0.274 C 
HETATM    4  O   UNK N   1      20.324  20.551   3.860  0.00  0.00    -0.657 OA
ENDBRANCH   1   3
TORSDOF 1
ENDMDL
MODEL 9
REMARK VINA RESULT:      -2.1     13.743     14.014
REMARK  1 active torsions:
REMARK  status: ('A' for Active; 'I' for Inactive)
REMARK    1  A    between atoms: O_1  and  C_2 
ROOT
HETATM    1  O   UNK N   1      27.525  18.108   9.397  0.00  0.00    -0.783 OA
HETATM    2  H   UNK N   1      27.030  18.518  10.079  0.00  0.00     0.166 HD
ENDROOT
BRANCH   1   3
HETATM    3  C   UNK N   1      28.819  18.432   9.216  0.00  0.00     0.274 C 
HETATM    4  O   UNK N   1      29.510  18.740  10.172  0.00  0.00    -0.657 OA
ENDBRANCH   1   3
TORSDOF 1
ENDMDL
