MODEL 1
REMARK VINA RESULT:      -3.5      0.000      0.000
REMARK  3 active torsions:
REMARK  status: ('A' for Active; 'I' for Inactive)
REMARK    1  A    between atoms: C_2  and  C_3 
REMARK    2  A    between atoms: C_3  and  C_4 
REMARK    3  A    between atoms: C_4  and  C_5 
ROOT
HETATM    1  C   UNK N   1      21.944  12.220  10.977  0.00  0.00     0.006 C 
ENDROOT
BRANCH   1   2
HETATM    2  C   UNK N   1      22.033  13.379  10.011  0.00  0.00    -0.004 C 
HETATM    3  C   UNK N   1      20.647  13.947   9.806  0.00  0.00     0.005 C 
ENDBRANCH   1   2
BRANCH   1   4
HETATM    4  C   UNK N   1      23.277  12.016  11.658  0.00  0.00     0.069 C 
BRANCH   4   5
HETATM    5  C   UNK N   1      23.038  11.790  13.110  0.00  0.00     0.231 C 
HETATM    6  O   UNK N   1      23.796  12.261  13.932  0.00  0.00    -0.307 OA
ENDBRANCH   4   5
ENDBRANCH   1   4
TORSDOF 3
ENDMDL
MODEL 2
REMARK VINA RESULT:      -3.4      2.622      3.988
REMARK  3 active torsions:
REMARK  status: ('A' for Active; 'I' for Inactive)
REMARK    1  A    between atoms: C_2  and  C_3 
REMARK    2  A    between atoms: C_3  and  C_4 
REMARK    3  A    between atoms: C_4  and  C_5 
ROOT
HETATM    1  C   UNK N   1      21.495  12.286  11.143  0.00  0.00     0.006 C 
ENDROOT
BRANCH   1   2
HETATM    2  C   UNK N   1      22.932  11.927  11.440  0.00  0.00    -0.004 C 
HETATM    3  C   UNK N   1      23.126  11.904  12.940  0.00  0.00     0.005 C 
ENDBRANCH   1   2
BRANCH   1   4
HETATM    4  C   UNK N   1      21.375  12.792   9.725  0.00  0.00     0.069 C 
BRANCH   4   5
HETATM    5  C   UNK N   1      20.673  14.104   9.747  0.00  0.00     0.231 C 
HETATM    6  O   UNK N   1      19.460  14.146   9.742  0.00  0.00    -0.307 OA
ENDBRANCH   4   5
ENDBRANCH   1   4
TORSDOF 3
ENDMDL
MODEL 3
REMARK VINA RESULT:      -3.1     11.984     12.391
REMARK  3 active torsions:
REMARK  status: ('A' for Active; 'I' for Inactive)
REMARK    1  A    between atoms: C_2  and  C_3 
REMARK    2  A    between atoms: C_3  and  C_4 
REMARK    3  A    between atoms: C_4  and  C_5 
ROOT
HETATM    1  C   UNK N   1      32.401  17.341   7.399  0.00  0.00     0.006 C 
ENDROOT
BRANCH   1   2
HETATM    2  C   UNK N   1      30.919  17.289   7.688  0.00  0.00    -0.004 C 
HETATM    3  C   UNK N   1      30.614  18.237   8.827  0.00  0.00     0.005 C 
ENDBRANCH   1   2
BRANCH   1   4
HETATM    4  C   UNK N   1      33.076  18.297   8.354  0.00  0.00     0.069 C 
BRANCH   4   5
HETATM    5  C   UNK N   1      34.542  18.267   8.097  0.00  0.00     0.231 C 
HETATM    6  O   UNK N   1      35.246  19.179   8.480  0.00  0.00    -0.307 OA
ENDBRANCH   4   5
ENDBRANCH   1   4
TORSDOF 3
ENDMDL
MODEL 4
REMARK VINA RESULT:      -3.1     12.799     13.215
REMARK  3 active torsions:
REMARK  status: ('A' for Active; 'I' for Inactive)
REMARK    1  A    between atoms: C_2  and  C_3 
REMARK    2  A    between atoms: C_3  and  C_4 
REMARK    3  A    between atoms: C_4  and  C_5 
ROOT
HETATM    1  C   UNK N   1      32.524  17.465   7.114  0.00  0.00     0.006 C 
ENDROOT
BRANCH   1   2
HETATM    2  C   UNK N   1      31.942  17.209   5.744  0.00  0.00    -0.004 C 
HETATM    3  C   UNK N   1      32.983  17.555   4.702  0.00  0.00     0.005 C 
ENDBRANCH   1   2
BRANCH   1   4
HETATM    4  C   UNK N   1      34.021  17.639   7.010  0.00  0.00     0.069 C 
BRANCH   4   5
HETATM    5  C   UNK N   1      34.532  18.141   8.316  0.00  0.00     0.231 C 
HETATM    6  O   UNK N   1      35.107  19.208   8.375  0.00  0.00    -0.307 OA
ENDBRANCH   4   5
ENDBRANCH   1   4
TORSDOF 3
ENDMDL
MODEL 5
REMARK VINA RESULT:      -3.1     14.007     14.782
REMARK  3 active torsions:
REMARK  status: ('A' for Active; 'I' for Inactive)
REMARK    1  A    between atoms: C_2  and  C_3 
REMARK    2  A    between atoms: C_3  and  C_4 
REMARK    3  A    between atoms: C_4  and  C_5 
ROOT
HETATM    1  C   UNK N   1      35.126  13.036  16.059  0.00  0.00     0.006 C 
ENDROOT
BRANCH   1   2
HETATM    2  C   UNK N   1      35.202  12.519  17.477  0.00  0.00    -0.004 C 
HETATM    3  C   UNK N   1      35.182  13.697  18.425  0.00  0.00     0.005 C 
ENDBRANCH   1   2
BRANCH   1   4
HETATM    4  C   UNK N   1      36.502  13.023  15.435  0.00  0.00     0.069 C 
BRANCH   4   5
HETATM    5  C   UNK N   1      36.895  14.425  15.124  0.00  0.00     0.231 C 
HETATM    6  O   UNK N   1      37.594  15.048  15.897  0.00  0.00    -0.307 OA
ENDBRANCH   4   5
ENDBRANCH   1   4
TORSDOF 3
ENDMDL
MODEL 6
REMARK VINA RESULT:      -3.0     11.886     12.743
REMARK  3 active torsions:
REMARK  status: ('A' for Active; 'I' for Inactive)
REMARK    1  A    between atoms: C_2  and  C_3 
REMARK    2  A    between atoms: C_3  and  C_4 
REMARK    3  A    between atoms: C_4  and  C_5 
ROOT
HETATM    1  C   UNK N   1      22.356  19.950   3.038  0.00  0.00     0.006 C 
ENDROOT
BRANCH   1   2
HETATM    2  C   UNK N   1      23.706  20.615   2.905  0.00  0.00    -0.004 C 
HETATM    3  C   UNK N   1      24.743  19.748   3.584  0.00  0.00     0.005 C 
ENDBRANCH   1   2
BRANCH   1   4
HETATM    4  C   UNK N   1      21.287  20.838   2.446  0.00  0.00     0.069 C 
BRANCH   4   5
HETATM    5  C   UNK N   1      20.855  20.256   1.145  0.00  0.00     0.231 C 
HETATM    6  O   UNK N   1      21.204  20.770   0.102  0.00  0.00    -0.307 OA
ENDBRANCH   4   5
ENDBRANCH   1   4
TORSDOF 3
ENDMDL
MODEL 7
REMARK VINA RESULT:      -3.0     11.442     12.041
REMARK  3 active torsions:
REMARK  status: ('A' for Active; 'I' for Inactive)
REMARK    1  A    between atoms: C_2  and  C_3 
REMARK    2  A    between atoms: C_3  and  C_4 
REMARK    3  A    between atoms: C_4  and  C_5 
ROOT
HETATM    1  C   UNK N   1      26.566  19.986   3.707  0.00  0.00     0.006 C 
ENDROOT
BRANCH   1   2
HETATM    2  C   UNK N   1      26.441  20.830   4.954  0.00  0.00    -0.004 C 
HETATM    3  C   UNK N   1      27.517  20.413   5.932  0.00  0.00     0.005 C 
ENDBRANCH   1   2
BRANCH   1   4
HETATM    4  C   UNK N   1      25.565  20.447   2.675  0.00  0.00     0.069 C 
BRANCH   4   5
HETATM    5  C   UNK N   1      24.208  20.425   3.288  0.00  0.00     0.231 C 
HETATM    6  O   UNK N   1      23.372  21.236   2.947  0.00  0.00    -0.307 OA
ENDBRANCH   4   5
ENDBRANCH   1   4
TORSDOF 3
ENDMDL
MODEL 8
REMARK VINA RESULT:      -3.0     19.791     20.944
REMARK  3 active torsions:
REMARK  status: ('A' for Active; 'I' for Inactive)
REMARK    1  A    between atoms: C_2  and  C_3 
REMARK    2  A    between atoms: C_3  and  C_4 
REMARK    3  A    between atoms: C_4  and  C_5 
ROOT
HETATM    1  C   UNK N   1      26.312  26.897  -3.268  0.00  0.00     0.006 C 
ENDROOT
BRANCH   1   2
HETATM    2  C   UNK N   1      25.568  27.998  -3.988  0.00  0.00    -0.004 C 
HETATM    3  C   UNK N   1      26.311  29.299  -3.783  0.00  0.00     0.005 C 
ENDBRANCH   1   2
BRANCH   1   4
HETATM    4  C   UNK N   1      26.292  25.636  -4.100  0.00  0.00     0.069 C 
BRANCH   4   5
HETATM    5  C   UNK N   1      27.226  24.651  -3.490  0.00  0.00     0.231 C 
HETATM    6  O   UNK N   1      26.838  23.904  -2.615  0.00  0.00    -0.307 OA
ENDBRANCH   4   5
ENDBRANCH   1   4
TORSDOF 3
ENDMDL
MODEL 9
REMARK VINA RESULT:      -2.9     18.841     19.347
REMARK  3 active torsions:
REMARK  status: ('A' for Active; 'I' for Inactive)
REMARK    1  A    between atoms: C_2  and  C_3 
REMARK    2  A    between atoms: C_3  and  C_4 
REMARK    3  A    between atoms: C_4  and  C_5 
ROOT
HETATM    1  C   UNK N   1      27.715  23.793  -2.738  0.00  0.00     0.006 C 
ENDROOT
BRANCH   1   2
HETATM    2  C   UNK N   1      26.777  24.326  -3.795  0.00  0.00    -0.004 C 
HETATM    3  C   UNK N   1      26.598  25.813  -3.579  0.00  0.00     0.005 C 
ENDBRANCH   1   2
BRANCH   1   4
HETATM    4  C   UNK N   1      29.129  23.775  -3.270  0.00  0.00     0.069 C 
BRANCH   4   5
HETATM    5  C   UNK N   1      29.913  22.771  -2.499  0.00  0.00     0.231 C 
HETATM    6  O   UNK N   1      30.373  23.060  -1.414  0.00  0.00    -0.307 OA
ENDBRANCH   4   5
ENDBRANCH   1   4
TORSDOF 3
ENDMDL
