MODEL 1
REMARK VINA RESULT:      -2.2      0.000      0.000
REMARK  2 active torsions:
REMARK  status: ('A' for Active; 'I' for Inactive)
REMARK    1  A    between atoms: N_3  and  C_1 
REMARK    2  A    between atoms: S_4  and  C_2 
ROOT
HETATM    1  C   UNK N   1      24.131  11.990  11.537  0.00  0.00     0.087 C 
HETATM    2  C   UNK N   1      22.838  12.122  11.208  0.00  0.00     0.058 C 
ENDROOT
BRANCH   1   3
HETATM    3  N   UNK N   1      25.126  12.753  10.892  0.00  0.00    -0.407 N 
HETATM    4  H   UNK N   1      25.000  13.036   9.958  0.00  0.00     0.155 HD
HETATM    5  H   UNK N   1      25.945  13.003  11.377  0.00  0.00     0.155 HD
ENDBRANCH   1   3
BRANCH   2   6
HETATM    6  S   UNK N   1      22.319  13.276   9.933  0.00  0.00    -0.153 SA
HETATM    7  H   UNK N   1      21.395  12.898   9.009  0.00  0.00     0.106 HD
ENDBRANCH   2   6
TORSDOF 2
ENDMDL
MODEL 2
REMARK VINA RESULT:      -2.2     12.153     12.310
REMARK  2 active torsions:
REMARK  status: ('A' for Active; 'I' for Inactive)
REMARK    1  A    between atoms: N_3  and  C_1 
REMARK    2  A    between atoms: S_4  and  C_2 
ROOT
HETATM    1  C   UNK N   1      20.864  20.956   1.826  0.00  0.00     0.087 C 
HETATM    2  C   UNK N   1      20.573  20.156   2.861  0.00  0.00     0.058 C 
ENDROOT
BRANCH   1   3
HETATM    3  N   UNK N   1      20.429  20.643   0.522  0.00  0.00    -0.407 N 
HETATM    4  H   UNK N   1      20.148  19.726   0.304  0.00  0.00     0.155 HD
HETATM    5  H   UNK N   1      20.407  21.342  -0.170  0.00  0.00     0.155 HD
ENDBRANCH   1   3
BRANCH   2   6
HETATM    6  S   UNK N   1      19.617  18.653   2.630  0.00  0.00    -0.153 SA
HETATM    7  H   UNK N   1      20.242  17.496   2.280  0.00  0.00     0.106 HD
ENDBRANCH   2   6
TORSDOF 2
ENDMDL
MODEL 3
REMARK VINA RESULT:      -2.1     23.096     23.230
REMARK  2 active torsions:
REMARK  status: ('A' for Active; 'I' for Inactive)
REMARK    1  A    between atoms: N_3  and  C_1 
REMARK    2  A    between atoms: S_4  and  C_2 
ROOT
HETATM    1  C   UNK N   1      43.482  22.523   3.817  0.00  0.00     0.087 C 
HETATM    2  C   UNK N   1      42.689  22.019   2.862  0.00  0.00     0.058 C 
ENDROOT
BRANCH   1   3
HETATM    3  N   UNK N   1      43.586  23.915   4.015  0.00  0.00    -0.407 N 
HETATM    4  H   UNK N   1      44.210  24.444   3.468  0.00  0.00     0.155 HD
HETATM    5  H   UNK N   1      43.034  24.357   4.699  0.00  0.00     0.155 HD
ENDBRANCH   1   3
BRANCH   2   6
HETATM    6  S   UNK N   1      41.725  23.095   1.794  0.00  0.00    -0.153 SA
HETATM    7  H   UNK N   1      40.432  23.381   2.105  0.00  0.00     0.106 HD
ENDBRANCH   2   6
TORSDOF 2
ENDMDL
MODEL 4
REMARK VINA RESULT:      -2.1      1.850      1.850
REMARK  2 active torsions:
REMARK  status: ('A' for Active; 'I' for Inactive)
REMARK    1  A    between atoms: N_3  and  C_1 
REMARK    2  A    between atoms: S_4  and  C_2 
ROOT
HETATM    1  C   UNK N   1      23.438  11.974  11.601  0.00  0.00     0.087 C 
HETATM    2  C   UNK N   1      22.987  12.586  10.497  0.00  0.00     0.058 C 
ENDROOT
BRANCH   1   3
HETATM    3  N   UNK N   1      22.550  11.555  12.613  0.00  0.00    -0.407 N 
HETATM    4  H   UNK N   1      21.697  11.126  12.372  0.00  0.00     0.155 HD
HETATM    5  H   UNK N   1      22.782  11.692  13.559  0.00  0.00     0.155 HD
ENDBRANCH   1   3
BRANCH   2   6
HETATM    6  S   UNK N   1      21.234  12.898  10.260  0.00  0.00    -0.153 SA
HETATM    7  H   UNK N   1      20.458  11.974   9.632  0.00  0.00     0.106 HD
ENDBRANCH   2   6
TORSDOF 2
ENDMDL
MODEL 5
REMARK VINA RESULT:      -2.1     11.186     11.217
REMARK  2 active torsions:
REMARK  status: ('A' for Active; 'I' for Inactive)
REMARK    1  A    between atoms: N_3  and  C_1 
REMARK    2  A    between atoms: S_4  and  C_2 
ROOT
HETATM    1  C   UNK N   1      19.728  18.133   2.993  0.00  0.00     0.087 C 
HETATM    2  C   UNK N   1      20.827  18.868   3.214  0.00  0.00     0.058 C 
ENDROOT
BRANCH   1   3
HETATM    3  N   UNK N   1      18.633  18.660   2.279  0.00  0.00    -0.407 N 
HETATM    4  H   UNK N   1      18.200  19.490   2.585  0.00  0.00     0.155 HD
HETATM    5  H   UNK N   1      18.302  18.199   1.475  0.00  0.00     0.155 HD
ENDBRANCH   1   3
BRANCH   2   6
HETATM    6  S   UNK N   1      20.950  20.555   2.609  0.00  0.00    -0.153 SA
HETATM    7  H   UNK N   1      19.985  21.462   2.922  0.00  0.00     0.106 HD
ENDBRANCH   2   6
TORSDOF 2
ENDMDL
MODEL 6
REMARK VINA RESULT:      -2.0     12.116     12.116
REMARK  2 active torsions:
REMARK  status: ('A' for Active; 'I' for Inactive)
REMARK    1  A    between atoms: N_3  and  C_1 
REMARK    2  A    between atoms: S_4  and  C_2 
ROOT
HETATM    1  C   UNK N   1      34.905  16.099   9.785  0.00  0.00     0.087 C 
HETATM    2  C   UNK N   1      34.544  16.441   8.541  0.00  0.00     0.058 C 
ENDROOT
BRANCH   1   3
HETATM    3  N   UNK N   1      35.090  17.078  10.783  0.00  0.00    -0.407 N 
HETATM    4  H   UNK N   1      34.319  17.587  11.121  0.00  0.00     0.155 HD
HETATM    5  H   UNK N   1      35.990  17.252  11.140  0.00  0.00     0.155 HD
ENDBRANCH   1   3
BRANCH   2   6
HETATM    6  S   UNK N   1      34.281  18.161   8.092  0.00  0.00    -0.153 SA
HETATM    7  H   UNK N   1      34.805  18.649   6.935  0.00  0.00     0.106 HD
ENDBRANCH   2   6
TORSDOF 2
ENDMDL
MODEL 7
REMARK VINA RESULT:      -2.0      8.250      8.406
REMARK  2 active torsions:
REMARK  status: ('A' for Active; 'I' for Inactive)
REMARK    1  A    between atoms: N_3  and  C_1 
REMARK    2  A    between atoms: S_4  and  C_2 
ROOT
HETATM    1  C   UNK N   1      29.104  18.431   9.526  0.00  0.00     0.087 C 
HETATM    2  C   UNK N   1      30.072  17.942   8.738  0.00  0.00     0.058 C 
ENDROOT
BRANCH   1   3
HETATM    3  N   UNK N   1      27.756  18.411   9.115  0.00  0.00    -0.407 N 
HETATM    4  H   UNK N   1      27.439  19.049   8.436  0.00  0.00     0.155 HD
HETATM    5  H   UNK N   1      27.131  17.760   9.508  0.00  0.00     0.155 HD
ENDBRANCH   1   3
BRANCH   2   6
HETATM    6  S   UNK N   1      29.693  17.244   7.127  0.00  0.00    -0.153 SA
HETATM    7  H   UNK N   1      29.137  16.005   7.037  0.00  0.00     0.106 HD
ENDBRANCH   2   6
TORSDOF 2
ENDMDL
MODEL 8
REMARK VINA RESULT:      -2.0      9.905      9.928
REMARK  2 active torsions:
REMARK  status: ('A' for Active; 'I' for Inactive)
REMARK    1  A    between atoms: N_3  and  C_1 
REMARK    2  A    between atoms: S_4  and  C_2 
ROOT
HETATM    1  C   UNK N   1      26.475  21.508   6.796  0.00  0.00     0.087 C 
HETATM    2  C   UNK N   1      27.324  20.807   6.031  0.00  0.00     0.058 C 
ENDROOT
BRANCH   1   3
HETATM    3  N   UNK N   1      25.959  20.966   7.991  0.00  0.00    -0.407 N 
HETATM    4  H   UNK N   1      26.508  20.351   8.530  0.00  0.00     0.155 HD
HETATM    5  H   UNK N   1      25.051  21.202   8.286  0.00  0.00     0.155 HD
ENDBRANCH   1   3
BRANCH   2   6
HETATM    6  S   UNK N   1      27.839  19.150   6.495  0.00  0.00    -0.153 SA
HETATM    7  H   UNK N   1      28.306  18.909   7.750  0.00  0.00     0.106 HD
ENDBRANCH   2   6
TORSDOF 2
ENDMDL
MODEL 9
REMARK VINA RESULT:      -1.9      8.302      8.418
REMARK  2 active torsions:
REMARK  status: ('A' for Active; 'I' for Inactive)
REMARK    1  A    between atoms: N_3  and  C_1 
REMARK    2  A    between atoms: S_4  and  C_2 
ROOT
HETATM    1  C   UNK N   1      28.314  17.943   7.986  0.00  0.00     0.087 C 
HETATM    2  C   UNK N   1      28.309  18.591   6.813  0.00  0.00     0.058 C 
ENDROOT
BRANCH   1   3
HETATM    3  N   UNK N   1      27.644  18.469   9.110  0.00  0.00    -0.407 N 
HETATM    4  H   UNK N   1      26.799  18.065   9.412  0.00  0.00     0.155 HD
HETATM    5  H   UNK N   1      28.021  19.240   9.591  0.00  0.00     0.155 HD
ENDBRANCH   1   3
BRANCH   2   6
HETATM    6  S   UNK N   1      27.448  20.156   6.623  0.00  0.00    -0.153 SA
HETATM    7  H   UNK N   1      28.016  21.305   7.082  0.00  0.00     0.106 HD
ENDBRANCH   2   6
TORSDOF 2
ENDMDL
