REMARK  13 active torsions:
REMARK  status: ('A' for Active; 'I' for Inactive)
REMARK    1  A    between atoms: C_2  and  C_1 
REMARK    2  A    between atoms: C_6  and  C_1 
REMARK    3  A    between atoms: C_7  and  C_2 
REMARK    4  A    between atoms: C_6  and  C_3 
REMARK    5  A    between atoms: C_8  and  C_3 
REMARK    6  A    between atoms: C_6  and  N_16 
REMARK    7  A    between atoms: C_15  and  C_7 
REMARK    8  A    between atoms: C_7  and  N_17 
REMARK    9  A    between atoms: C_10  and  O_26 
REMARK   10  A    between atoms: C_11  and  O_27 
REMARK   11  A    between atoms: N_18  and  C_12 
REMARK   12  A    between atoms: C_14  and  N_25 
REMARK   13  A    between atoms: O_29  and  C_15 
ROOT
HETATM    1  C   UNK N   1       4.567   6.556  -0.130  0.00  0.00     0.157 C 
HETATM    2  C   UNK N   1       6.015   6.062  -0.326  0.00  0.00     0.180 C 
HETATM    3  C   UNK N   1       6.821   7.345  -0.201  0.00  0.00     0.198 C 
HETATM    4  C   UNK N   1       5.761   8.367  -0.583  0.00  0.00     0.262 C 
HETATM    5  O   UNK N   1       4.630   7.943   0.137  0.00  0.00    -0.355 OA
ENDROOT
BRANCH   1   6
HETATM    6  C   UNK N   1       3.741   5.798   0.926  0.00  0.00     0.059 C 
BRANCH   6   7
HETATM    7  C   UNK N   1       2.293   6.308   1.029  0.00  0.00     0.076 C 
BRANCH   7   8
HETATM    8  C   UNK N   1       1.579   6.165  -0.326  0.00  0.00     0.027 C 
BRANCH   8   9
HETATM    9  C   UNK N   1       0.382   7.085  -0.611  0.00  0.00     0.037 C 
BRANCH   9  10
HETATM   10  C   UNK N   1      -0.642   7.262   0.511  0.00  0.00     0.173 C 
BRANCH  10  11
HETATM   11  C   UNK N   1      -1.808   8.048  -0.013  0.00  0.00     0.163 C 
HETATM   12  O   UNK N   1      -2.488   7.606  -0.927  0.00  0.00    -0.648 OA
BRANCH  11  13
HETATM   13  O   UNK N   1      -2.108   9.248   0.520  0.00  0.00    -0.775 OA
HETATM   14  H   UNK N   1      -1.489   9.846   0.891  0.00  0.00     0.167 HD
ENDBRANCH  11  13
ENDBRANCH  10  11
BRANCH  10  15
HETATM   15  N   UNK N   1      -1.101   5.971   0.995  0.00  0.00    -0.418 N 
HETATM   16  H   UNK N   1      -2.047   5.797   1.335  0.00  0.00     0.150 HD
HETATM   17  H   UNK N   1      -0.440   5.194   0.995  0.00  0.00     0.150 HD
ENDBRANCH  10  15
ENDBRANCH   9  10
ENDBRANCH   8   9
ENDBRANCH   7   8
BRANCH   7  18
HETATM   18  N   UNK N   1       2.304   7.687   1.489  0.00  0.00    -0.426 N 
HETATM   19  H   UNK N   1       3.145   8.165   1.812  0.00  0.00     0.150 HD
HETATM   20  H   UNK N   1       1.424   8.204   1.489  0.00  0.00     0.150 HD
ENDBRANCH   7  18
ENDBRANCH   6   7
ENDBRANCH   1   6
BRANCH   2  21
HETATM   21  O   UNK N   1       6.424   5.101   0.606  0.00  0.00    -0.390 OA
HETATM   22  H   UNK N   1       5.990   4.523   1.252  0.00  0.00     0.210 HD
ENDBRANCH   2  21
BRANCH   3  23
HETATM   23  O   UNK N   1       7.172   7.548   1.140  0.00  0.00    -0.388 OA
HETATM   24  H   UNK N   1       7.415   7.408   2.068  0.00  0.00     0.210 HD
ENDBRANCH   3  23
BRANCH   4  25
HETATM   25  N   UNK N   1       6.094   9.761  -0.259  0.00  0.00    -0.297 N 
HETATM   26  C   UNK N   1       5.187  10.764  -0.107  0.00  0.00     0.188 A 
HETATM   27  N   UNK N   1       5.797  11.963   0.105  0.00  0.00    -0.346 N 
HETATM   28  C   UNK N   1       7.111  11.681   0.057  0.00  0.00     0.122 A 
ATOM     29  HN  UNK N   1       5.357  12.869   0.265  1.00  0.00     0.167 HD
HETATM   30  C   UNK N   1       8.203  12.525   0.164  0.00  0.00     0.131 A 
HETATM   31  C   UNK N   1       7.290  10.362  -0.160  0.00  0.00     0.142 A 
HETATM   32  N   UNK N   1       9.449  11.978   0.043  0.00  0.00    -0.337 N 
HETATM   33  C   UNK N   1       9.611  10.632  -0.181  0.00  0.00     0.183 A 
ATOM     34  HN  UNK N   1      10.271  12.577   0.119  1.00  0.00     0.168 HD
HETATM   35  N   UNK N   1       8.521   9.810  -0.290  0.00  0.00    -0.336 N 
ATOM     36  HN  UNK N   1       8.632   8.811  -0.463  1.00  0.00     0.168 HD
BRANCH  30  37
HETATM   37  N   UNK N   1       8.043  13.910   0.372  0.00  0.00    -0.383 N 
HETATM   38  H   UNK N   1       8.824  14.491   0.518  0.00  0.00     0.157 HD
HETATM   39  H   UNK N   1       7.139  14.301   0.372  0.00  0.00     0.157 HD
ENDBRANCH  30  37
ENDBRANCH   4  25
TORSDOF 13
