REMARK  1 active torsions:
REMARK  status: ('A' for Active; 'I' for Inactive)
REMARK    1  A    between atoms: C_2  and  N_3 
ROOT
HETATM    1  N   UNK N   1       1.342   0.716   0.000  0.00  0.00    -0.289 N 
HETATM    2  C   UNK N   1       0.998  -0.573   0.000  0.00  0.00     0.226 A 
HETATM    3  O   UNK N   1       1.816  -1.480  -0.000  0.00  0.00    -0.273 OA
HETATM    4  C   UNK N   1      -0.482  -0.791   0.000  0.00  0.00     0.112 A 
HETATM    5  C   UNK N   1      -1.028   0.661   0.000  0.00  0.00     0.112 A 
HETATM    6  C   UNK N   1       0.232   1.474  -0.000  0.00  0.00     0.226 A 
HETATM    7  O   UNK N   1       0.237   2.695  -0.000  0.00  0.00    -0.273 OA
ENDROOT
BRANCH   1   8
HETATM    8  C   UNK N   1       2.739   1.145  -0.000  0.00  0.00     0.130 C 
HETATM    9  C   UNK N   1       2.966   2.648   0.000  0.00  0.00     0.027 C 
ENDBRANCH   1   8
TORSDOF 1
