REMARK  10 active torsions:
REMARK  status: ('A' for Active; 'I' for Inactive)
REMARK    1  A    between atoms: C_2  and  C_3 
REMARK    2  A    between atoms: C_9  and  C_10 
REMARK    3  A    between atoms: C_30  and  C_31 
REMARK    4  A    between atoms: C_31  and  C_32 
REMARK    5  A    between atoms: C_32  and  C_33 
REMARK    6  A    between atoms: C_33  and  O_34 
REMARK    7  A    between atoms: C_36  and  C_37 
REMARK    8  A    between atoms: C_37  and  C_38 
REMARK    9  A    between atoms: C_38  and  C_39 
REMARK   10  A    between atoms: C_39  and  O_40 
ROOT
HETATM    1  C   UNK N   1      -1.421  -1.867   0.127  0.00  0.00    -0.024 A 
HETATM    2  C   UNK N   1      -1.408  -0.537   0.242  0.00  0.00    -0.027 A 
HETATM    3  C   UNK N   1      -2.580   0.342   0.535  0.00  0.00     0.051 C 
HETATM    4  C   UNK N   1      -0.020  -0.125   0.053  0.00  0.00     0.041 A 
HETATM    5  C   UNK N   1       0.452   1.135   0.089  0.00  0.00     0.060 C 
HETATM    6  C   UNK N   1       1.886   1.500  -0.053  0.00  0.00     0.043 A 
HETATM    7  C   UNK N   1       2.344   2.676  -0.631  0.00  0.00    -0.023 A 
HETATM    8  C   UNK N   1       3.726   2.628  -0.591  0.00  0.00    -0.026 A 
HETATM    9  C   UNK N   1       4.665   3.670  -1.099  0.00  0.00     0.051 C 
HETATM   10  C   UNK N   1       4.070   1.432   0.014  0.00  0.00     0.043 A 
HETATM   11  C   UNK N   1       5.453   0.969   0.278  0.00  0.00     0.060 C 
HETATM   12  C   UNK N   1       5.824  -0.322   0.199  0.00  0.00     0.041 A 
HETATM   13  N   UNK N   1       5.002  -1.384  -0.240  0.00  0.00    -0.355 N 
ATOM     14  HN  UNK N   1       4.055  -1.299  -0.609  1.00  0.00     0.166 HD
HETATM   15  C   UNK N   1       5.661  -2.474  -0.092  0.00  0.00     0.041 A 
HETATM   16  C   UNK N   1       5.126  -3.824  -0.346  0.00  0.00     0.060 C 
HETATM   17  C   UNK N   1       3.835  -4.170  -0.461  0.00  0.00     0.041 A 
HETATM   18  N   UNK N   1       2.775  -3.333  -0.346  0.00  0.00    -0.355 N 
HETATM   19  C   UNK N   1       1.673  -4.118  -0.448  0.00  0.00     0.041 A 
HETATM   20  C   UNK N   1       0.402  -3.694  -0.350  0.00  0.00     0.060 C 
HETATM   21  C   UNK N   1      -0.035  -2.295  -0.152  0.00  0.00     0.041 A 
HETATM   22  N   UNK N   1       0.748  -1.281  -0.202  0.00  0.00    -0.355 N 
ATOM     23  HN  UNK N   1       1.749  -1.306  -0.392  1.00  0.00     0.166 HD
HETATM   24  C   UNK N   1       2.035  -5.440  -0.632  0.00  0.00    -0.027 A 
HETATM   25  C   UNK N   1       1.122  -6.614  -0.760  0.00  0.00     0.051 C 
HETATM   26  C   UNK N   1       3.409  -5.472  -0.643  0.00  0.00    -0.023 A 
HETATM   27  C   UNK N   1       6.995  -2.206   0.475  0.00  0.00    -0.023 A 
HETATM   28  C   UNK N   1       7.100  -0.883   0.634  0.00  0.00    -0.027 A 
HETATM   29  C   UNK N   1       8.247  -0.144   1.241  0.00  0.00     0.051 C 
HETATM   30  N   UNK N   1       2.943   0.772   0.373  0.00  0.00    -0.350 N 
HETATM   31  C   UNK N   1       2.889  -0.439   1.185  0.00  0.00     0.156 C 
HETATM   32  H   UNK N   1       2.800  -2.357  -0.215  0.00  0.00     0.166 HD
ENDROOT
BRANCH  26  33
HETATM   33  C   UNK N   1       4.273  -6.686  -0.790  0.00  0.00     0.052 C 
BRANCH  33  34
HETATM   34  C   UNK N   1       5.070  -6.923   0.482  0.00  0.00     0.115 C 
BRANCH  34  35
HETATM   35  C   UNK N   1       6.402  -7.509   0.154  0.00  0.00     0.139 C 
HETATM   36  O   UNK N   1       6.671  -8.643   0.512  0.00  0.00    -0.650 OA
BRANCH  35  37
HETATM   37  O   UNK N   1       7.315  -6.782  -0.518  0.00  0.00    -0.776 OA
HETATM   38  H   UNK N   1       8.070  -7.079  -0.986  0.00  0.00     0.167 HD
ENDBRANCH  35  37
ENDBRANCH  34  35
ENDBRANCH  33  34
ENDBRANCH  26  33
BRANCH  27  39
HETATM   39  C   UNK N   1       7.979  -3.262   0.908  0.00  0.00     0.052 C 
BRANCH  39  40
HETATM   40  C   UNK N   1       9.409  -3.026   0.443  0.00  0.00     0.115 C 
BRANCH  40  41
HETATM   41  C   UNK N   1       9.558  -3.196  -1.029  0.00  0.00     0.139 C 
HETATM   42  O   UNK N   1       9.982  -2.273  -1.703  0.00  0.00    -0.650 OA
BRANCH  41  43
HETATM   43  O   UNK N   1       9.258  -4.372  -1.612  0.00  0.00    -0.776 OA
HETATM   44  H   UNK N   1       8.445  -4.601  -2.018  0.00  0.00     0.167 HD
ENDBRANCH  41  43
ENDBRANCH  40  41
ENDBRANCH  39  40
ENDBRANCH  27  39
BRANCH   1  45
HETATM   45  C   UNK N   1      -2.618  -2.755   0.283  0.00  0.00     0.037 C 
HETATM   46  C   UNK N   1      -2.850  -3.572  -0.973  0.00  0.00     0.010 C 
ENDBRANCH   1  45
BRANCH   7  47
HETATM   47  C   UNK N   1       1.514   3.785  -1.193  0.00  0.00     0.037 C 
HETATM   48  C   UNK N   1       0.685   4.431  -0.097  0.00  0.00     0.010 C 
ENDBRANCH   7  47
TORSDOF 10
