REMARK  24 active torsions:
REMARK  status: ('A' for Active; 'I' for Inactive)
REMARK    1  A    between atoms: C_7  and  C_1 
REMARK    2  A    between atoms: O_37  and  C_1 
REMARK    3  A    between atoms: C_8  and  C_2 
REMARK    4  A    between atoms: O_38  and  C_2 
REMARK    5  A    between atoms: C_9  and  C_3 
REMARK    6  A    between atoms: O_39  and  C_3 
REMARK    7  A    between atoms: C_10  and  C_4 
REMARK    8  A    between atoms: O_40  and  C_4 
REMARK    9  A    between atoms: C_11  and  C_5 
REMARK   10  A    between atoms: O_41  and  C_5 
REMARK   11  A    between atoms: C_12  and  C_6 
REMARK   12  A    between atoms: O_42  and  C_6 
REMARK   13  A    between atoms: C_13  and  O_43 
REMARK   14  A    between atoms: C_14  and  O_44 
REMARK   15  A    between atoms: C_15  and  O_45 
REMARK   16  A    between atoms: C_16  and  O_46 
REMARK   17  A    between atoms: C_17  and  O_47 
REMARK   18  A    between atoms: C_18  and  O_48 
REMARK   19  A    between atoms: C_19  and  O_49 
REMARK   20  A    between atoms: C_20  and  O_50 
REMARK   21  A    between atoms: C_21  and  O_51 
REMARK   22  A    between atoms: C_22  and  O_52 
REMARK   23  A    between atoms: C_23  and  O_53 
REMARK   24  A    between atoms: C_24  and  O_54 
ROOT
HETATM    1  C   UNK N   1      12.619   5.830  -0.061  0.00  0.00     0.180 C 
HETATM    2  C   UNK N   1      14.082   1.198   1.396  0.00  0.00     0.180 C 
HETATM    3  C   UNK N   1       7.412   4.057  -1.675  0.00  0.00     0.180 C 
HETATM    4  C   UNK N   1      13.070  -2.282  -1.208  0.00  0.00     0.180 C 
HETATM    5  C   UNK N   1       4.106   0.064   0.183  0.00  0.00     0.180 C 
HETATM    6  C   UNK N   1       8.179  -4.508   0.376  0.00  0.00     0.180 C 
HETATM    7  C   UNK N   1      11.611   3.662  -0.737  0.00  0.00     0.183 C 
HETATM    8  C   UNK N   1       6.455   5.451   0.069  0.00  0.00     0.183 C 
HETATM    9  C   UNK N   1      15.925   1.683  -0.341  0.00  0.00     0.183 C 
HETATM   10  C   UNK N   1       6.081   0.203   1.710  0.00  0.00     0.183 C 
HETATM   11  C   UNK N   1      14.485  -4.082  -0.210  0.00  0.00     0.183 C 
HETATM   12  C   UNK N   1       9.505  -2.446   0.240  0.00  0.00     0.183 C 
HETATM   13  C   UNK N   1      12.948   3.325  -1.393  0.00  0.00     0.204 C 
HETATM   14  C   UNK N   1       7.886   5.958   0.397  0.00  0.00     0.204 C 
HETATM   15  C   UNK N   1      16.512   0.371   0.218  0.00  0.00     0.204 C 
HETATM   16  C   UNK N   1       6.453   1.282   0.698  0.00  0.00     0.204 C 
HETATM   17  C   UNK N   1      13.170  -4.850   0.205  0.00  0.00     0.204 C 
HETATM   18  C   UNK N   1       8.245  -1.742  -0.138  0.00  0.00     0.204 C 
HETATM   19  C   UNK N   1      11.378   5.205  -0.771  0.00  0.00     0.187 C 
HETATM   20  C   UNK N   1      15.015   2.283   0.787  0.00  0.00     0.187 C 
HETATM   21  C   UNK N   1       6.606   3.982  -0.360  0.00  0.00     0.187 C 
HETATM   22  C   UNK N   1      14.203  -2.562  -0.159  0.00  0.00     0.187 C 
HETATM   23  C   UNK N   1       5.165  -0.812   1.008  0.00  0.00     0.187 C 
HETATM   24  C   UNK N   1       9.485  -3.902  -0.262  0.00  0.00     0.187 C 
HETATM   25  C   UNK N   1      14.103   4.032  -0.676  0.00  0.00     0.292 C 
HETATM   26  C   UNK N   1       8.949   5.660  -0.727  0.00  0.00     0.292 C 
HETATM   27  C   UNK N   1      15.386  -0.649   0.575  0.00  0.00     0.292 C 
HETATM   28  C   UNK N   1       5.248   2.231   0.596  0.00  0.00     0.292 C 
HETATM   29  C   UNK N   1      11.903  -3.970  -0.026  0.00  0.00     0.292 C 
HETATM   30  C   UNK N   1       7.010  -2.425   0.498  0.00  0.00     0.292 C 
HETATM   31  O   UNK N   1      13.870   5.444  -0.646  0.00  0.00    -0.348 OA
HETATM   32  O   UNK N   1       8.752   4.417  -1.383  0.00  0.00    -0.348 OA
HETATM   33  O   UNK N   1      14.103  -0.018   0.668  0.00  0.00    -0.348 OA
HETATM   34  O   UNK N   1       4.011   1.478   0.513  0.00  0.00    -0.348 OA
HETATM   35  O   UNK N   1      12.064  -3.309  -1.277  0.00  0.00    -0.348 OA
HETATM   36  O   UNK N   1       6.994  -3.768   0.003  0.00  0.00    -0.348 OA
HETATM   37  O   UNK N   1      10.218   5.650  -0.054  0.00  0.00    -0.348 OA
HETATM   38  O   UNK N   1      14.323   3.536   0.638  0.00  0.00    -0.348 OA
HETATM   39  O   UNK N   1       5.376   3.224  -0.460  0.00  0.00    -0.348 OA
HETATM   40  O   UNK N   1      15.325  -1.710  -0.392  0.00  0.00    -0.348 OA
HETATM   41  O   UNK N   1       5.811  -1.731   0.078  0.00  0.00    -0.348 OA
HETATM   42  O   UNK N   1      10.664  -4.676   0.082  0.00  0.00    -0.348 OA
ENDROOT
BRANCH   1  43
HETATM   43  C   UNK N   1      12.604   5.570   1.454  0.00  0.00     0.198 C 
BRANCH  43  44
HETATM   44  O   UNK N   1      13.664   6.228   2.079  0.00  0.00    -0.398 OA
HETATM   45  H   UNK N   1      14.429   5.818   2.513  0.00  0.00     0.209 HD
ENDBRANCH  43  44
ENDBRANCH   1  43
BRANCH   7  46
HETATM   46  O   UNK N   1      10.652   2.948  -1.436  0.00  0.00    -0.390 OA
HETATM   47  H   UNK N   1       9.883   3.280  -1.925  0.00  0.00     0.210 HD
ENDBRANCH   7  46
BRANCH  13  48
HETATM   48  O   UNK N   1      12.933   3.723  -2.735  0.00  0.00    -0.388 OA
HETATM   49  H   UNK N   1      13.167   3.869  -3.665  0.00  0.00     0.210 HD
ENDBRANCH  13  48
BRANCH  14  50
HETATM   50  O   UNK N   1       8.297   5.334   1.584  0.00  0.00    -0.388 OA
HETATM   51  H   UNK N   1       8.066   4.872   2.405  0.00  0.00     0.210 HD
ENDBRANCH  14  50
BRANCH   8  52
HETATM   52  O   UNK N   1       5.645   5.557   1.203  0.00  0.00    -0.390 OA
HETATM   53  H   UNK N   1       5.428   6.081   1.990  0.00  0.00     0.210 HD
ENDBRANCH   8  52
BRANCH   3  54
HETATM   54  C   UNK N   1       7.433   2.760  -2.482  0.00  0.00     0.198 C 
BRANCH  54  55
HETATM   55  O   UNK N   1       8.386   1.860  -2.006  0.00  0.00    -0.398 OA
HETATM   56  H   UNK N   1       8.176   0.973  -1.675  0.00  0.00     0.209 HD
ENDBRANCH  54  55
ENDBRANCH   3  54
BRANCH   2  57
HETATM   57  C   UNK N   1      14.350   0.963   2.888  0.00  0.00     0.198 C 
BRANCH  57  58
HETATM   58  O   UNK N   1      13.456   0.024   3.404  0.00  0.00    -0.398 OA
HETATM   59  H   UNK N   1      12.580   0.237   3.763  0.00  0.00     0.209 HD
ENDBRANCH  57  58
ENDBRANCH   2  57
BRANCH   9  60
HETATM   60  O   UNK N   1      15.229   1.391  -1.515  0.00  0.00    -0.390 OA
HETATM   61  H   UNK N   1      14.812   1.709  -2.331  0.00  0.00     0.210 HD
ENDBRANCH   9  60
BRANCH  15  62
HETATM   62  O   UNK N   1      17.447  -0.187  -0.659  0.00  0.00    -0.388 OA
HETATM   63  H   UNK N   1      17.436  -0.942  -1.267  0.00  0.00     0.210 HD
ENDBRANCH  15  62
BRANCH  16  64
HETATM   64  O   UNK N   1       6.642   0.771  -0.588  0.00  0.00    -0.388 OA
HETATM   65  H   UNK N   1       6.400   0.480  -1.481  0.00  0.00     0.210 HD
ENDBRANCH  16  64
BRANCH  10  66
HETATM   66  O   UNK N   1       7.177  -0.359   2.365  0.00  0.00    -0.390 OA
HETATM   67  H   UNK N   1       7.220  -1.214   2.820  0.00  0.00     0.210 HD
ENDBRANCH  10  66
BRANCH   5  68
HETATM   68  C   UNK N   1       2.715  -0.552   0.299  0.00  0.00     0.198 C 
BRANCH  68  69
HETATM   69  O   UNK N   1       2.712  -1.870  -0.162  0.00  0.00    -0.398 OA
HETATM   70  H   UNK N   1       1.918  -2.325  -0.483  0.00  0.00     0.209 HD
ENDBRANCH  68  69
ENDBRANCH   5  68
BRANCH   4  71
HETATM   71  C   UNK N   1      13.643  -2.115  -2.613  0.00  0.00     0.198 C 
BRANCH  71  72
HETATM   72  O   UNK N   1      12.639  -1.691  -3.487  0.00  0.00    -0.398 OA
HETATM   73  H   UNK N   1      12.545  -0.940  -4.094  0.00  0.00     0.209 HD
ENDBRANCH  71  72
ENDBRANCH   4  71
BRANCH  11  74
HETATM   74  O   UNK N   1      14.869  -4.431  -1.512  0.00  0.00    -0.390 OA
HETATM   75  H   UNK N   1      14.792  -4.782  -2.413  0.00  0.00     0.210 HD
ENDBRANCH  11  74
BRANCH  17  76
HETATM   76  O   UNK N   1      13.076  -6.058  -0.493  0.00  0.00    -0.388 OA
HETATM   77  H   UNK N   1      12.318  -6.421  -0.977  0.00  0.00     0.210 HD
ENDBRANCH  17  76
BRANCH  18  78
HETATM   78  O   UNK N   1       8.467  -0.443   0.279  0.00  0.00    -0.388 OA
HETATM   79  H   UNK N   1       9.335  -0.123   0.571  0.00  0.00     0.210 HD
ENDBRANCH  18  78
BRANCH  12  80
HETATM   80  O   UNK N   1      10.505  -1.679  -0.332  0.00  0.00    -0.390 OA
HETATM   81  H   UNK N   1      11.321  -2.017  -0.732  0.00  0.00     0.210 HD
ENDBRANCH  12  80
BRANCH   6  82
HETATM   82  C   UNK N   1       7.974  -5.957  -0.061  0.00  0.00     0.198 C 
BRANCH  82  83
HETATM   83  O   UNK N   1       8.959  -6.788   0.480  0.00  0.00    -0.398 OA
HETATM   84  H   UNK N   1       8.801  -7.668   0.855  0.00  0.00     0.209 HD
ENDBRANCH  82  83
ENDBRANCH   6  82
TORSDOF 24
