REMARK  5 active torsions:
REMARK  status: ('A' for Active; 'I' for Inactive)
REMARK    1  A    between atoms: C_2  and  C_4 
REMARK    2  A    between atoms: C_2  and  C_6 
REMARK    3  A    between atoms: C_4  and  O_5 
REMARK    4  A    between atoms: C_6  and  O_7 
REMARK    5  A    between atoms: C_6  and  C_8 
ROOT
HETATM    1  C   UNK N   1       0.757  -0.671   0.622  0.00  0.00     0.020 C 
HETATM    2  C   UNK N   1       0.819   0.764   0.116  0.00  0.00     0.009 C 
HETATM    3  C   UNK N   1       0.701   1.709   1.307  0.00  0.00     0.020 C 
ENDROOT
BRANCH   2   4
HETATM    4  C   UNK N   1      -0.353   0.991  -0.839  0.00  0.00     0.176 C 
BRANCH   4   5
HETATM    5  O   UNK N   1      -1.577   0.694  -0.231  0.00  0.00    -0.400 OA
HETATM    6  H   UNK N   1      -2.180   1.326   0.190  0.00  0.00     0.209 HD
ENDBRANCH   4   5
ENDBRANCH   2   4
BRANCH   2   7
HETATM    7  C   UNK N   1       2.129   1.027  -0.663  0.00  0.00     0.228 C 
BRANCH   7   8
HETATM    8  O   UNK N   1       2.201   2.372  -1.047  0.00  0.00    -0.384 OA
HETATM    9  H   UNK N   1       3.033   2.794  -1.313  0.00  0.00     0.210 HD
ENDBRANCH   7   8
BRANCH   7  10
HETATM   10  C   UNK N   1       3.393   0.621   0.056  0.00  0.00     0.203 C 
HETATM   11  O   UNK N   1       4.329   1.541   0.366  0.00  0.00    -0.646 OA
HETATM   12  O   UNK N   1       3.598  -0.553   0.313  0.00  0.00    -0.646 OA
ENDBRANCH   7  10
ENDBRANCH   2   7
TORSDOF 5
