REMARK  10 active torsions:
REMARK  status: ('A' for Active; 'I' for Inactive)
REMARK    1  A    between atoms: C_3  and  C_2 
REMARK    2  A    between atoms: S_17  and  C_2 
REMARK    3  A    between atoms: C_7  and  C_3 
REMARK    4  A    between atoms: C_3  and  N_9 
REMARK    5  A    between atoms: C_6  and  C_4 
REMARK    6  A    between atoms: C_5  and  S_17 
REMARK    7  A    between atoms: C_8  and  C_6 
REMARK    8  A    between atoms: C_6  and  N_10 
REMARK    9  A    between atoms: O_13  and  C_7 
REMARK   10  A    between atoms: O_15  and  C_8 
ROOT
HETATM    1  C   UNK N   1       2.214   2.670  -1.228  0.00  0.00     0.048 A 
HETATM    2  C   UNK N   1       2.836   3.544  -0.484  0.00  0.00     0.107 A 
HETATM    3  C   UNK N   1       0.808   3.144  -1.369  0.00  0.00     0.193 A 
HETATM    4  N   UNK N   1       0.754   4.365  -0.537  0.00  0.00    -0.279 N 
HETATM    5  O   UNK N   1       2.012   4.521  -0.102  0.00  0.00    -0.243 OA
HETATM    6  H   UNK N   1      -0.055   4.954  -0.339  0.00  0.00     0.189 HD
ENDROOT
BRANCH   3   7
HETATM    7  S   UNK N   1      -0.341   1.863  -0.769  0.00  0.00    -0.135 SA
BRANCH   7   8
HETATM    8  C   UNK N   1      -1.842   2.907  -0.828  0.00  0.00     0.112 C 
BRANCH   8   9
HETATM    9  C   UNK N   1      -2.566   2.869   0.516  0.00  0.00     0.182 C 
BRANCH   9  10
HETATM   10  C   UNK N   1      -3.781   3.751   0.497  0.00  0.00     0.163 C 
HETATM   11  O   UNK N   1      -4.687   3.537  -0.295  0.00  0.00    -0.648 OA
BRANCH  10  12
HETATM   12  O   UNK N   1      -3.888   4.768   1.373  0.00  0.00    -0.775 OA
HETATM   13  H   UNK N   1      -3.313   5.186   1.983  0.00  0.00     0.167 HD
ENDBRANCH  10  12
ENDBRANCH   9  10
BRANCH   9  14
HETATM   14  N   UNK N   1      -2.975   1.506   0.815  0.00  0.00    -0.417 N 
HETATM   15  H   UNK N   1      -3.946   1.276   1.025  0.00  0.00     0.150 HD
HETATM   16  H   UNK N   1      -2.275   0.764   0.815  0.00  0.00     0.150 HD
ENDBRANCH   9  14
ENDBRANCH   8   9
ENDBRANCH   7   8
ENDBRANCH   3   7
BRANCH   2  17
HETATM   17  C   UNK N   1       4.304   3.495  -0.133  0.00  0.00     0.233 C 
BRANCH  17  18
HETATM   18  C   UNK N   1       4.639   2.302   0.730  0.00  0.00     0.169 C 
HETATM   19  O   UNK N   1       5.156   2.457   1.828  0.00  0.00    -0.648 OA
BRANCH  18  20
HETATM   20  O   UNK N   1       4.391   1.056   0.286  0.00  0.00    -0.775 OA
HETATM   21  H   UNK N   1       3.553   0.772  -0.022  0.00  0.00     0.167 HD
ENDBRANCH  18  20
ENDBRANCH  17  18
BRANCH  17  22
HETATM   22  N   UNK N   1       4.685   4.727   0.542  0.00  0.00    -0.412 N 
HETATM   23  H   UNK N   1       5.566   4.928   1.016  0.00  0.00     0.151 HD
HETATM   24  H   UNK N   1       3.991   5.475   0.542  0.00  0.00     0.151 HD
ENDBRANCH  17  22
ENDBRANCH   2  17
TORSDOF 10
