REMARK  8 active torsions:
REMARK  status: ('A' for Active; 'I' for Inactive)
REMARK    1  A    between atoms: C_2  and  N_1 
REMARK    2  A    between atoms: C_2  and  C_3 
REMARK    3  A    between atoms: C_2  and  C_13 
REMARK    4  A    between atoms: C_3  and  C_4 
REMARK    5  A    between atoms: N_8  and  P_9 
REMARK    6  A    between atoms: P_9  and  O_10 
REMARK    7  A    between atoms: P_9  and  O_11 
REMARK    8  A    between atoms: C_13  and  O_14 
ROOT
HETATM    1  C   UNK N   1       1.230  -0.191   0.347  0.00  0.00     0.041 A 
HETATM    2  C   UNK N   1       1.053  -1.544   0.531  0.00  0.00     0.114 A 
HETATM    3  N   UNK N   1      -0.255  -1.825   0.371  0.00  0.00    -0.360 N 
HETATM    4  C   UNK N   1      -0.859  -0.651   0.091  0.00  0.00     0.193 A 
HETATM    5  N   UNK N   1       0.027   0.360   0.069  0.00  0.00    -0.253 N 
HETATM    6  H   UNK N   1      -0.684  -2.708   0.443  0.00  0.00     0.166 HD
ENDROOT
BRANCH   1   7
HETATM    7  C   UNK N   1       2.591   0.448   0.439  0.00  0.00     0.094 C 
BRANCH   7   8
HETATM    8  C   UNK N   1       2.692   1.958   0.289  0.00  0.00     0.178 C 
BRANCH   8   9
HETATM    9  N   UNK N   1       2.642   2.573   1.605  0.00  0.00    -0.417 N 
HETATM   10  H   UNK N   1       2.998   2.819   2.529  0.00  0.00     0.150 HD
HETATM   11  H   UNK N   1       1.720   3.010   1.605  0.00  0.00     0.150 HD
ENDBRANCH   8   9
BRANCH   8  12
HETATM   12  C   UNK N   1       3.971   2.359  -0.393  0.00  0.00     0.163 C 
HETATM   13  O   UNK N   1       4.799   1.522  -0.719  0.00  0.00    -0.648 OA
BRANCH  12  14
HETATM   14  O   UNK N   1       4.202   3.658  -0.659  0.00  0.00    -0.775 OA
HETATM   15  H   UNK N   1       5.066   3.971  -0.844  0.00  0.00     0.167 HD
ENDBRANCH  12  14
ENDBRANCH   8  12
ENDBRANCH   7   8
ENDBRANCH   1   7
BRANCH   5  16
HETATM   16  P   UNK N   1      -0.453   2.060  -0.307  0.00  0.00     0.354 P 
HETATM   17  O   UNK N   1       0.272   2.481  -1.613  0.00  0.00    -0.637 OA
BRANCH  16  18
HETATM   18  O   UNK N   1      -0.013   3.165   0.955  0.00  0.00    -0.312 OA
HETATM   19  H   UNK N   1       0.645   3.260   1.661  0.00  0.00     0.222 HD
ENDBRANCH  16  18
BRANCH  16  20
HETATM   20  O   UNK N   1      -2.160   2.138  -0.612  0.00  0.00    -0.312 OA
HETATM   21  H   UNK N   1      -2.600   2.985  -0.783  0.00  0.00     0.222 HD
ENDBRANCH  16  20
ENDBRANCH   5  16
TORSDOF 8
