MODEL 1
REMARK VINA RESULT:      -6.9      0.000      0.000
REMARK  24 active torsions:
REMARK  status: ('A' for Active; 'I' for Inactive)
REMARK    1  A    between atoms: C_7  and  C_1 
REMARK    2  A    between atoms: O_37  and  C_1 
REMARK    3  A    between atoms: C_8  and  C_2 
REMARK    4  A    between atoms: O_38  and  C_2 
REMARK    5  A    between atoms: C_9  and  C_3 
REMARK    6  A    between atoms: O_39  and  C_3 
REMARK    7  A    between atoms: C_10  and  C_4 
REMARK    8  A    between atoms: O_40  and  C_4 
REMARK    9  A    between atoms: C_11  and  C_5 
REMARK   10  A    between atoms: O_41  and  C_5 
REMARK   11  A    between atoms: C_12  and  C_6 
REMARK   12  A    between atoms: O_42  and  C_6 
REMARK   13  A    between atoms: C_13  and  O_43 
REMARK   14  A    between atoms: C_14  and  O_44 
REMARK   15  A    between atoms: C_15  and  O_45 
REMARK   16  A    between atoms: C_16  and  O_46 
REMARK   17  A    between atoms: C_17  and  O_47 
REMARK   18  A    between atoms: C_18  and  O_48 
REMARK   19  A    between atoms: C_19  and  O_49 
REMARK   20  A    between atoms: C_20  and  O_50 
REMARK   21  A    between atoms: C_21  and  O_51 
REMARK   22  A    between atoms: C_22  and  O_52 
REMARK   23  A    between atoms: C_23  and  O_53 
REMARK   24  A    between atoms: C_24  and  O_54 
ROOT
HETATM    1  C   UNK N   1      30.850  15.188   2.874  0.00  0.00     0.180 C 
HETATM    2  C   UNK N   1      31.941  16.124   7.737  0.00  0.00     0.180 C 
HETATM    3  C   UNK N   1      32.321   9.660   3.246  0.00  0.00     0.180 C 
HETATM    4  C   UNK N   1      35.683  14.406   9.458  0.00  0.00     0.180 C 
HETATM    5  C   UNK N   1      32.067   6.018   7.370  0.00  0.00     0.180 C 
HETATM    6  C   UNK N   1      34.617   9.421  11.780  0.00  0.00     0.180 C 
HETATM    7  C   UNK N   1      32.299  13.832   4.368  0.00  0.00     0.183 C 
HETATM    8  C   UNK N   1      30.010   9.069   2.786  0.00  0.00     0.183 C 
HETATM    9  C   UNK N   1      33.503  17.849   6.626  0.00  0.00     0.183 C 
HETATM   10  C   UNK N   1      30.958   8.125   8.132  0.00  0.00     0.183 C 
HETATM   11  C   UNK N   1      35.854  15.644  11.620  0.00  0.00     0.183 C 
HETATM   12  C   UNK N   1      33.973  11.001  10.015  0.00  0.00     0.183 C 
HETATM   13  C   UNK N   1      33.224  15.044   4.454  0.00  0.00     0.204 C 
HETATM   14  C   UNK N   1      29.698  10.580   2.611  0.00  0.00     0.204 C 
HETATM   15  C   UNK N   1      33.710  18.298   8.087  0.00  0.00     0.204 C 
HETATM   16  C   UNK N   1      31.396   8.548   6.734  0.00  0.00     0.204 C 
HETATM   17  C   UNK N   1      35.656  14.280  12.388  0.00  0.00     0.204 C 
HETATM   18  C   UNK N   1      33.792   9.821   9.120  0.00  0.00     0.204 C 
HETATM   19  C   UNK N   1      31.579  13.812   2.984  0.00  0.00     0.187 C 
HETATM   20  C   UNK N   1      32.106  17.138   6.569  0.00  0.00     0.187 C 
HETATM   21  C   UNK N   1      31.089   8.975   3.878  0.00  0.00     0.187 C 
HETATM   22  C   UNK N   1      35.063  15.581  10.292  0.00  0.00     0.187 C 
HETATM   23  C   UNK N   1      31.908   7.017   8.613  0.00  0.00     0.187 C 
HETATM   24  C   UNK N   1      35.084  10.734  11.047  0.00  0.00     0.187 C 
HETATM   25  C   UNK N   1      32.439  16.346   4.269  0.00  0.00     0.292 C 
HETATM   26  C   UNK N   1      30.973  11.484   2.417  0.00  0.00     0.292 C 
HETATM   27  C   UNK N   1      33.707  17.079   9.062  0.00  0.00     0.292 C 
HETATM   28  C   UNK N   1      30.868   7.482   5.760  0.00  0.00     0.292 C 
HETATM   29  C   UNK N   1      35.264  13.131  11.408  0.00  0.00     0.292 C 
HETATM   30  C   UNK N   1      33.373   8.567   9.925  0.00  0.00     0.292 C 
HETATM   31  O   UNK N   1      31.723  16.314   3.029  0.00  0.00    -0.348 OA
HETATM   32  O   UNK N   1      32.095  11.058   3.176  0.00  0.00    -0.348 OA
HETATM   33  O   UNK N   1      33.145  15.910   8.454  0.00  0.00    -0.348 OA
HETATM   34  O   UNK N   1      31.109   6.150   6.283  0.00  0.00    -0.348 OA
HETATM   35  O   UNK N   1      36.073  13.266  10.245  0.00  0.00    -0.348 OA
HETATM   36  O   UNK N   1      34.426   8.320  10.862  0.00  0.00    -0.348 OA
HETATM   37  O   UNK N   1      30.576  12.796   2.847  0.00  0.00    -0.348 OA
HETATM   38  O   UNK N   1      31.553  16.615   5.348  0.00  0.00    -0.348 OA
HETATM   39  O   UNK N   1      31.348   7.648   4.397  0.00  0.00    -0.348 OA
HETATM   40  O   UNK N   1      35.035  16.784   9.523  0.00  0.00    -0.348 OA
HETATM   41  O   UNK N   1      33.242   7.442   9.023  0.00  0.00    -0.348 OA
HETATM   42  O   UNK N   1      35.316  11.821  11.981  0.00  0.00    -0.348 OA
ENDROOT
BRANCH   1  43
HETATM   43  C   UNK N   1      29.645  15.276   3.824  0.00  0.00     0.198 C 
BRANCH  43  44
HETATM   44  O   UNK N   1      29.004  16.509   3.697  0.00  0.00    -0.398 OA
HETATM   45  H   UNK N   1      28.779  17.125   4.413  0.00  0.00     0.209 HD
ENDBRANCH  43  44
ENDBRANCH   1  43
BRANCH   7  46
HETATM   46  O   UNK N   1      33.101  12.724   4.584  0.00  0.00    -0.390 OA
HETATM   47  H   UNK N   1      34.067  12.677   4.661  0.00  0.00     0.210 HD
ENDBRANCH   7  46
BRANCH  13  48
HETATM   48  O   UNK N   1      34.210  14.961   3.463  0.00  0.00    -0.388 OA
HETATM   49  H   UNK N   1      34.741  15.106   2.665  0.00  0.00     0.210 HD
ENDBRANCH  13  48
BRANCH  14  50
HETATM   50  O   UNK N   1      29.011  11.008   3.756  0.00  0.00    -0.388 OA
HETATM   51  H   UNK N   1      28.644  10.806   4.631  0.00  0.00     0.210 HD
ENDBRANCH  14  50
BRANCH   8  52
HETATM   52  O   UNK N   1      28.852   8.389   3.172  0.00  0.00    -0.390 OA
HETATM   53  H   UNK N   1      28.024   7.978   2.876  0.00  0.00     0.210 HD
ENDBRANCH   8  52
BRANCH   3  54
HETATM   54  C   UNK N   1      33.631   9.427   3.997  0.00  0.00     0.198 C 
BRANCH  54  55
HETATM   55  O   UNK N   1      34.047   8.098   3.929  0.00  0.00    -0.398 OA
HETATM   56  H   UNK N   1      34.222   7.544   4.706  0.00  0.00     0.209 HD
ENDBRANCH  54  55
ENDBRANCH   3  54
BRANCH   2  57
HETATM   57  C   UNK N   1      30.786  16.493   8.676  0.00  0.00     0.198 C 
BRANCH  57  58
HETATM   58  O   UNK N   1      29.894  17.357   8.040  0.00  0.00    -0.398 OA
HETATM   59  H   UNK N   1      29.210  17.875   8.494  0.00  0.00     0.209 HD
ENDBRANCH  57  58
ENDBRANCH   2  57
BRANCH   9  60
HETATM   60  O   UNK N   1      34.562  17.015   6.266  0.00  0.00    -0.390 OA
HETATM   61  H   UNK N   1      35.176  16.304   6.509  0.00  0.00     0.210 HD
ENDBRANCH   9  60
BRANCH  15  62
HETATM   62  O   UNK N   1      34.872  19.062   8.229  0.00  0.00    -0.388 OA
HETATM   63  H   UNK N   1      35.774  18.871   8.526  0.00  0.00     0.210 HD
ENDBRANCH  15  62
BRANCH  16  64
HETATM   64  O   UNK N   1      32.784   8.546   6.581  0.00  0.00    -0.388 OA
HETATM   65  H   UNK N   1      33.660   8.891   6.349  0.00  0.00     0.210 HD
ENDBRANCH  16  64
BRANCH  10  66
HETATM   66  O   UNK N   1      30.807   9.189   9.023  0.00  0.00    -0.390 OA
HETATM   67  H   UNK N   1      31.506   9.692   9.468  0.00  0.00     0.210 HD
ENDBRANCH  10  66
BRANCH   5  68
HETATM   68  C   UNK N   1      32.049   4.572   7.855  0.00  0.00     0.198 C 
BRANCH  68  69
HETATM   69  O   UNK N   1      32.302   4.502   9.227  0.00  0.00    -0.398 OA
HETATM   70  H   UNK N   1      32.176   3.699   9.756  0.00  0.00     0.209 HD
ENDBRANCH  68  69
ENDBRANCH   5  68
BRANCH   4  71
HETATM   71  C   UNK N   1      36.917  14.865   8.685  0.00  0.00     0.198 C 
BRANCH  71  72
HETATM   72  O   UNK N   1      38.047  14.188   9.149  0.00  0.00    -0.398 OA
HETATM   73  H   UNK N   1      38.695  13.595   8.738  0.00  0.00     0.209 HD
ENDBRANCH  71  72
ENDBRANCH   4  71
BRANCH  11  74
HETATM   74  O   UNK N   1      37.210  15.855  11.333  0.00  0.00    -0.390 OA
HETATM   75  H   UNK N   1      38.137  15.642  11.145  0.00  0.00     0.210 HD
ENDBRANCH  11  74
BRANCH  17  76
HETATM   76  O   UNK N   1      36.812  13.956  13.103  0.00  0.00    -0.388 OA
HETATM   77  H   UNK N   1      37.132  13.082  13.376  0.00  0.00     0.210 HD
ENDBRANCH  17  76
BRANCH  18  78
HETATM   78  O   UNK N   1      32.857  10.258   8.200  0.00  0.00    -0.388 OA
HETATM   79  H   UNK N   1      33.064  10.894   7.498  0.00  0.00     0.210 HD
ENDBRANCH  18  78
BRANCH  12  80
HETATM   80  O   UNK N   1      34.263  12.040   9.148  0.00  0.00    -0.390 OA
HETATM   81  H   UNK N   1      34.589  11.948   8.240  0.00  0.00     0.210 HD
ENDBRANCH  12  80
BRANCH   6  82
HETATM   82  C   UNK N   1      35.642   8.978  12.823  0.00  0.00     0.198 C 
BRANCH  82  83
HETATM   83  O   UNK N   1      35.477   9.683  14.018  0.00  0.00    -0.398 OA
HETATM   84  H   UNK N   1      36.089  10.353  14.359  0.00  0.00     0.209 HD
ENDBRANCH  82  83
ENDBRANCH   6  82
TORSDOF 24
ENDMDL
MODEL 2
REMARK VINA RESULT:      -6.4      5.838     12.078
REMARK  24 active torsions:
REMARK  status: ('A' for Active; 'I' for Inactive)
REMARK    1  A    between atoms: C_7  and  C_1 
REMARK    2  A    between atoms: O_37  and  C_1 
REMARK    3  A    between atoms: C_8  and  C_2 
REMARK    4  A    between atoms: O_38  and  C_2 
REMARK    5  A    between atoms: C_9  and  C_3 
REMARK    6  A    between atoms: O_39  and  C_3 
REMARK    7  A    between atoms: C_10  and  C_4 
REMARK    8  A    between atoms: O_40  and  C_4 
REMARK    9  A    between atoms: C_11  and  C_5 
REMARK   10  A    between atoms: O_41  and  C_5 
REMARK   11  A    between atoms: C_12  and  C_6 
REMARK   12  A    between atoms: O_42  and  C_6 
REMARK   13  A    between atoms: C_13  and  O_43 
REMARK   14  A    between atoms: C_14  and  O_44 
REMARK   15  A    between atoms: C_15  and  O_45 
REMARK   16  A    between atoms: C_16  and  O_46 
REMARK   17  A    between atoms: C_17  and  O_47 
REMARK   18  A    between atoms: C_18  and  O_48 
REMARK   19  A    between atoms: C_19  and  O_49 
REMARK   20  A    between atoms: C_20  and  O_50 
REMARK   21  A    between atoms: C_21  and  O_51 
REMARK   22  A    between atoms: C_22  and  O_52 
REMARK   23  A    between atoms: C_23  and  O_53 
REMARK   24  A    between atoms: C_24  and  O_54 
ROOT
HETATM    1  C   UNK N   1      24.901   7.894   4.552  0.00  0.00     0.180 C 
HETATM    2  C   UNK N   1      22.309  11.978   6.077  0.00  0.00     0.180 C 
HETATM    3  C   UNK N   1      29.074  11.008   2.154  0.00  0.00     0.180 C 
HETATM    4  C   UNK N   1      21.876  15.411   3.259  0.00  0.00     0.180 C 
HETATM    5  C   UNK N   1      31.231  15.918   3.404  0.00  0.00     0.180 C 
HETATM    6  C   UNK N   1      26.029  19.086   4.058  0.00  0.00     0.180 C 
HETATM    7  C   UNK N   1      25.111  10.211   3.678  0.00  0.00     0.183 C 
HETATM    8  C   UNK N   1      30.625  10.084   3.779  0.00  0.00     0.183 C 
HETATM    9  C   UNK N   1      20.490  10.851   4.639  0.00  0.00     0.183 C 
HETATM   10  C   UNK N   1      29.606  15.309   5.204  0.00  0.00     0.183 C 
HETATM   11  C   UNK N   1      20.126  16.778   4.401  0.00  0.00     0.183 C 
HETATM   12  C   UNK N   1      25.381  16.721   4.172  0.00  0.00     0.183 C 
HETATM   13  C   UNK N   1      23.661  10.091   3.213  0.00  0.00     0.204 C 
HETATM   14  C   UNK N   1      29.469   9.201   4.325  0.00  0.00     0.204 C 
HETATM   15  C   UNK N   1      19.612  11.966   5.240  0.00  0.00     0.204 C 
HETATM   16  C   UNK N   1      29.449  14.101   4.286  0.00  0.00     0.204 C 
HETATM   17  C   UNK N   1      21.189  17.927   4.601  0.00  0.00     0.204 C 
HETATM   18  C   UNK N   1      26.735  16.395   3.635  0.00  0.00     0.204 C 
HETATM   19  C   UNK N   1      25.792   8.807   3.653  0.00  0.00     0.187 C 
HETATM   20  C   UNK N   1      21.677  10.626   5.639  0.00  0.00     0.187 C 
HETATM   21  C   UNK N   1      29.983  11.409   3.336  0.00  0.00     0.187 C 
HETATM   22  C   UNK N   1      20.858  15.417   4.453  0.00  0.00     0.187 C 
HETATM   23  C   UNK N   1      30.073  16.498   4.349  0.00  0.00     0.187 C 
HETATM   24  C   UNK N   1      24.895  18.079   3.632  0.00  0.00     0.187 C 
HETATM   25  C   UNK N   1      22.877   9.127   4.109  0.00  0.00     0.292 C 
HETATM   26  C   UNK N   1      28.229   9.093   3.358  0.00  0.00     0.292 C 
HETATM   27  C   UNK N   1      20.413  13.296   5.403  0.00  0.00     0.292 C 
HETATM   28  C   UNK N   1      30.861  13.545   4.037  0.00  0.00     0.292 C 
HETATM   29  C   UNK N   1      22.622  17.446   4.213  0.00  0.00     0.292 C 
HETATM   30  C   UNK N   1      27.778  17.455   4.067  0.00  0.00     0.292 C 
HETATM   31  O   UNK N   1      23.527   7.852   4.144  0.00  0.00    -0.348 OA
HETATM   32  O   UNK N   1      27.955  10.290   2.647  0.00  0.00    -0.348 OA
HETATM   33  O   UNK N   1      21.828  13.080   5.326  0.00  0.00    -0.348 OA
HETATM   34  O   UNK N   1      31.791  14.622   3.756  0.00  0.00    -0.348 OA
HETATM   35  O   UNK N   1      22.507  16.682   3.017  0.00  0.00    -0.348 OA
HETATM   36  O   UNK N   1      27.323  18.705   3.538  0.00  0.00    -0.348 OA
HETATM   37  O   UNK N   1      27.115   8.775   4.207  0.00  0.00    -0.348 OA
HETATM   38  O   UNK N   1      22.689   9.626   5.426  0.00  0.00    -0.348 OA
HETATM   39  O   UNK N   1      30.903  12.488   3.039  0.00  0.00    -0.348 OA
HETATM   40  O   UNK N   1      20.025  14.257   4.408  0.00  0.00    -0.348 OA
HETATM   41  O   UNK N   1      29.065  17.118   3.497  0.00  0.00    -0.348 OA
HETATM   42  O   UNK N   1      23.593  18.492   4.122  0.00  0.00    -0.348 OA
ENDROOT
BRANCH   1  43
HETATM   43  C   UNK N   1      25.033   8.252   6.041  0.00  0.00     0.198 C 
BRANCH  43  44
HETATM   44  O   UNK N   1      25.923   7.388   6.680  0.00  0.00    -0.398 OA
HETATM   45  H   UNK N   1      26.872   7.295   6.504  0.00  0.00     0.209 HD
ENDBRANCH  43  44
ENDBRANCH   1  43
BRANCH   7  46
HETATM   46  O   UNK N   1      25.710  11.125   2.828  0.00  0.00    -0.390 OA
HETATM   47  H   UNK N   1      25.774  11.105   1.861  0.00  0.00     0.210 HD
ENDBRANCH   7  46
BRANCH  13  48
HETATM   48  O   UNK N   1      23.621   9.623   1.894  0.00  0.00    -0.388 OA
HETATM   49  H   UNK N   1      23.830   9.177   1.059  0.00  0.00     0.210 HD
ENDBRANCH  13  48
BRANCH  14  50
HETATM   50  O   UNK N   1      29.046   9.757   5.541  0.00  0.00    -0.388 OA
HETATM   51  H   UNK N   1      28.436  10.336   6.024  0.00  0.00     0.210 HD
ENDBRANCH  14  50
BRANCH   8  52
HETATM   52  O   UNK N   1      31.569  10.301   4.787  0.00  0.00    -0.390 OA
HETATM   53  H   UNK N   1      31.733  10.330   5.743  0.00  0.00     0.210 HD
ENDBRANCH   8  52
BRANCH   3  54
HETATM   54  C   UNK N   1      28.558  12.182   1.323  0.00  0.00     0.198 C 
BRANCH  54  55
HETATM   55  O   UNK N   1      29.572  12.788   0.583  0.00  0.00    -0.398 OA
HETATM   56  H   UNK N   1      29.872  13.700   0.720  0.00  0.00     0.209 HD
ENDBRANCH  54  55
ENDBRANCH   3  54
BRANCH   2  57
HETATM   57  C   UNK N   1      22.178  12.226   7.585  0.00  0.00     0.198 C 
BRANCH  57  58
HETATM   58  O   UNK N   1      22.917  11.284   8.302  0.00  0.00    -0.398 OA
HETATM   59  H   UNK N   1      23.886  11.260   8.344  0.00  0.00     0.209 HD
ENDBRANCH  57  58
ENDBRANCH   2  57
BRANCH   9  60
HETATM   60  O   UNK N   1      20.907  11.252   3.369  0.00  0.00    -0.390 OA
HETATM   61  H   UNK N   1      20.810  11.861   2.620  0.00  0.00     0.210 HD
ENDBRANCH   9  60
BRANCH  15  62
HETATM   62  O   UNK N   1      18.446  12.161   4.493  0.00  0.00    -0.388 OA
HETATM   63  H   UNK N   1      17.839  12.907   4.370  0.00  0.00     0.210 HD
ENDBRANCH  15  62
BRANCH  16  64
HETATM   64  O   UNK N   1      28.950  14.442   3.028  0.00  0.00    -0.388 OA
HETATM   65  H   UNK N   1      28.683  14.313   2.104  0.00  0.00     0.210 HD
ENDBRANCH  16  64
BRANCH  10  66
HETATM   66  O   UNK N   1      28.486  15.567   5.995  0.00  0.00    -0.390 OA
HETATM   67  H   UNK N   1      28.418  16.179   6.744  0.00  0.00     0.210 HD
ENDBRANCH  10  66
BRANCH   5  68
HETATM   68  C   UNK N   1      32.374  16.924   3.301  0.00  0.00     0.198 C 
BRANCH  68  69
HETATM   69  O   UNK N   1      31.980  18.178   3.772  0.00  0.00    -0.398 OA
HETATM   70  H   UNK N   1      32.006  18.432   4.708  0.00  0.00     0.209 HD
ENDBRANCH  68  69
ENDBRANCH   5  68
BRANCH   4  71
HETATM   71  C   UNK N   1      21.203  14.985   1.957  0.00  0.00     0.198 C 
BRANCH  71  72
HETATM   72  O   UNK N   1      21.174  13.591   1.873  0.00  0.00    -0.398 OA
HETATM   73  H   UNK N   1      20.485  12.921   2.004  0.00  0.00     0.209 HD
ENDBRANCH  71  72
ENDBRANCH   4  71
BRANCH  11  74
HETATM   74  O   UNK N   1      19.489  16.907   3.159  0.00  0.00    -0.390 OA
HETATM   75  H   UNK N   1      19.293  17.258   2.277  0.00  0.00     0.210 HD
ENDBRANCH  11  74
BRANCH  17  76
HETATM   76  O   UNK N   1      20.823  19.057   3.863  0.00  0.00    -0.388 OA
HETATM   77  H   UNK N   1      20.990  19.992   4.063  0.00  0.00     0.210 HD
ENDBRANCH  17  76
BRANCH  18  78
HETATM   78  O   UNK N   1      26.972  15.121   4.115  0.00  0.00    -0.388 OA
HETATM   79  H   UNK N   1      27.642  14.530   3.738  0.00  0.00     0.210 HD
ENDBRANCH  18  78
BRANCH  12  80
HETATM   80  O   UNK N   1      24.594  15.655   3.772  0.00  0.00    -0.390 OA
HETATM   81  H   UNK N   1      23.684  15.482   4.057  0.00  0.00     0.210 HD
ENDBRANCH  12  80
BRANCH   6  82
HETATM   82  C   UNK N   1      25.728  20.497   3.556  0.00  0.00     0.198 C 
BRANCH  82  83
HETATM   83  O   UNK N   1      25.191  20.467   2.266  0.00  0.00    -0.398 OA
HETATM   84  H   UNK N   1      24.959  19.662   1.778  0.00  0.00     0.209 HD
ENDBRANCH  82  83
ENDBRANCH   6  82
TORSDOF 24
ENDMDL
MODEL 3
REMARK VINA RESULT:      -6.3      2.899      7.323
REMARK  24 active torsions:
REMARK  status: ('A' for Active; 'I' for Inactive)
REMARK    1  A    between atoms: C_7  and  C_1 
REMARK    2  A    between atoms: O_37  and  C_1 
REMARK    3  A    between atoms: C_8  and  C_2 
REMARK    4  A    between atoms: O_38  and  C_2 
REMARK    5  A    between atoms: C_9  and  C_3 
REMARK    6  A    between atoms: O_39  and  C_3 
REMARK    7  A    between atoms: C_10  and  C_4 
REMARK    8  A    between atoms: O_40  and  C_4 
REMARK    9  A    between atoms: C_11  and  C_5 
REMARK   10  A    between atoms: O_41  and  C_5 
REMARK   11  A    between atoms: C_12  and  C_6 
REMARK   12  A    between atoms: O_42  and  C_6 
REMARK   13  A    between atoms: C_13  and  O_43 
REMARK   14  A    between atoms: C_14  and  O_44 
REMARK   15  A    between atoms: C_15  and  O_45 
REMARK   16  A    between atoms: C_16  and  O_46 
REMARK   17  A    between atoms: C_17  and  O_47 
REMARK   18  A    between atoms: C_18  and  O_48 
REMARK   19  A    between atoms: C_19  and  O_49 
REMARK   20  A    between atoms: C_20  and  O_50 
REMARK   21  A    between atoms: C_21  and  O_51 
REMARK   22  A    between atoms: C_22  and  O_52 
REMARK   23  A    between atoms: C_23  and  O_53 
REMARK   24  A    between atoms: C_24  and  O_54 
ROOT
HETATM    1  C   UNK N   1      35.356   9.201   2.138  0.00  0.00     0.180 C 
HETATM    2  C   UNK N   1      36.976  12.898   5.209  0.00  0.00     0.180 C 
HETATM    3  C   UNK N   1      29.870  10.821   2.509  0.00  0.00     0.180 C 
HETATM    4  C   UNK N   1      34.638  13.787   8.904  0.00  0.00     0.180 C 
HETATM    5  C   UNK N   1      27.487  15.741   3.174  0.00  0.00     0.180 C 
HETATM    6  C   UNK N   1      30.853  17.785   7.866  0.00  0.00     0.180 C 
HETATM    7  C   UNK N   1      33.995  10.504   3.757  0.00  0.00     0.183 C 
HETATM    8  C   UNK N   1      29.916  11.335   0.136  0.00  0.00     0.183 C 
HETATM    9  C   UNK N   1      37.858  10.860   6.520  0.00  0.00     0.183 C 
HETATM   10  C   UNK N   1      29.944  16.106   2.893  0.00  0.00     0.183 C 
HETATM   11  C   UNK N   1      36.215  15.270  10.150  0.00  0.00     0.183 C 
HETATM   12  C   UNK N   1      32.120  15.912   6.910  0.00  0.00     0.183 C 
HETATM   13  C   UNK N   1      34.858   9.901   4.862  0.00  0.00     0.204 C 
HETATM   14  C   UNK N   1      31.373  10.798   0.086  0.00  0.00     0.204 C 
HETATM   15  C   UNK N   1      38.537  11.956   7.366  0.00  0.00     0.204 C 
HETATM   16  C   UNK N   1      29.894  14.583   2.823  0.00  0.00     0.204 C 
HETATM   17  C   UNK N   1      35.180  16.452  10.001  0.00  0.00     0.204 C 
HETATM   18  C   UNK N   1      30.881  15.546   6.163  0.00  0.00     0.204 C 
HETATM   19  C   UNK N   1      33.886   9.504   2.564  0.00  0.00     0.187 C 
HETATM   20  C   UNK N   1      37.607  11.481   5.101  0.00  0.00     0.187 C 
HETATM   21  C   UNK N   1      29.747  11.995   1.514  0.00  0.00     0.187 C 
HETATM   22  C   UNK N   1      36.100  14.357   8.906  0.00  0.00     0.187 C 
HETATM   23  C   UNK N   1      28.737  16.585   3.716  0.00  0.00     0.187 C 
HETATM   24  C   UNK N   1      31.766  16.564   8.260  0.00  0.00     0.187 C 
HETATM   25  C   UNK N   1      36.261   9.572   4.342  0.00  0.00     0.292 C 
HETATM   26  C   UNK N   1      31.784   9.931   1.336  0.00  0.00     0.292 C 
HETATM   27  C   UNK N   1      37.624  13.215   7.503  0.00  0.00     0.292 C 
HETATM   28  C   UNK N   1      28.848  14.222   1.756  0.00  0.00     0.292 C 
HETATM   29  C   UNK N   1      34.015  16.068   9.037  0.00  0.00     0.292 C 
HETATM   30  C   UNK N   1      30.024  16.797   5.852  0.00  0.00     0.292 C 
HETATM   31  O   UNK N   1      36.172   8.704   3.207  0.00  0.00    -0.348 OA
HETATM   32  O   UNK N   1      31.219  10.386   2.556  0.00  0.00    -0.348 OA
HETATM   33  O   UNK N   1      36.574  13.223   6.528  0.00  0.00    -0.348 OA
HETATM   34  O   UNK N   1      27.656  15.034   1.913  0.00  0.00    -0.348 OA
HETATM   35  O   UNK N   1      33.638  14.728   9.336  0.00  0.00    -0.348 OA
HETATM   36  O   UNK N   1      29.686  17.376   7.117  0.00  0.00    -0.348 OA
HETATM   37  O   UNK N   1      33.215  10.025   1.407  0.00  0.00    -0.348 OA
HETATM   38  O   UNK N   1      37.018  10.732   4.022  0.00  0.00    -0.348 OA
HETATM   39  O   UNK N   1      28.554  12.798   1.687  0.00  0.00    -0.348 OA
HETATM   40  O   UNK N   1      37.052  13.297   8.819  0.00  0.00    -0.348 OA
HETATM   41  O   UNK N   1      28.820  16.391   5.159  0.00  0.00    -0.348 OA
HETATM   42  O   UNK N   1      32.912  16.979   9.049  0.00  0.00    -0.348 OA
ENDROOT
BRANCH   1  43
HETATM   43  C   UNK N   1      36.013  10.406   1.445  0.00  0.00     0.198 C 
BRANCH  43  44
HETATM   44  O   UNK N   1      35.625  10.478   0.107  0.00  0.00    -0.398 OA
HETATM   45  H   UNK N   1      35.395   9.735  -0.473  0.00  0.00     0.209 HD
ENDBRANCH  43  44
ENDBRANCH   1  43
BRANCH   7  46
HETATM   46  O   UNK N   1      32.773  10.794   4.342  0.00  0.00    -0.390 OA
HETATM   47  H   UNK N   1      32.496  11.599   4.806  0.00  0.00     0.210 HD
ENDBRANCH   7  46
BRANCH  13  48
HETATM   48  O   UNK N   1      34.264   8.728   5.343  0.00  0.00    -0.388 OA
HETATM   49  H   UNK N   1      33.787   8.082   5.888  0.00  0.00     0.210 HD
ENDBRANCH  13  48
BRANCH  14  50
HETATM   50  O   UNK N   1      32.232  11.904   0.002  0.00  0.00    -0.388 OA
HETATM   51  H   UNK N   1      32.990  12.339  -0.418  0.00  0.00     0.210 HD
ENDBRANCH  14  50
BRANCH   8  52
HETATM   52  O   UNK N   1      29.721  12.265  -0.889  0.00  0.00    -0.390 OA
HETATM   53  H   UNK N   1      29.271  12.455  -1.727  0.00  0.00     0.210 HD
ENDBRANCH   8  52
BRANCH   3  54
HETATM   54  C   UNK N   1      29.426  11.148   3.934  0.00  0.00     0.198 C 
BRANCH  54  55
HETATM   55  O   UNK N   1      28.052  11.368   4.019  0.00  0.00    -0.398 OA
HETATM   56  H   UNK N   1      27.471  11.473   3.250  0.00  0.00     0.209 HD
ENDBRANCH  54  55
ENDBRANCH   3  54
BRANCH   2  57
HETATM   57  C   UNK N   1      37.875  13.988   4.612  0.00  0.00     0.198 C 
BRANCH  57  58
HETATM   58  O   UNK N   1      38.653  13.469   3.576  0.00  0.00    -0.398 OA
HETATM   59  H   UNK N   1      38.723  12.526   3.360  0.00  0.00     0.209 HD
ENDBRANCH  57  58
ENDBRANCH   2  57
BRANCH   9  60
HETATM   60  O   UNK N   1      36.685  10.466   7.165  0.00  0.00    -0.390 OA
HETATM   61  H   UNK N   1      35.998   9.794   7.296  0.00  0.00     0.210 HD
ENDBRANCH   9  60
BRANCH  15  62
HETATM   62  O   UNK N   1      38.927  11.469   8.617  0.00  0.00    -0.388 OA
HETATM   63  H   UNK N   1      39.208  11.886   9.446  0.00  0.00     0.210 HD
ENDBRANCH  15  62
BRANCH  16  64
HETATM   64  O   UNK N   1      29.439  14.005   4.010  0.00  0.00    -0.388 OA
HETATM   65  H   UNK N   1      28.955  13.384   4.576  0.00  0.00     0.210 HD
ENDBRANCH  16  64
BRANCH  10  66
HETATM   66  O   UNK N   1      31.173  16.612   3.317  0.00  0.00    -0.390 OA
HETATM   67  H   UNK N   1      31.341  17.441   3.790  0.00  0.00     0.210 HD
ENDBRANCH  10  66
BRANCH   5  68
HETATM   68  C   UNK N   1      26.259  16.640   3.060  0.00  0.00     0.198 C 
BRANCH  68  69
HETATM   69  O   UNK N   1      26.402  17.784   3.849  0.00  0.00    -0.398 OA
HETATM   70  H   UNK N   1      26.101  18.665   3.578  0.00  0.00     0.209 HD
ENDBRANCH  68  69
ENDBRANCH   5  68
BRANCH   4  71
HETATM   71  C   UNK N   1      34.520  12.558   9.801  0.00  0.00     0.198 C 
BRANCH  71  72
HETATM   72  O   UNK N   1      34.915  11.418   9.097  0.00  0.00    -0.398 OA
HETATM   73  H   UNK N   1      34.950  10.471   9.309  0.00  0.00     0.209 HD
ENDBRANCH  71  72
ENDBRANCH   4  71
BRANCH  11  74
HETATM   74  O   UNK N   1      35.938  14.514  11.297  0.00  0.00    -0.390 OA
HETATM   75  H   UNK N   1      35.714  14.325  12.222  0.00  0.00     0.210 HD
ENDBRANCH  11  74
BRANCH  17  76
HETATM   76  O   UNK N   1      34.690  16.826  11.257  0.00  0.00    -0.388 OA
HETATM   77  H   UNK N   1      33.813  17.168  11.488  0.00  0.00     0.210 HD
ENDBRANCH  17  76
BRANCH  18  78
HETATM   78  O   UNK N   1      31.364  14.884   5.049  0.00  0.00    -0.388 OA
HETATM   79  H   UNK N   1      30.812  14.673   4.279  0.00  0.00     0.210 HD
ENDBRANCH  18  78
BRANCH  12  80
HETATM   80  O   UNK N   1      32.804  14.716   7.037  0.00  0.00    -0.390 OA
HETATM   81  H   UNK N   1      32.542  13.868   6.647  0.00  0.00     0.210 HD
ENDBRANCH  12  80
BRANCH   6  82
HETATM   82  C   UNK N   1      30.365  18.530   9.107  0.00  0.00     0.198 C 
BRANCH  82  83
HETATM   83  O   UNK N   1      30.025  17.637  10.127  0.00  0.00    -0.398 OA
HETATM   84  H   UNK N   1      29.254  17.723  10.709  0.00  0.00     0.209 HD
ENDBRANCH  82  83
ENDBRANCH   6  82
TORSDOF 24
ENDMDL
MODEL 4
REMARK VINA RESULT:      -6.1      1.923      7.737
REMARK  24 active torsions:
REMARK  status: ('A' for Active; 'I' for Inactive)
REMARK    1  A    between atoms: C_7  and  C_1 
REMARK    2  A    between atoms: O_37  and  C_1 
REMARK    3  A    between atoms: C_8  and  C_2 
REMARK    4  A    between atoms: O_38  and  C_2 
REMARK    5  A    between atoms: C_9  and  C_3 
REMARK    6  A    between atoms: O_39  and  C_3 
REMARK    7  A    between atoms: C_10  and  C_4 
REMARK    8  A    between atoms: O_40  and  C_4 
REMARK    9  A    between atoms: C_11  and  C_5 
REMARK   10  A    between atoms: O_41  and  C_5 
REMARK   11  A    between atoms: C_12  and  C_6 
REMARK   12  A    between atoms: O_42  and  C_6 
REMARK   13  A    between atoms: C_13  and  O_43 
REMARK   14  A    between atoms: C_14  and  O_44 
REMARK   15  A    between atoms: C_15  and  O_45 
REMARK   16  A    between atoms: C_16  and  O_46 
REMARK   17  A    between atoms: C_17  and  O_47 
REMARK   18  A    between atoms: C_18  and  O_48 
REMARK   19  A    between atoms: C_19  and  O_49 
REMARK   20  A    between atoms: C_20  and  O_50 
REMARK   21  A    between atoms: C_21  and  O_51 
REMARK   22  A    between atoms: C_22  and  O_52 
REMARK   23  A    between atoms: C_23  and  O_53 
REMARK   24  A    between atoms: C_24  and  O_54 
ROOT
HETATM    1  C   UNK N   1      36.580   9.681  13.231  0.00  0.00     0.180 C 
HETATM    2  C   UNK N   1      36.499  13.470   9.860  0.00  0.00     0.180 C 
HETATM    3  C   UNK N   1      32.916   6.461  10.221  0.00  0.00     0.180 C 
HETATM    4  C   UNK N   1      32.577  14.700   8.121  0.00  0.00     0.180 C 
HETATM    5  C   UNK N   1      31.990   5.952   4.816  0.00  0.00     0.180 C 
HETATM    6  C   UNK N   1      31.619  11.893   3.368  0.00  0.00     0.180 C 
HETATM    7  C   UNK N   1      34.848  10.107  11.502  0.00  0.00     0.183 C 
HETATM    8  C   UNK N   1      34.686   4.825   9.917  0.00  0.00     0.183 C 
HETATM    9  C   UNK N   1      35.729  14.765  11.953  0.00  0.00     0.183 C 
HETATM   10  C   UNK N   1      33.971   7.447   5.123  0.00  0.00     0.183 C 
HETATM   11  C   UNK N   1      33.177  16.854   7.008  0.00  0.00     0.183 C 
HETATM   12  C   UNK N   1      32.699  11.816   5.572  0.00  0.00     0.183 C 
HETATM   13  C   UNK N   1      34.550  11.419  12.224  0.00  0.00     0.204 C 
HETATM   14  C   UNK N   1      35.600   5.703  10.815  0.00  0.00     0.204 C 
HETATM   15  C   UNK N   1      35.886  15.976  11.010  0.00  0.00     0.204 C 
HETATM   16  C   UNK N   1      33.619   7.173   6.581  0.00  0.00     0.204 C 
HETATM   17  C   UNK N   1      32.845  16.196   5.613  0.00  0.00     0.204 C 
HETATM   18  C   UNK N   1      32.262  10.392   5.660  0.00  0.00     0.204 C 
HETATM   19  C   UNK N   1      35.345   9.039  12.526  0.00  0.00     0.187 C 
HETATM   20  C   UNK N   1      36.670  13.640  11.397  0.00  0.00     0.187 C 
HETATM   21  C   UNK N   1      33.789   5.798   9.134  0.00  0.00     0.187 C 
HETATM   22  C   UNK N   1      33.725  15.757   7.951  0.00  0.00     0.187 C 
HETATM   23  C   UNK N   1      32.690   7.294   4.287  0.00  0.00     0.187 C 
HETATM   24  C   UNK N   1      31.692  12.643   4.751  0.00  0.00     0.187 C 
HETATM   25  C   UNK N   1      35.797  11.943  12.943  0.00  0.00     0.292 C 
HETATM   26  C   UNK N   1      34.826   6.782  11.662  0.00  0.00     0.292 C 
HETATM   27  C   UNK N   1      35.462  15.618   9.551  0.00  0.00     0.292 C 
HETATM   28  C   UNK N   1      33.534   5.646   6.739  0.00  0.00     0.292 C 
HETATM   29  C   UNK N   1      32.601  14.662   5.753  0.00  0.00     0.292 C 
HETATM   30  C   UNK N   1      32.178   9.744   4.257  0.00  0.00     0.292 C 
HETATM   31  O   UNK N   1      36.299  10.948  13.841  0.00  0.00    -0.348 OA
HETATM   32  O   UNK N   1      33.714   7.348  10.986  0.00  0.00    -0.348 OA
HETATM   33  O   UNK N   1      35.400  14.202   9.344  0.00  0.00    -0.348 OA
HETATM   34  O   UNK N   1      32.797   5.060   5.636  0.00  0.00    -0.348 OA
HETATM   35  O   UNK N   1      31.816  14.459   6.924  0.00  0.00    -0.348 OA
HETATM   36  O   UNK N   1      31.222  10.510   3.516  0.00  0.00    -0.348 OA
HETATM   37  O   UNK N   1      35.792   7.809  11.938  0.00  0.00    -0.348 OA
HETATM   38  O   UNK N   1      36.816  12.363  12.045  0.00  0.00    -0.348 OA
HETATM   39  O   UNK N   1      33.037   5.221   8.039  0.00  0.00    -0.348 OA
HETATM   40  O   UNK N   1      34.191  16.202   9.225  0.00  0.00    -0.348 OA
HETATM   41  O   UNK N   1      31.719   8.377   4.388  0.00  0.00    -0.348 OA
HETATM   42  O   UNK N   1      32.048  14.041   4.590  0.00  0.00    -0.348 OA
ENDROOT
BRANCH   1  43
HETATM   43  C   UNK N   1      37.795   9.768  12.293  0.00  0.00     0.198 C 
BRANCH  43  44
HETATM   44  O   UNK N   1      38.518   8.574  12.309  0.00  0.00    -0.398 OA
HETATM   45  H   UNK N   1      39.111   8.244  11.616  0.00  0.00     0.209 HD
ENDBRANCH  43  44
ENDBRANCH   1  43
BRANCH   7  46
HETATM   46  O   UNK N   1      33.673   9.747  10.863  0.00  0.00    -0.390 OA
HETATM   47  H   UNK N   1      33.402   8.876  10.533  0.00  0.00     0.210 HD
ENDBRANCH   7  46
BRANCH  13  48
HETATM   48  O   UNK N   1      33.530  11.224  13.163  0.00  0.00    -0.388 OA
HETATM   49  H   UNK N   1      33.020  10.937  13.936  0.00  0.00     0.210 HD
ENDBRANCH  13  48
BRANCH  14  50
HETATM   50  O   UNK N   1      36.516   6.357   9.979  0.00  0.00    -0.388 OA
HETATM   51  H   UNK N   1      36.717   6.767   9.123  0.00  0.00     0.210 HD
ENDBRANCH  14  50
BRANCH   8  52
HETATM   52  O   UNK N   1      35.470   4.062   9.048  0.00  0.00    -0.390 OA
HETATM   53  H   UNK N   1      36.087   3.319   8.965  0.00  0.00     0.210 HD
ENDBRANCH   8  52
BRANCH   3  54
HETATM   54  C   UNK N   1      31.717   7.241   9.685  0.00  0.00     0.198 C 
BRANCH  54  55
HETATM   55  O   UNK N   1      30.760   6.406   9.110  0.00  0.00    -0.398 OA
HETATM   56  H   UNK N   1      30.376   6.545   8.231  0.00  0.00     0.209 HD
ENDBRANCH  54  55
ENDBRANCH   3  54
BRANCH   2  57
HETATM   57  C   UNK N   1      37.788  13.775   9.088  0.00  0.00     0.198 C 
BRANCH  57  58
HETATM   58  O   UNK N   1      38.744  14.337   9.935  0.00  0.00    -0.398 OA
HETATM   59  H   UNK N   1      39.530  13.873  10.264  0.00  0.00     0.209 HD
ENDBRANCH  57  58
ENDBRANCH   2  57
BRANCH   9  60
HETATM   60  O   UNK N   1      34.383  14.397  11.980  0.00  0.00    -0.390 OA
HETATM   61  H   UNK N   1      33.716  13.710  12.133  0.00  0.00     0.210 HD
ENDBRANCH   9  60
BRANCH  15  62
HETATM   62  O   UNK N   1      35.188  17.090  11.486  0.00  0.00    -0.388 OA
HETATM   63  H   UNK N   1      34.400  17.208  12.038  0.00  0.00     0.210 HD
ENDBRANCH  15  62
BRANCH  16  64
HETATM   64  O   UNK N   1      32.358   7.660   6.931  0.00  0.00    -0.388 OA
HETATM   65  H   UNK N   1      31.405   7.821   6.849  0.00  0.00     0.210 HD
ENDBRANCH  16  64
BRANCH  10  66
HETATM   66  O   UNK N   1      34.655   8.646   4.923  0.00  0.00    -0.390 OA
HETATM   67  H   UNK N   1      35.263   8.868   4.201  0.00  0.00     0.210 HD
ENDBRANCH  10  66
BRANCH   5  68
HETATM   68  C   UNK N   1      31.433   5.155   3.641  0.00  0.00     0.198 C 
BRANCH  68  69
HETATM   69  O   UNK N   1      30.938   6.005   2.650  0.00  0.00    -0.398 OA
HETATM   70  H   UNK N   1      30.192   6.610   2.785  0.00  0.00     0.209 HD
ENDBRANCH  68  69
ENDBRANCH   5  68
BRANCH   4  71
HETATM   71  C   UNK N   1      31.591  15.122   9.207  0.00  0.00     0.198 C 
BRANCH  71  72
HETATM   72  O   UNK N   1      32.167  14.940  10.467  0.00  0.00    -0.398 OA
HETATM   73  H   UNK N   1      32.160  15.450  11.292  0.00  0.00     0.209 HD
ENDBRANCH  71  72
ENDBRANCH   4  71
BRANCH  11  74
HETATM   74  O   UNK N   1      32.024  17.410   7.578  0.00  0.00    -0.390 OA
HETATM   75  H   UNK N   1      31.472  18.038   8.070  0.00  0.00     0.210 HD
ENDBRANCH  11  74
BRANCH  17  76
HETATM   76  O   UNK N   1      31.740  16.828   5.032  0.00  0.00    -0.388 OA
HETATM   77  H   UNK N   1      31.666  17.738   4.704  0.00  0.00     0.210 HD
ENDBRANCH  17  76
BRANCH  18  78
HETATM   78  O   UNK N   1      33.195   9.822   6.506  0.00  0.00    -0.388 OA
HETATM   79  H   UNK N   1      33.263  10.050   7.447  0.00  0.00     0.210 HD
ENDBRANCH  18  78
BRANCH  12  80
HETATM   80  O   UNK N   1      32.799  12.220   6.892  0.00  0.00    -0.390 OA
HETATM   81  H   UNK N   1      32.966  11.642   7.652  0.00  0.00     0.210 HD
ENDBRANCH  12  80
BRANCH   6  82
HETATM   82  C   UNK N   1      30.615  12.562   2.431  0.00  0.00     0.198 C 
BRANCH  82  83
HETATM   83  O   UNK N   1      29.695  13.332   3.149  0.00  0.00    -0.398 OA
HETATM   84  H   UNK N   1      29.871  13.758   4.002  0.00  0.00     0.209 HD
ENDBRANCH  82  83
ENDBRANCH   6  82
TORSDOF 24
ENDMDL
MODEL 5
REMARK VINA RESULT:      -6.1      2.809      9.396
REMARK  24 active torsions:
REMARK  status: ('A' for Active; 'I' for Inactive)
REMARK    1  A    between atoms: C_7  and  C_1 
REMARK    2  A    between atoms: O_37  and  C_1 
REMARK    3  A    between atoms: C_8  and  C_2 
REMARK    4  A    between atoms: O_38  and  C_2 
REMARK    5  A    between atoms: C_9  and  C_3 
REMARK    6  A    between atoms: O_39  and  C_3 
REMARK    7  A    between atoms: C_10  and  C_4 
REMARK    8  A    between atoms: O_40  and  C_4 
REMARK    9  A    between atoms: C_11  and  C_5 
REMARK   10  A    between atoms: O_41  and  C_5 
REMARK   11  A    between atoms: C_12  and  C_6 
REMARK   12  A    between atoms: O_42  and  C_6 
REMARK   13  A    between atoms: C_13  and  O_43 
REMARK   14  A    between atoms: C_14  and  O_44 
REMARK   15  A    between atoms: C_15  and  O_45 
REMARK   16  A    between atoms: C_16  and  O_46 
REMARK   17  A    between atoms: C_17  and  O_47 
REMARK   18  A    between atoms: C_18  and  O_48 
REMARK   19  A    between atoms: C_19  and  O_49 
REMARK   20  A    between atoms: C_20  and  O_50 
REMARK   21  A    between atoms: C_21  and  O_51 
REMARK   22  A    between atoms: C_22  and  O_52 
REMARK   23  A    between atoms: C_23  and  O_53 
REMARK   24  A    between atoms: C_24  and  O_54 
ROOT
HETATM    1  C   UNK N   1      34.007  15.944   9.518  0.00  0.00     0.180 C 
HETATM    2  C   UNK N   1      33.483  11.252   7.668  0.00  0.00     0.180 C 
HETATM    3  C   UNK N   1      29.824  18.082   6.232  0.00  0.00     0.180 C 
HETATM    4  C   UNK N   1      32.935  10.736   3.269  0.00  0.00     0.180 C 
HETATM    5  C   UNK N   1      25.175  15.896   4.248  0.00  0.00     0.180 C 
HETATM    6  C   UNK N   1      27.477  10.680   2.007  0.00  0.00     0.180 C 
HETATM    7  C   UNK N   1      32.916  15.292   7.383  0.00  0.00     0.183 C 
HETATM    8  C   UNK N   1      28.558  18.561   8.249  0.00  0.00     0.183 C 
HETATM    9  C   UNK N   1      35.965  11.645   7.092  0.00  0.00     0.183 C 
HETATM   10  C   UNK N   1      26.221  14.222   5.782  0.00  0.00     0.183 C 
HETATM   11  C   UNK N   1      33.264   8.274   3.009  0.00  0.00     0.183 C 
HETATM   12  C   UNK N   1      29.180  11.546   3.549  0.00  0.00     0.183 C 
HETATM   13  C   UNK N   1      34.278  14.774   6.927  0.00  0.00     0.204 C 
HETATM   14  C   UNK N   1      29.764  18.050   9.083  0.00  0.00     0.204 C 
HETATM   15  C   UNK N   1      35.899  10.154   6.703  0.00  0.00     0.204 C 
HETATM   16  C   UNK N   1      27.258  15.338   5.862  0.00  0.00     0.204 C 
HETATM   17  C   UNK N   1      31.761   8.147   2.547  0.00  0.00     0.204 C 
HETATM   18  C   UNK N   1      28.438  12.840   3.533  0.00  0.00     0.204 C 
HETATM   19  C   UNK N   1      33.107  16.490   8.366  0.00  0.00     0.187 C 
HETATM   20  C   UNK N   1      34.822  11.885   8.139  0.00  0.00     0.187 C 
HETATM   21  C   UNK N   1      28.523  17.705   6.972  0.00  0.00     0.187 C 
HETATM   22  C   UNK N   1      33.369   9.433   4.028  0.00  0.00     0.187 C 
HETATM   23  C   UNK N   1      25.502  14.338   4.429  0.00  0.00     0.187 C 
HETATM   24  C   UNK N   1      29.033  10.819   2.199  0.00  0.00     0.187 C 
HETATM   25  C   UNK N   1      35.121  14.323   8.124  0.00  0.00     0.292 C 
HETATM   26  C   UNK N   1      31.110  17.943   8.271  0.00  0.00     0.292 C 
HETATM   27  C   UNK N   1      34.522   9.794   6.062  0.00  0.00     0.292 C 
HETATM   28  C   UNK N   1      26.499  16.626   6.219  0.00  0.00     0.292 C 
HETATM   29  C   UNK N   1      30.989   9.487   2.754  0.00  0.00     0.292 C 
HETATM   30  C   UNK N   1      26.924  12.614   3.300  0.00  0.00     0.292 C 
HETATM   31  O   UNK N   1      35.252  15.395   9.063  0.00  0.00    -0.348 OA
HETATM   32  O   UNK N   1      30.933  17.532   6.925  0.00  0.00    -0.348 OA
HETATM   33  O   UNK N   1      33.531  10.794   6.327  0.00  0.00    -0.348 OA
HETATM   34  O   UNK N   1      25.290  16.742   5.427  0.00  0.00    -0.348 OA
HETATM   35  O   UNK N   1      31.851  10.544   2.342  0.00  0.00    -0.348 OA
HETATM   36  O   UNK N   1      26.806  11.961   2.032  0.00  0.00    -0.348 OA
HETATM   37  O   UNK N   1      31.896  16.965   8.970  0.00  0.00    -0.348 OA
HETATM   38  O   UNK N   1      34.600  13.164   8.761  0.00  0.00    -0.348 OA
HETATM   39  O   UNK N   1      27.326  17.823   6.166  0.00  0.00    -0.348 OA
HETATM   40  O   UNK N   1      34.646   9.612   4.642  0.00  0.00    -0.348 OA
HETATM   41  O   UNK N   1      26.251  13.895   3.259  0.00  0.00    -0.348 OA
HETATM   42  O   UNK N   1      29.704   9.533   2.129  0.00  0.00    -0.348 OA
ENDROOT
BRANCH   1  43
HETATM   43  C   UNK N   1      33.251  14.953  10.416  0.00  0.00     0.198 C 
BRANCH  43  44
HETATM   44  O   UNK N   1      34.043  14.560  11.496  0.00  0.00    -0.398 OA
HETATM   45  H   UNK N   1      34.818  13.977  11.467  0.00  0.00     0.209 HD
ENDBRANCH  43  44
ENDBRANCH   1  43
BRANCH   7  46
HETATM   46  O   UNK N   1      32.232  15.635   6.229  0.00  0.00    -0.390 OA
HETATM   47  H   UNK N   1      32.572  15.726   5.325  0.00  0.00     0.210 HD
ENDBRANCH   7  46
BRANCH  13  48
HETATM   48  O   UNK N   1      34.965  15.782   6.240  0.00  0.00    -0.388 OA
HETATM   49  H   UNK N   1      35.220  16.628   5.840  0.00  0.00     0.210 HD
ENDBRANCH  13  48
BRANCH  14  50
HETATM   50  O   UNK N   1      29.432  16.780   9.577  0.00  0.00    -0.388 OA
HETATM   51  H   UNK N   1      29.719  15.911   9.898  0.00  0.00     0.210 HD
ENDBRANCH  14  50
BRANCH   8  52
HETATM   52  O   UNK N   1      27.378  18.409   8.983  0.00  0.00    -0.390 OA
HETATM   53  H   UNK N   1      26.421  18.254   8.943  0.00  0.00     0.210 HD
ENDBRANCH   8  52
BRANCH   3  54
HETATM   54  C   UNK N   1      29.889  17.611   4.780  0.00  0.00     0.198 C 
BRANCH  54  55
HETATM   55  O   UNK N   1      28.946  18.251   3.977  0.00  0.00    -0.398 OA
HETATM   56  H   UNK N   1      28.636  17.906   3.126  0.00  0.00     0.209 HD
ENDBRANCH  54  55
ENDBRANCH   3  54
BRANCH   2  57
HETATM   57  C   UNK N   1      32.986  10.154   8.617  0.00  0.00     0.198 C 
BRANCH  57  58
HETATM   58  O   UNK N   1      32.083  10.680   9.543  0.00  0.00    -0.398 OA
HETATM   59  H   UNK N   1      31.859  10.263  10.391  0.00  0.00     0.209 HD
ENDBRANCH  57  58
ENDBRANCH   2  57
BRANCH   9  60
HETATM   60  O   UNK N   1      35.823  12.410   5.934  0.00  0.00    -0.390 OA
HETATM   61  H   UNK N   1      35.288  13.026   5.409  0.00  0.00     0.210 HD
ENDBRANCH   9  60
BRANCH  15  62
HETATM   62  O   UNK N   1      36.961   9.794   5.867  0.00  0.00    -0.388 OA
HETATM   63  H   UNK N   1      37.664   9.129   5.917  0.00  0.00     0.210 HD
ENDBRANCH  15  62
BRANCH  16  64
HETATM   64  O   UNK N   1      27.874  15.589   4.634  0.00  0.00    -0.388 OA
HETATM   65  H   UNK N   1      28.198  15.402   3.739  0.00  0.00     0.210 HD
ENDBRANCH  16  64
BRANCH  10  66
HETATM   66  O   UNK N   1      26.732  12.955   6.062  0.00  0.00    -0.390 OA
HETATM   67  H   UNK N   1      27.606  12.735   6.421  0.00  0.00     0.210 HD
ENDBRANCH  10  66
BRANCH   5  68
HETATM   68  C   UNK N   1      23.778  16.073   3.663  0.00  0.00     0.198 C 
BRANCH  68  69
HETATM   69  O   UNK N   1      23.499  15.077   2.725  0.00  0.00    -0.398 OA
HETATM   70  H   UNK N   1      23.107  15.252   1.855  0.00  0.00     0.209 HD
ENDBRANCH  68  69
ENDBRANCH   5  68
BRANCH   4  71
HETATM   71  C   UNK N   1      34.099  11.337   2.486  0.00  0.00     0.198 C 
BRANCH  71  72
HETATM   72  O   UNK N   1      34.853  12.167   3.319  0.00  0.00    -0.398 OA
HETATM   73  H   UNK N   1      35.685  12.059   3.806  0.00  0.00     0.209 HD
ENDBRANCH  71  72
ENDBRANCH   4  71
BRANCH  11  74
HETATM   74  O   UNK N   1      34.094   8.553   1.914  0.00  0.00    -0.390 OA
HETATM   75  H   UNK N   1      34.359   8.671   0.989  0.00  0.00     0.210 HD
ENDBRANCH  11  74
BRANCH  17  76
HETATM   76  O   UNK N   1      31.699   7.734   1.212  0.00  0.00    -0.388 OA
HETATM   77  H   UNK N   1      30.959   7.803   0.590  0.00  0.00     0.210 HD
ENDBRANCH  17  76
BRANCH  18  78
HETATM   78  O   UNK N   1      28.758  13.407   4.753  0.00  0.00    -0.388 OA
HETATM   79  H   UNK N   1      29.546  13.956   4.889  0.00  0.00     0.210 HD
ENDBRANCH  18  78
BRANCH  12  80
HETATM   80  O   UNK N   1      30.483  11.907   3.843  0.00  0.00    -0.390 OA
HETATM   81  H   UNK N   1      31.271  11.649   3.340  0.00  0.00     0.210 HD
ENDBRANCH  12  80
BRANCH   6  82
HETATM   82  C   UNK N   1      27.144  10.012   0.675  0.00  0.00     0.198 C 
BRANCH  82  83
HETATM   83  O   UNK N   1      27.312   8.626   0.753  0.00  0.00    -0.398 OA
HETATM   84  H   UNK N   1      26.926   7.983   0.139  0.00  0.00     0.209 HD
ENDBRANCH  82  83
ENDBRANCH   6  82
TORSDOF 24
ENDMDL
MODEL 6
REMARK VINA RESULT:      -5.9      2.769     10.621
REMARK  24 active torsions:
REMARK  status: ('A' for Active; 'I' for Inactive)
REMARK    1  A    between atoms: C_7  and  C_1 
REMARK    2  A    between atoms: O_37  and  C_1 
REMARK    3  A    between atoms: C_8  and  C_2 
REMARK    4  A    between atoms: O_38  and  C_2 
REMARK    5  A    between atoms: C_9  and  C_3 
REMARK    6  A    between atoms: O_39  and  C_3 
REMARK    7  A    between atoms: C_10  and  C_4 
REMARK    8  A    between atoms: O_40  and  C_4 
REMARK    9  A    between atoms: C_11  and  C_5 
REMARK   10  A    between atoms: O_41  and  C_5 
REMARK   11  A    between atoms: C_12  and  C_6 
REMARK   12  A    between atoms: O_42  and  C_6 
REMARK   13  A    between atoms: C_13  and  O_43 
REMARK   14  A    between atoms: C_14  and  O_44 
REMARK   15  A    between atoms: C_15  and  O_45 
REMARK   16  A    between atoms: C_16  and  O_46 
REMARK   17  A    between atoms: C_17  and  O_47 
REMARK   18  A    between atoms: C_18  and  O_48 
REMARK   19  A    between atoms: C_19  and  O_49 
REMARK   20  A    between atoms: C_20  and  O_50 
REMARK   21  A    between atoms: C_21  and  O_51 
REMARK   22  A    between atoms: C_22  and  O_52 
REMARK   23  A    between atoms: C_23  and  O_53 
REMARK   24  A    between atoms: C_24  and  O_54 
ROOT
HETATM    1  C   UNK N   1      34.883  12.585   7.993  0.00  0.00     0.180 C 
HETATM    2  C   UNK N   1      31.582   9.271   6.033  0.00  0.00     0.180 C 
HETATM    3  C   UNK N   1      31.998  17.140   6.048  0.00  0.00     0.180 C 
HETATM    4  C   UNK N   1      30.051   9.970   1.900  0.00  0.00     0.180 C 
HETATM    5  C   UNK N   1      26.636  18.052   5.188  0.00  0.00     0.180 C 
HETATM    6  C   UNK N   1      25.304  12.939   2.087  0.00  0.00     0.180 C 
HETATM    7  C   UNK N   1      33.245  13.006   6.173  0.00  0.00     0.183 C 
HETATM    8  C   UNK N   1      31.584  17.795   8.350  0.00  0.00     0.183 C 
HETATM    9  C   UNK N   1      33.730   8.452   4.864  0.00  0.00     0.183 C 
HETATM   10  C   UNK N   1      26.872  15.818   6.286  0.00  0.00     0.183 C 
HETATM   11  C   UNK N   1      28.946   7.786   1.400  0.00  0.00     0.183 C 
HETATM   12  C   UNK N   1      27.452  12.502   3.192  0.00  0.00     0.183 C 
HETATM   13  C   UNK N   1      34.001  11.967   5.348  0.00  0.00     0.204 C 
HETATM   14  C   UNK N   1      32.452  16.592   8.809  0.00  0.00     0.204 C 
HETATM   15  C   UNK N   1      32.800   7.310   4.406  0.00  0.00     0.204 C 
HETATM   16  C   UNK N   1      28.341  16.212   6.170  0.00  0.00     0.204 C 
HETATM   17  C   UNK N   1      27.557   8.533   1.334  0.00  0.00     0.204 C 
HETATM   18  C   UNK N   1      27.538  13.968   3.454  0.00  0.00     0.204 C 
HETATM   19  C   UNK N   1      34.227  13.723   7.151  0.00  0.00     0.187 C 
HETATM   20  C   UNK N   1      33.112   9.031   6.184  0.00  0.00     0.187 C 
HETATM   21  C   UNK N   1      30.860  17.341   7.071  0.00  0.00     0.187 C 
HETATM   22  C   UNK N   1      29.844   8.508   2.432  0.00  0.00     0.187 C 
HETATM   23  C   UNK N   1      26.096  16.542   5.174  0.00  0.00     0.187 C 
HETATM   24  C   UNK N   1      26.693  12.228   1.880  0.00  0.00     0.187 C 
HETATM   25  C   UNK N   1      34.670  10.928   6.255  0.00  0.00     0.292 C 
HETATM   26  C   UNK N   1      33.352  15.975   7.672  0.00  0.00     0.292 C 
HETATM   27  C   UNK N   1      31.357   7.831   4.120  0.00  0.00     0.292 C 
HETATM   28  C   UNK N   1      28.477  17.609   6.795  0.00  0.00     0.292 C 
HETATM   29  C   UNK N   1      27.684  10.009   1.821  0.00  0.00     0.292 C 
HETATM   30  C   UNK N   1      26.129  14.593   3.605  0.00  0.00     0.292 C 
HETATM   31  O   UNK N   1      35.526  11.580   7.198  0.00  0.00    -0.348 OA
HETATM   32  O   UNK N   1      32.739  15.982   6.392  0.00  0.00    -0.348 OA
HETATM   33  O   UNK N   1      31.131   9.122   4.698  0.00  0.00    -0.348 OA
HETATM   34  O   UNK N   1      27.401  18.474   6.351  0.00  0.00    -0.348 OA
HETATM   35  O   UNK N   1      28.887  10.539   1.273  0.00  0.00    -0.348 OA
HETATM   36  O   UNK N   1      25.448  14.350   2.370  0.00  0.00    -0.348 OA
HETATM   37  O   UNK N   1      33.599  14.620   8.078  0.00  0.00    -0.348 OA
HETATM   38  O   UNK N   1      33.732  10.097   6.926  0.00  0.00    -0.348 OA
HETATM   39  O   UNK N   1      29.792  18.205   6.611  0.00  0.00    -0.348 OA
HETATM   40  O   UNK N   1      31.101   7.891   2.707  0.00  0.00    -0.348 OA
HETATM   41  O   UNK N   1      26.260  16.018   3.824  0.00  0.00    -0.348 OA
HETATM   42  O   UNK N   1      26.538  10.822   1.554  0.00  0.00    -0.348 OA
ENDROOT
BRANCH   1  43
HETATM   43  C   UNK N   1      33.890  11.963   8.988  0.00  0.00     0.198 C 
BRANCH  43  44
HETATM   44  O   UNK N   1      33.800  12.736  10.146  0.00  0.00    -0.398 OA
HETATM   45  H   UNK N   1      33.788  13.705  10.199  0.00  0.00     0.209 HD
ENDBRANCH  43  44
ENDBRANCH   1  43
BRANCH   7  46
HETATM   46  O   UNK N   1      32.657  13.865   5.260  0.00  0.00    -0.390 OA
HETATM   47  H   UNK N   1      32.413  14.797   5.372  0.00  0.00     0.210 HD
ENDBRANCH   7  46
BRANCH  13  48
HETATM   48  O   UNK N   1      34.984  12.598   4.576  0.00  0.00    -0.388 OA
HETATM   49  H   UNK N   1      35.581  12.850   3.854  0.00  0.00     0.210 HD
ENDBRANCH  13  48
BRANCH  14  50
HETATM   50  O   UNK N   1      31.584  15.598   9.286  0.00  0.00    -0.388 OA
HETATM   51  H   UNK N   1      30.949  15.298   9.955  0.00  0.00     0.210 HD
ENDBRANCH  14  50
BRANCH   8  52
HETATM   52  O   UNK N   1      30.666  18.124   9.351  0.00  0.00    -0.390 OA
HETATM   53  H   UNK N   1      30.158  18.834   9.774  0.00  0.00     0.210 HD
ENDBRANCH   8  52
BRANCH   3  54
HETATM   54  C   UNK N   1      31.532  16.994   4.600  0.00  0.00     0.198 C 
BRANCH  54  55
HETATM   55  O   UNK N   1      30.975  18.172   4.105  0.00  0.00    -0.398 OA
HETATM   56  H   UNK N   1      30.446  18.787   4.637  0.00  0.00     0.209 HD
ENDBRANCH  54  55
ENDBRANCH   3  54
BRANCH   2  57
HETATM   57  C   UNK N   1      30.755   8.418   7.003  0.00  0.00     0.198 C 
BRANCH  57  58
HETATM   58  O   UNK N   1      30.694   9.025   8.258  0.00  0.00    -0.398 OA
HETATM   59  H   UNK N   1      30.175   8.690   9.007  0.00  0.00     0.209 HD
ENDBRANCH  57  58
ENDBRANCH   2  57
BRANCH   9  60
HETATM   60  O   UNK N   1      33.815   9.392   3.835  0.00  0.00    -0.390 OA
HETATM   61  H   UNK N   1      34.218  10.201   3.484  0.00  0.00     0.210 HD
ENDBRANCH   9  60
BRANCH  15  62
HETATM   62  O   UNK N   1      33.327   6.631   3.303  0.00  0.00    -0.388 OA
HETATM   63  H   UNK N   1      33.476   6.865   2.375  0.00  0.00     0.210 HD
ENDBRANCH  15  62
BRANCH  16  64
HETATM   64  O   UNK N   1      28.758  16.348   4.844  0.00  0.00    -0.388 OA
HETATM   65  H   UNK N   1      28.764  16.196   3.886  0.00  0.00     0.210 HD
ENDBRANCH  16  64
BRANCH  10  66
HETATM   66  O   UNK N   1      26.660  14.440   6.339  0.00  0.00    -0.390 OA
HETATM   67  H   UNK N   1      26.378  13.856   5.619  0.00  0.00     0.210 HD
ENDBRANCH  10  66
BRANCH   5  68
HETATM   68  C   UNK N   1      25.475  19.023   4.996  0.00  0.00     0.198 C 
BRANCH  68  69
HETATM   69  O   UNK N   1      24.285  18.337   4.743  0.00  0.00    -0.398 OA
HETATM   70  H   UNK N   1      23.413  18.652   5.026  0.00  0.00     0.209 HD
ENDBRANCH  68  69
ENDBRANCH   5  68
BRANCH   4  71
HETATM   71  C   UNK N   1      31.189  10.035   0.885  0.00  0.00     0.198 C 
BRANCH  71  72
HETATM   72  O   UNK N   1      32.409  10.186   1.549  0.00  0.00    -0.398 OA
HETATM   73  H   UNK N   1      33.298   9.820   1.420  0.00  0.00     0.209 HD
ENDBRANCH  71  72
ENDBRANCH   4  71
BRANCH  11  74
HETATM   74  O   UNK N   1      29.579   7.811   0.149  0.00  0.00    -0.390 OA
HETATM   75  H   UNK N   1      30.174   8.109  -0.556  0.00  0.00     0.210 HD
ENDBRANCH  11  74
BRANCH  17  76
HETATM   76  O   UNK N   1      27.040   8.476   0.036  0.00  0.00    -0.388 OA
HETATM   77  H   UNK N   1      26.340   7.903  -0.313  0.00  0.00     0.210 HD
ENDBRANCH  17  76
BRANCH  18  78
HETATM   78  O   UNK N   1      28.329  14.045   4.585  0.00  0.00    -0.388 OA
HETATM   79  H   UNK N   1      29.261  14.315   4.560  0.00  0.00     0.210 HD
ENDBRANCH  18  78
BRANCH  12  80
HETATM   80  O   UNK N   1      28.772  12.086   3.163  0.00  0.00    -0.390 OA
HETATM   81  H   UNK N   1      29.531  12.627   2.896  0.00  0.00     0.210 HD
ENDBRANCH  12  80
BRANCH   6  82
HETATM   82  C   UNK N   1      24.426  12.805   0.844  0.00  0.00     0.198 C 
BRANCH  82  83
HETATM   83  O   UNK N   1      23.991  14.057   0.401  0.00  0.00    -0.398 OA
HETATM   84  H   UNK N   1      23.658  14.248  -0.490  0.00  0.00     0.209 HD
ENDBRANCH  82  83
ENDBRANCH   6  82
TORSDOF 24
ENDMDL
MODEL 7
REMARK VINA RESULT:      -5.8      6.010     11.703
REMARK  24 active torsions:
REMARK  status: ('A' for Active; 'I' for Inactive)
REMARK    1  A    between atoms: C_7  and  C_1 
REMARK    2  A    between atoms: O_37  and  C_1 
REMARK    3  A    between atoms: C_8  and  C_2 
REMARK    4  A    between atoms: O_38  and  C_2 
REMARK    5  A    between atoms: C_9  and  C_3 
REMARK    6  A    between atoms: O_39  and  C_3 
REMARK    7  A    between atoms: C_10  and  C_4 
REMARK    8  A    between atoms: O_40  and  C_4 
REMARK    9  A    between atoms: C_11  and  C_5 
REMARK   10  A    between atoms: O_41  and  C_5 
REMARK   11  A    between atoms: C_12  and  C_6 
REMARK   12  A    between atoms: O_42  and  C_6 
REMARK   13  A    between atoms: C_13  and  O_43 
REMARK   14  A    between atoms: C_14  and  O_44 
REMARK   15  A    between atoms: C_15  and  O_45 
REMARK   16  A    between atoms: C_16  and  O_46 
REMARK   17  A    between atoms: C_17  and  O_47 
REMARK   18  A    between atoms: C_18  and  O_48 
REMARK   19  A    between atoms: C_19  and  O_49 
REMARK   20  A    between atoms: C_20  and  O_50 
REMARK   21  A    between atoms: C_21  and  O_51 
REMARK   22  A    between atoms: C_22  and  O_52 
REMARK   23  A    between atoms: C_23  and  O_53 
REMARK   24  A    between atoms: C_24  and  O_54 
ROOT
HETATM    1  C   UNK N   1      21.419  18.088   4.741  0.00  0.00     0.180 C 
HETATM    2  C   UNK N   1      21.516  13.268   3.165  0.00  0.00     0.180 C 
HETATM    3  C   UNK N   1      26.976  18.103   6.149  0.00  0.00     0.180 C 
HETATM    4  C   UNK N   1      23.718  10.260   5.618  0.00  0.00     0.180 C 
HETATM    5  C   UNK N   1      31.344  15.477   4.063  0.00  0.00     0.180 C 
HETATM    6  C   UNK N   1      29.007   9.819   3.823  0.00  0.00     0.180 C 
HETATM    7  C   UNK N   1      23.112  16.361   5.314  0.00  0.00     0.183 C 
HETATM    8  C   UNK N   1      27.353  19.777   4.429  0.00  0.00     0.183 C 
HETATM    9  C   UNK N   1      19.683  13.074   4.968  0.00  0.00     0.183 C 
HETATM   10  C   UNK N   1      29.378  14.990   2.597  0.00  0.00     0.183 C 
HETATM   11  C   UNK N   1      22.941   8.117   4.597  0.00  0.00     0.183 C 
HETATM   12  C   UNK N   1      27.080  11.321   4.067  0.00  0.00     0.183 C 
HETATM   13  C   UNK N   1      21.987  15.585   5.994  0.00  0.00     0.204 C 
HETATM   14  C   UNK N   1      25.823  19.788   4.158  0.00  0.00     0.204 C 
HETATM   15  C   UNK N   1      19.542  11.655   4.380  0.00  0.00     0.204 C 
HETATM   16  C   UNK N   1      28.709  15.860   3.655  0.00  0.00     0.204 C 
HETATM   17  C   UNK N   1      24.419   7.838   4.120  0.00  0.00     0.204 C 
HETATM   18  C   UNK N   1      28.050  12.394   4.435  0.00  0.00     0.204 C 
HETATM   19  C   UNK N   1      22.823  17.893   5.395  0.00  0.00     0.187 C 
HETATM   20  C   UNK N   1      20.300  13.968   3.837  0.00  0.00     0.187 C 
HETATM   21  C   UNK N   1      27.712  18.331   4.810  0.00  0.00     0.187 C 
HETATM   22  C   UNK N   1      22.703   9.645   4.591  0.00  0.00     0.187 C 
HETATM   23  C   UNK N   1      30.604  14.319   3.237  0.00  0.00     0.187 C 
HETATM   24  C   UNK N   1      27.599   9.943   4.518  0.00  0.00     0.187 C 
HETATM   25  C   UNK N   1      20.637  15.885   5.334  0.00  0.00     0.292 C 
HETATM   26  C   UNK N   1      24.961  19.128   5.300  0.00  0.00     0.292 C 
HETATM   27  C   UNK N   1      20.927  11.075   3.957  0.00  0.00     0.292 C 
HETATM   28  C   UNK N   1      29.535  17.152   3.757  0.00  0.00     0.292 C 
HETATM   29  C   UNK N   1      25.332   9.083   4.346  0.00  0.00     0.292 C 
HETATM   30  C   UNK N   1      29.416  12.174   3.742  0.00  0.00     0.292 C 
HETATM   31  O   UNK N   1      20.389  17.295   5.347  0.00  0.00    -0.348 OA
HETATM   32  O   UNK N   1      25.583  18.006   5.906  0.00  0.00    -0.348 OA
HETATM   33  O   UNK N   1      21.925  12.097   3.851  0.00  0.00    -0.348 OA
HETATM   34  O   UNK N   1      30.954  16.850   3.780  0.00  0.00    -0.348 OA
HETATM   35  O   UNK N   1      25.009   9.623   5.623  0.00  0.00    -0.348 OA
HETATM   36  O   UNK N   1      29.894  10.901   4.189  0.00  0.00    -0.348 OA
HETATM   37  O   UNK N   1      23.743  18.714   4.662  0.00  0.00    -0.348 OA
HETATM   38  O   UNK N   1      20.544  15.376   4.010  0.00  0.00    -0.348 OA
HETATM   39  O   UNK N   1      29.126  18.021   4.850  0.00  0.00    -0.348 OA
HETATM   40  O   UNK N   1      21.372  10.071   4.885  0.00  0.00    -0.348 OA
HETATM   41  O   UNK N   1      30.333  13.216   4.152  0.00  0.00    -0.348 OA
HETATM   42  O   UNK N   1      26.730   8.830   4.180  0.00  0.00    -0.348 OA
ENDROOT
BRANCH   1  43
HETATM   43  C   UNK N   1      21.463  17.883   3.218  0.00  0.00     0.198 C 
BRANCH  43  44
HETATM   44  O   UNK N   1      20.196  18.059   2.660  0.00  0.00    -0.398 OA
HETATM   45  H   UNK N   1      19.845  18.868   2.256  0.00  0.00     0.209 HD
ENDBRANCH  43  44
ENDBRANCH   1  43
BRANCH   7  46
HETATM   46  O   UNK N   1      24.278  15.989   5.961  0.00  0.00    -0.390 OA
HETATM   47  H   UNK N   1      24.434  15.864   6.910  0.00  0.00     0.210 HD
ENDBRANCH   7  46
BRANCH  13  48
HETATM   48  O   UNK N   1      21.920  15.933   7.348  0.00  0.00    -0.388 OA
HETATM   49  H   UNK N   1      22.037  16.381   8.201  0.00  0.00     0.210 HD
ENDBRANCH  13  48
BRANCH  14  50
HETATM   50  O   UNK N   1      25.597  19.091   2.962  0.00  0.00    -0.388 OA
HETATM   51  H   UNK N   1      25.649  19.061   1.994  0.00  0.00     0.210 HD
ENDBRANCH  14  50
BRANCH   8  52
HETATM   52  O   UNK N   1      28.039  20.172   3.277  0.00  0.00    -0.390 OA
HETATM   53  H   UNK N   1      28.276  19.944   2.364  0.00  0.00     0.210 HD
ENDBRANCH   8  52
BRANCH   3  54
HETATM   54  C   UNK N   1      27.415  16.854   6.910  0.00  0.00     0.198 C 
BRANCH  54  55
HETATM   55  O   UNK N   1      28.721  16.962   7.389  0.00  0.00    -0.398 OA
HETATM   56  H   UNK N   1      29.145  16.301   7.959  0.00  0.00     0.209 HD
ENDBRANCH  54  55
ENDBRANCH   3  54
BRANCH   2  57
HETATM   57  C   UNK N   1      21.285  12.993   1.674  0.00  0.00     0.198 C 
BRANCH  57  58
HETATM   58  O   UNK N   1      20.675  14.089   1.063  0.00  0.00    -0.398 OA
HETATM   59  H   UNK N   1      21.100  14.657   0.400  0.00  0.00     0.209 HD
ENDBRANCH  57  58
ENDBRANCH   2  57
BRANCH   9  60
HETATM   60  O   UNK N   1      20.479  13.001   6.112  0.00  0.00    -0.390 OA
HETATM   61  H   UNK N   1      20.692  13.341   6.995  0.00  0.00     0.210 HD
ENDBRANCH   9  60
BRANCH  15  62
HETATM   62  O   UNK N   1      18.877  10.798   5.263  0.00  0.00    -0.388 OA
HETATM   63  H   UNK N   1      18.997   9.872   5.524  0.00  0.00     0.210 HD
ENDBRANCH  15  62
BRANCH  16  64
HETATM   64  O   UNK N   1      28.748  15.285   4.927  0.00  0.00    -0.388 OA
HETATM   65  H   UNK N   1      28.699  14.584   5.596  0.00  0.00     0.210 HD
ENDBRANCH  16  64
BRANCH  10  66
HETATM   66  O   UNK N   1      28.506  14.112   1.953  0.00  0.00    -0.390 OA
HETATM   67  H   UNK N   1      27.964  14.285   1.168  0.00  0.00     0.210 HD
ENDBRANCH  10  66
BRANCH   5  68
HETATM   68  C   UNK N   1      32.855  15.360   3.887  0.00  0.00     0.198 C 
BRANCH  68  69
HETATM   69  O   UNK N   1      33.209  14.085   3.440  0.00  0.00    -0.398 OA
HETATM   70  H   UNK N   1      32.895  13.265   3.851  0.00  0.00     0.209 HD
ENDBRANCH  68  69
ENDBRANCH   5  68
BRANCH   4  71
HETATM   71  C   UNK N   1      23.175  10.194   7.043  0.00  0.00     0.198 C 
BRANCH  71  72
HETATM   72  O   UNK N   1      22.420  11.338   7.316  0.00  0.00    -0.398 OA
HETATM   73  H   UNK N   1      21.479  11.560   7.235  0.00  0.00     0.209 HD
ENDBRANCH  71  72
ENDBRANCH   4  71
BRANCH  11  74
HETATM   74  O   UNK N   1      22.743   7.630   5.897  0.00  0.00    -0.390 OA
HETATM   75  H   UNK N   1      22.672   7.640   6.864  0.00  0.00     0.210 HD
ENDBRANCH  11  74
BRANCH  17  76
HETATM   76  O   UNK N   1      24.933   6.714   4.773  0.00  0.00    -0.388 OA
HETATM   77  H   UNK N   1      25.785   6.612   5.225  0.00  0.00     0.210 HD
ENDBRANCH  17  76
BRANCH  18  78
HETATM   78  O   UNK N   1      27.395  13.556   4.069  0.00  0.00    -0.388 OA
HETATM   79  H   UNK N   1      26.606  13.883   4.528  0.00  0.00     0.210 HD
ENDBRANCH  18  78
BRANCH  12  80
HETATM   80  O   UNK N   1      25.905  11.700   4.693  0.00  0.00    -0.390 OA
HETATM   81  H   UNK N   1      25.038  11.786   4.268  0.00  0.00     0.210 HD
ENDBRANCH  12  80
BRANCH   6  82
HETATM   82  C   UNK N   1      29.695   8.510   4.204  0.00  0.00     0.198 C 
BRANCH  82  83
HETATM   83  O   UNK N   1      29.309   8.093   5.481  0.00  0.00    -0.398 OA
HETATM   84  H   UNK N   1      28.916   7.233   5.691  0.00  0.00     0.209 HD
ENDBRANCH  82  83
ENDBRANCH   6  82
TORSDOF 24
ENDMDL
MODEL 8
REMARK VINA RESULT:      -5.8      3.161      8.006
REMARK  24 active torsions:
REMARK  status: ('A' for Active; 'I' for Inactive)
REMARK    1  A    between atoms: C_7  and  C_1 
REMARK    2  A    between atoms: O_37  and  C_1 
REMARK    3  A    between atoms: C_8  and  C_2 
REMARK    4  A    between atoms: O_38  and  C_2 
REMARK    5  A    between atoms: C_9  and  C_3 
REMARK    6  A    between atoms: O_39  and  C_3 
REMARK    7  A    between atoms: C_10  and  C_4 
REMARK    8  A    between atoms: O_40  and  C_4 
REMARK    9  A    between atoms: C_11  and  C_5 
REMARK   10  A    between atoms: O_41  and  C_5 
REMARK   11  A    between atoms: C_12  and  C_6 
REMARK   12  A    between atoms: O_42  and  C_6 
REMARK   13  A    between atoms: C_13  and  O_43 
REMARK   14  A    between atoms: C_14  and  O_44 
REMARK   15  A    between atoms: C_15  and  O_45 
REMARK   16  A    between atoms: C_16  and  O_46 
REMARK   17  A    between atoms: C_17  and  O_47 
REMARK   18  A    between atoms: C_18  and  O_48 
REMARK   19  A    between atoms: C_19  and  O_49 
REMARK   20  A    between atoms: C_20  and  O_50 
REMARK   21  A    between atoms: C_21  and  O_51 
REMARK   22  A    between atoms: C_22  and  O_52 
REMARK   23  A    between atoms: C_23  and  O_53 
REMARK   24  A    between atoms: C_24  and  O_54 
ROOT
HETATM    1  C   UNK N   1      32.082  17.703   8.322  0.00  0.00     0.180 C 
HETATM    2  C   UNK N   1      33.936  13.002   7.889  0.00  0.00     0.180 C 
HETATM    3  C   UNK N   1      28.563  17.101   3.837  0.00  0.00     0.180 C 
HETATM    4  C   UNK N   1      34.938  11.464   3.821  0.00  0.00     0.180 C 
HETATM    5  C   UNK N   1      25.886  12.753   1.773  0.00  0.00     0.180 C 
HETATM    6  C   UNK N   1      30.535   8.765   1.651  0.00  0.00     0.180 C 
HETATM    7  C   UNK N   1      31.996  16.240   6.315  0.00  0.00     0.183 C 
HETATM    8  C   UNK N   1      26.678  17.349   5.350  0.00  0.00     0.183 C 
HETATM    9  C   UNK N   1      36.137  14.331   7.690  0.00  0.00     0.183 C 
HETATM   10  C   UNK N   1      26.988  12.041   3.901  0.00  0.00     0.183 C 
HETATM   11  C   UNK N   1      36.234   9.401   4.372  0.00  0.00     0.183 C 
HETATM   12  C   UNK N   1      31.252  10.571   3.151  0.00  0.00     0.183 C 
HETATM   13  C   UNK N   1      33.521  16.299   6.293  0.00  0.00     0.204 C 
HETATM   14  C   UNK N   1      27.687  17.593   6.506  0.00  0.00     0.204 C 
HETATM   15  C   UNK N   1      36.756  12.920   7.757  0.00  0.00     0.204 C 
HETATM   16  C   UNK N   1      27.454  13.492   3.835  0.00  0.00     0.204 C 
HETATM   17  C   UNK N   1      35.096   8.538   3.699  0.00  0.00     0.204 C 
HETATM   18  C   UNK N   1      30.116  11.376   2.614  0.00  0.00     0.204 C 
HETATM   19  C   UNK N   1      31.423  17.562   6.914  0.00  0.00     0.187 C 
HETATM   20  C   UNK N   1      34.736  14.239   8.389  0.00  0.00     0.187 C 
HETATM   21  C   UNK N   1      27.345  16.338   4.403  0.00  0.00     0.187 C 
HETATM   22  C   UNK N   1      35.590  10.659   5.000  0.00  0.00     0.187 C 
HETATM   23  C   UNK N   1      26.709  11.565   2.467  0.00  0.00     0.187 C 
HETATM   24  C   UNK N   1      31.793   9.611   2.076  0.00  0.00     0.187 C 
HETATM   25  C   UNK N   1      34.082  16.505   7.704  0.00  0.00     0.292 C 
HETATM   26  C   UNK N   1      29.147  17.937   6.025  0.00  0.00     0.292 C 
HETATM   27  C   UNK N   1      35.871  11.875   7.011  0.00  0.00     0.292 C 
HETATM   28  C   UNK N   1      26.196  14.355   3.646  0.00  0.00     0.292 C 
HETATM   29  C   UNK N   1      33.852   9.413   3.352  0.00  0.00     0.292 C 
HETATM   30  C   UNK N   1      28.940  10.465   2.184  0.00  0.00     0.292 C 
HETATM   31  O   UNK N   1      33.516  17.683   8.289  0.00  0.00    -0.348 OA
HETATM   32  O   UNK N   1      29.541  17.240   4.854  0.00  0.00    -0.348 OA
HETATM   33  O   UNK N   1      34.545  12.365   6.779  0.00  0.00    -0.348 OA
HETATM   34  O   UNK N   1      25.322  13.771   2.646  0.00  0.00    -0.348 OA
HETATM   35  O   UNK N   1      34.330  10.640   2.810  0.00  0.00    -0.348 OA
HETATM   36  O   UNK N   1      29.454   9.597   1.170  0.00  0.00    -0.348 OA
HETATM   37  O   UNK N   1      30.003  17.561   7.116  0.00  0.00    -0.348 OA
HETATM   38  O   UNK N   1      33.875  15.381   8.550  0.00  0.00    -0.348 OA
HETATM   39  O   UNK N   1      26.485  15.758   3.392  0.00  0.00    -0.348 OA
HETATM   40  O   UNK N   1      36.464  11.497   5.758  0.00  0.00    -0.348 OA
HETATM   41  O   UNK N   1      27.877  11.283   1.640  0.00  0.00    -0.348 OA
HETATM   42  O   UNK N   1      32.888   8.766   2.516  0.00  0.00    -0.348 OA
ENDROOT
BRANCH   1  43
HETATM   43  C   UNK N   1      31.529  16.672   9.319  0.00  0.00     0.198 C 
BRANCH  43  44
HETATM   44  O   UNK N   1      30.289  17.077   9.812  0.00  0.00    -0.398 OA
HETATM   45  H   UNK N   1      29.578  16.505  10.143  0.00  0.00     0.209 HD
ENDBRANCH  43  44
ENDBRANCH   1  43
BRANCH   7  46
HETATM   46  O   UNK N   1      31.603  16.017   5.006  0.00  0.00    -0.390 OA
HETATM   47  H   UNK N   1      31.520  15.176   4.531  0.00  0.00     0.210 HD
ENDBRANCH   7  46
BRANCH  13  48
HETATM   48  O   UNK N   1      33.945  17.354   5.476  0.00  0.00    -0.388 OA
HETATM   49  H   UNK N   1      34.322  17.875   4.750  0.00  0.00     0.210 HD
ENDBRANCH  13  48
BRANCH  14  50
HETATM   50  O   UNK N   1      27.731  16.428   7.286  0.00  0.00    -0.388 OA
HETATM   51  H   UNK N   1      27.386  15.543   7.480  0.00  0.00     0.210 HD
ENDBRANCH  14  50
BRANCH   8  52
HETATM   52  O   UNK N   1      25.485  16.836   5.865  0.00  0.00    -0.390 OA
HETATM   53  H   UNK N   1      24.981  16.622   6.666  0.00  0.00     0.210 HD
ENDBRANCH   8  52
BRANCH   3  54
HETATM   54  C   UNK N   1      29.222  16.437   2.629  0.00  0.00     0.198 C 
BRANCH  54  55
HETATM   55  O   UNK N   1      30.558  16.813   2.488  0.00  0.00    -0.398 OA
HETATM   56  H   UNK N   1      31.297  16.361   2.926  0.00  0.00     0.209 HD
ENDBRANCH  54  55
ENDBRANCH   3  54
BRANCH   2  57
HETATM   57  C   UNK N   1      33.636  12.003   9.014  0.00  0.00     0.198 C 
BRANCH  57  58
HETATM   58  O   UNK N   1      32.312  12.125   9.437  0.00  0.00    -0.398 OA
HETATM   59  H   UNK N   1      31.714  11.378   9.597  0.00  0.00     0.209 HD
ENDBRANCH  57  58
ENDBRANCH   2  57
BRANCH   9  60
HETATM   60  O   UNK N   1      36.062  14.718   6.351  0.00  0.00    -0.390 OA
HETATM   61  H   UNK N   1      35.528  14.821   5.548  0.00  0.00     0.210 HD
ENDBRANCH   9  60
BRANCH  15  62
HETATM   62  O   UNK N   1      38.069  12.913   7.277  0.00  0.00    -0.388 OA
HETATM   63  H   UNK N   1      38.693  13.604   7.005  0.00  0.00     0.210 HD
ENDBRANCH  15  62
BRANCH  16  64
HETATM   64  O   UNK N   1      28.259  13.748   2.723  0.00  0.00    -0.388 OA
HETATM   65  H   UNK N   1      29.077  13.818   2.206  0.00  0.00     0.210 HD
ENDBRANCH  16  64
BRANCH  10  66
HETATM   66  O   UNK N   1      27.834  11.209   4.635  0.00  0.00    -0.390 OA
HETATM   67  H   UNK N   1      28.293  10.412   4.328  0.00  0.00     0.210 HD
ENDBRANCH  10  66
BRANCH   5  68
HETATM   68  C   UNK N   1      24.763  12.179   0.915  0.00  0.00     0.198 C 
BRANCH  68  69
HETATM   69  O   UNK N   1      25.072  10.887   0.486  0.00  0.00    -0.398 OA
HETATM   70  H   UNK N   1      25.292  10.159   1.088  0.00  0.00     0.209 HD
ENDBRANCH  68  69
ENDBRANCH   5  68
BRANCH   4  71
HETATM   71  C   UNK N   1      35.963  12.354   3.123  0.00  0.00     0.198 C 
BRANCH  71  72
HETATM   72  O   UNK N   1      36.113  13.549   3.832  0.00  0.00    -0.398 OA
HETATM   73  H   UNK N   1      36.706  13.843   4.541  0.00  0.00     0.209 HD
ENDBRANCH  71  72
ENDBRANCH   4  71
BRANCH  11  74
HETATM   74  O   UNK N   1      37.178   9.802   3.416  0.00  0.00    -0.390 OA
HETATM   75  H   UNK N   1      37.541  10.259   2.642  0.00  0.00     0.210 HD
ENDBRANCH  11  74
BRANCH  17  76
HETATM   76  O   UNK N   1      35.589   7.893   2.561  0.00  0.00    -0.388 OA
HETATM   77  H   UNK N   1      35.176   7.803   1.688  0.00  0.00     0.210 HD
ENDBRANCH  17  76
BRANCH  18  78
HETATM   78  O   UNK N   1      29.825  12.248   3.646  0.00  0.00    -0.388 OA
HETATM   79  H   UNK N   1      30.168  13.155   3.684  0.00  0.00     0.210 HD
ENDBRANCH  18  78
BRANCH  12  80
HETATM   80  O   UNK N   1      32.174  11.519   3.559  0.00  0.00    -0.390 OA
HETATM   81  H   UNK N   1      33.082  11.340   3.847  0.00  0.00     0.210 HD
ENDBRANCH  12  80
BRANCH   6  82
HETATM   82  C   UNK N   1      30.885   7.777   0.540  0.00  0.00     0.198 C 
BRANCH  82  83
HETATM   83  O   UNK N   1      31.937   8.257  -0.245  0.00  0.00    -0.398 OA
HETATM   84  H   UNK N   1      32.009   8.148  -1.205  0.00  0.00     0.209 HD
ENDBRANCH  82  83
ENDBRANCH   6  82
TORSDOF 24
ENDMDL
MODEL 9
REMARK VINA RESULT:      -5.6      6.784     12.926
REMARK  24 active torsions:
REMARK  status: ('A' for Active; 'I' for Inactive)
REMARK    1  A    between atoms: C_7  and  C_1 
REMARK    2  A    between atoms: O_37  and  C_1 
REMARK    3  A    between atoms: C_8  and  C_2 
REMARK    4  A    between atoms: O_38  and  C_2 
REMARK    5  A    between atoms: C_9  and  C_3 
REMARK    6  A    between atoms: O_39  and  C_3 
REMARK    7  A    between atoms: C_10  and  C_4 
REMARK    8  A    between atoms: O_40  and  C_4 
REMARK    9  A    between atoms: C_11  and  C_5 
REMARK   10  A    between atoms: O_41  and  C_5 
REMARK   11  A    between atoms: C_12  and  C_6 
REMARK   12  A    between atoms: O_42  and  C_6 
REMARK   13  A    between atoms: C_13  and  O_43 
REMARK   14  A    between atoms: C_14  and  O_44 
REMARK   15  A    between atoms: C_15  and  O_45 
REMARK   16  A    between atoms: C_16  and  O_46 
REMARK   17  A    between atoms: C_17  and  O_47 
REMARK   18  A    between atoms: C_18  and  O_48 
REMARK   19  A    between atoms: C_19  and  O_49 
REMARK   20  A    between atoms: C_20  and  O_50 
REMARK   21  A    between atoms: C_21  and  O_51 
REMARK   22  A    between atoms: C_22  and  O_52 
REMARK   23  A    between atoms: C_23  and  O_53 
REMARK   24  A    between atoms: C_24  and  O_54 
ROOT
HETATM    1  C   UNK N   1      18.336  12.655   3.060  0.00  0.00     0.180 C 
HETATM    2  C   UNK N   1      22.382  10.033   1.486  0.00  0.00     0.180 C 
HETATM    3  C   UNK N   1      21.497  16.470   5.945  0.00  0.00     0.180 C 
HETATM    4  C   UNK N   1      25.664   9.213   4.397  0.00  0.00     0.180 C 
HETATM    5  C   UNK N   1      26.539  18.515   5.097  0.00  0.00     0.180 C 
HETATM    6  C   UNK N   1      29.530  13.258   4.122  0.00  0.00     0.180 C 
HETATM    7  C   UNK N   1      20.617  12.690   4.046  0.00  0.00     0.183 C 
HETATM    8  C   UNK N   1      20.709  18.193   4.425  0.00  0.00     0.183 C 
HETATM    9  C   UNK N   1      21.120   8.146   2.710  0.00  0.00     0.183 C 
HETATM   10  C   UNK N   1      25.951  17.078   3.138  0.00  0.00     0.183 C 
HETATM   11  C   UNK N   1      27.012   7.510   3.164  0.00  0.00     0.183 C 
HETATM   12  C   UNK N   1      27.148  12.725   3.852  0.00  0.00     0.183 C 
HETATM   13  C   UNK N   1      20.420  11.212   4.376  0.00  0.00     0.204 C 
HETATM   14  C   UNK N   1      19.808  17.127   3.743  0.00  0.00     0.204 C 
HETATM   15  C   UNK N   1      22.228   7.276   2.081  0.00  0.00     0.204 C 
HETATM   16  C   UNK N   1      24.696  16.895   3.986  0.00  0.00     0.204 C 
HETATM   17  C   UNK N   1      28.210   8.538   3.107  0.00  0.00     0.204 C 
HETATM   18  C   UNK N   1      26.852  14.039   4.492  0.00  0.00     0.204 C 
HETATM   19  C   UNK N   1      19.241  13.426   4.071  0.00  0.00     0.187 C 
HETATM   20  C   UNK N   1      20.988   9.423   1.809  0.00  0.00     0.187 C 
HETATM   21  C   UNK N   1      21.987  17.459   4.865  0.00  0.00     0.187 C 
HETATM   22  C   UNK N   1      25.684   8.302   3.119  0.00  0.00     0.187 C 
HETATM   23  C   UNK N   1      27.116  17.420   4.080  0.00  0.00     0.187 C 
HETATM   24  C   UNK N   1      28.461  12.136   4.404  0.00  0.00     0.187 C 
HETATM   25  C   UNK N   1      19.468  10.550   3.375  0.00  0.00     0.292 C 
HETATM   26  C   UNK N   1      19.608  15.814   4.591  0.00  0.00     0.292 C 
HETATM   27  C   UNK N   1      23.593   8.032   2.046  0.00  0.00     0.292 C 
HETATM   28  C   UNK N   1      24.185  18.302   4.335  0.00  0.00     0.292 C 
HETATM   29  C   UNK N   1      27.768   9.950   3.599  0.00  0.00     0.292 C 
HETATM   30  C   UNK N   1      27.969  15.069   4.199  0.00  0.00     0.292 C 
HETATM   31  O   UNK N   1      18.222  11.254   3.344  0.00  0.00    -0.348 OA
HETATM   32  O   UNK N   1      20.759  15.429   5.326  0.00  0.00    -0.348 OA
HETATM   33  O   UNK N   1      23.429   9.442   2.237  0.00  0.00    -0.348 OA
HETATM   34  O   UNK N   1      25.283  19.158   4.742  0.00  0.00    -0.348 OA
HETATM   35  O   UNK N   1      26.945   9.766   4.747  0.00  0.00    -0.348 OA
HETATM   36  O   UNK N   1      29.175  14.518   4.738  0.00  0.00    -0.348 OA
HETATM   37  O   UNK N   1      19.286  14.792   3.635  0.00  0.00    -0.348 OA
HETATM   38  O   UNK N   1      20.019  10.456   2.068  0.00  0.00    -0.348 OA
HETATM   39  O   UNK N   1      23.085  18.303   5.288  0.00  0.00    -0.348 OA
HETATM   40  O   UNK N   1      24.492   7.518   3.042  0.00  0.00    -0.348 OA
HETATM   41  O   UNK N   1      27.657  16.316   4.865  0.00  0.00    -0.348 OA
HETATM   42  O   UNK N   1      28.845  10.864   3.820  0.00  0.00    -0.348 OA
ENDROOT
BRANCH   1  43
HETATM   43  C   UNK N   1      18.767  12.900   1.604  0.00  0.00     0.198 C 
BRANCH  43  44
HETATM   44  O   UNK N   1      18.288  14.128   1.147  0.00  0.00    -0.398 OA
HETATM   45  H   UNK N   1      18.755  14.978   1.165  0.00  0.00     0.209 HD
ENDBRANCH  43  44
ENDBRANCH   1  43
BRANCH   7  46
HETATM   46  O   UNK N   1      21.514  13.174   4.983  0.00  0.00    -0.390 OA
HETATM   47  H   UNK N   1      22.402  13.539   4.843  0.00  0.00     0.210 HD
ENDBRANCH   7  46
BRANCH  13  48
HETATM   48  O   UNK N   1      19.891  11.079   5.665  0.00  0.00    -0.388 OA
HETATM   49  H   UNK N   1      19.357  11.188   6.467  0.00  0.00     0.210 HD
ENDBRANCH  13  48
BRANCH  14  50
HETATM   50  O   UNK N   1      20.402  16.787   2.519  0.00  0.00    -0.388 OA
HETATM   51  H   UNK N   1      21.012  17.011   1.799  0.00  0.00     0.210 HD
ENDBRANCH  14  50
BRANCH   8  52
HETATM   52  O   UNK N   1      21.008  19.210   3.515  0.00  0.00    -0.390 OA
HETATM   53  H   UNK N   1      21.249  19.425   2.600  0.00  0.00     0.210 HD
ENDBRANCH   8  52
BRANCH   3  54
HETATM   54  C   UNK N   1      22.611  15.834   6.776  0.00  0.00     0.198 C 
BRANCH  54  55
HETATM   55  O   UNK N   1      22.193  14.662   7.405  0.00  0.00    -0.398 OA
HETATM   56  H   UNK N   1      22.192  14.534   8.366  0.00  0.00     0.209 HD
ENDBRANCH  54  55
ENDBRANCH   3  54
BRANCH   2  57
HETATM   57  C   UNK N   1      22.694  10.022  -0.016  0.00  0.00     0.198 C 
BRANCH  57  58
HETATM   58  O   UNK N   1      23.538  11.083  -0.348  0.00  0.00    -0.398 OA
HETATM   59  H   UNK N   1      24.001  11.173  -1.196  0.00  0.00     0.209 HD
ENDBRANCH  57  58
ENDBRANCH   2  57
BRANCH   9  60
HETATM   60  O   UNK N   1      21.480   8.435   4.027  0.00  0.00    -0.390 OA
HETATM   61  H   UNK N   1      21.507   9.073   4.757  0.00  0.00     0.210 HD
ENDBRANCH   9  60
BRANCH  15  62
HETATM   62  O   UNK N   1      22.343   6.044   2.730  0.00  0.00    -0.388 OA
HETATM   63  H   UNK N   1      22.362   5.769   3.660  0.00  0.00     0.210 HD
ENDBRANCH  15  62
BRANCH  16  64
HETATM   64  O   UNK N   1      24.960  16.275   5.209  0.00  0.00    -0.388 OA
HETATM   65  H   UNK N   1      25.201  15.558   5.817  0.00  0.00     0.210 HD
ENDBRANCH  16  64
BRANCH  10  66
HETATM   66  O   UNK N   1      26.200  16.021   2.263  0.00  0.00    -0.390 OA
HETATM   67  H   UNK N   1      26.662  16.054   1.411  0.00  0.00     0.210 HD
ENDBRANCH  10  66
BRANCH   5  68
HETATM   68  C   UNK N   1      27.583  19.601   5.343  0.00  0.00     0.198 C 
BRANCH  68  69
HETATM   69  O   UNK N   1      28.364  19.811   4.205  0.00  0.00    -0.398 OA
HETATM   70  H   UNK N   1      29.002  19.165   3.865  0.00  0.00     0.209 HD
ENDBRANCH  68  69
ENDBRANCH   5  68
BRANCH   4  71
HETATM   71  C   UNK N   1      25.153   8.449   5.616  0.00  0.00     0.198 C 
BRANCH  71  72
HETATM   72  O   UNK N   1      23.757   8.504   5.659  0.00  0.00    -0.398 OA
HETATM   73  H   UNK N   1      23.062   8.555   4.984  0.00  0.00     0.209 HD
ENDBRANCH  71  72
ENDBRANCH   4  71
BRANCH  11  74
HETATM   74  O   UNK N   1      27.059   6.764   4.349  0.00  0.00    -0.390 OA
HETATM   75  H   UNK N   1      27.138   6.580   5.298  0.00  0.00     0.210 HD
ENDBRANCH  11  74
BRANCH  17  76
HETATM   76  O   UNK N   1      29.290   8.061   3.856  0.00  0.00    -0.388 OA
HETATM   77  H   UNK N   1      29.372   7.222   4.335  0.00  0.00     0.210 HD
ENDBRANCH  17  76
BRANCH  18  78
HETATM   78  O   UNK N   1      25.611  14.371   3.981  0.00  0.00    -0.388 OA
HETATM   79  H   UNK N   1      25.260  13.993   3.159  0.00  0.00     0.210 HD
ENDBRANCH  18  78
BRANCH  12  80
HETATM   80  O   UNK N   1      26.035  11.952   4.136  0.00  0.00    -0.390 OA
HETATM   81  H   UNK N   1      25.492  12.013   4.937  0.00  0.00     0.210 HD
ENDBRANCH  12  80
BRANCH   6  82
HETATM   82  C   UNK N   1      30.903  12.855   4.655  0.00  0.00     0.198 C 
BRANCH  82  83
HETATM   83  O   UNK N   1      31.202  13.537   5.838  0.00  0.00    -0.398 OA
HETATM   84  H   UNK N   1      31.211  13.141   6.722  0.00  0.00     0.209 HD
ENDBRANCH  82  83
ENDBRANCH   6  82
TORSDOF 24
ENDMDL
