MODEL 1
REMARK VINA RESULT:      -3.5      0.000      0.000
REMARK  5 active torsions:
REMARK  status: ('A' for Active; 'I' for Inactive)
REMARK    1  A    between atoms: O_1  and  C_2 
REMARK    2  A    between atoms: C_2  and  C_3 
REMARK    3  A    between atoms: C_3  and  C_4 
REMARK    4  A    between atoms: C_4  and  C_5 
REMARK    5  A    between atoms: C_5  and  O_6 
ROOT
HETATM    1  C   UNK N   1      20.233  19.769   3.155  0.00  0.00     0.028 C 
ENDROOT
BRANCH   1   2
HETATM    2  C   UNK N   1      19.555  18.502   2.688  0.00  0.00     0.164 C 
BRANCH   2   3
HETATM    3  O   UNK N   1      18.233  18.782   2.355  0.00  0.00    -0.401 OA
HETATM    4  H   UNK N   1      18.018  19.588   1.861  0.00  0.00     0.209 HD
ENDBRANCH   2   3
ENDBRANCH   1   2
BRANCH   1   5
HETATM    5  C   UNK N   1      21.261  20.186   2.131  0.00  0.00     0.028 C 
BRANCH   5   6
HETATM    6  C   UNK N   1      20.614  21.118   1.132  0.00  0.00     0.164 C 
BRANCH   6   7
HETATM    7  O   UNK N   1      20.614  20.517  -0.122  0.00  0.00    -0.401 OA
HETATM    8  H   UNK N   1      21.212  19.774  -0.305  0.00  0.00     0.209 HD
ENDBRANCH   6   7
ENDBRANCH   5   6
ENDBRANCH   1   5
TORSDOF 5
ENDMDL
MODEL 2
REMARK VINA RESULT:      -3.5      0.039      3.034
REMARK  5 active torsions:
REMARK  status: ('A' for Active; 'I' for Inactive)
REMARK    1  A    between atoms: O_1  and  C_2 
REMARK    2  A    between atoms: C_2  and  C_3 
REMARK    3  A    between atoms: C_3  and  C_4 
REMARK    4  A    between atoms: C_4  and  C_5 
REMARK    5  A    between atoms: C_5  and  O_6 
ROOT
HETATM    1  C   UNK N   1      21.245  20.133   2.114  0.00  0.00     0.028 C 
ENDROOT
BRANCH   1   2
HETATM    2  C   UNK N   1      20.624  21.097   1.130  0.00  0.00     0.164 C 
BRANCH   2   3
HETATM    3  O   UNK N   1      20.602  20.514  -0.134  0.00  0.00    -0.401 OA
HETATM    4  H   UNK N   1      20.089  19.705  -0.286  0.00  0.00     0.209 HD
ENDBRANCH   2   3
ENDBRANCH   1   2
BRANCH   1   5
HETATM    5  C   UNK N   1      20.219  19.763   3.158  0.00  0.00     0.028 C 
BRANCH   5   6
HETATM    6  C   UNK N   1      19.534  18.480   2.747  0.00  0.00     0.164 C 
BRANCH   6   7
HETATM    7  O   UNK N   1      18.233  18.763   2.343  0.00  0.00    -0.401 OA
HETATM    8  H   UNK N   1      17.492  18.607   2.950  0.00  0.00     0.209 HD
ENDBRANCH   6   7
ENDBRANCH   5   6
ENDBRANCH   1   5
TORSDOF 5
ENDMDL
MODEL 3
REMARK VINA RESULT:      -3.4     12.034     12.775
REMARK  5 active torsions:
REMARK  status: ('A' for Active; 'I' for Inactive)
REMARK    1  A    between atoms: O_1  and  C_2 
REMARK    2  A    between atoms: C_2  and  C_3 
REMARK    3  A    between atoms: C_3  and  C_4 
REMARK    4  A    between atoms: C_4  and  C_5 
REMARK    5  A    between atoms: C_5  and  O_6 
ROOT
HETATM    1  C   UNK N   1      23.340  11.576  11.198  0.00  0.00     0.028 C 
ENDROOT
BRANCH   1   2
HETATM    2  C   UNK N   1      22.824  11.951  12.567  0.00  0.00     0.164 C 
BRANCH   2   3
HETATM    3  O   UNK N   1      23.891  12.350  13.368  0.00  0.00    -0.401 OA
HETATM    4  H   UNK N   1      23.916  12.098  14.304  0.00  0.00     0.209 HD
ENDBRANCH   2   3
ENDBRANCH   1   2
BRANCH   1   5
HETATM    5  C   UNK N   1      23.423  12.817  10.343  0.00  0.00     0.028 C 
BRANCH   5   6
HETATM    6  C   UNK N   1      24.860  13.039   9.930  0.00  0.00     0.164 C 
BRANCH   6   7
HETATM    7  O   UNK N   1      25.651  13.159  11.069  0.00  0.00    -0.401 OA
HETATM    8  H   UNK N   1      26.572  12.852  11.054  0.00  0.00     0.209 HD
ENDBRANCH   6   7
ENDBRANCH   5   6
ENDBRANCH   1   5
TORSDOF 5
ENDMDL
MODEL 4
REMARK VINA RESULT:      -3.2     10.658     11.780
REMARK  5 active torsions:
REMARK  status: ('A' for Active; 'I' for Inactive)
REMARK    1  A    between atoms: O_1  and  C_2 
REMARK    2  A    between atoms: C_2  and  C_3 
REMARK    3  A    between atoms: C_3  and  C_4 
REMARK    4  A    between atoms: C_4  and  C_5 
REMARK    5  A    between atoms: C_5  and  O_6 
ROOT
HETATM    1  C   UNK N   1      22.923  12.500  10.453  0.00  0.00     0.028 C 
ENDROOT
BRANCH   1   2
HETATM    2  C   UNK N   1      23.519  11.963  11.733  0.00  0.00     0.164 C 
BRANCH   2   3
HETATM    3  O   UNK N   1      24.880  12.255  11.764  0.00  0.00    -0.401 OA
HETATM    4  H   UNK N   1      25.293  12.726  11.025  0.00  0.00     0.209 HD
ENDBRANCH   2   3
ENDBRANCH   1   2
BRANCH   1   5
HETATM    5  C   UNK N   1      21.427  12.627  10.619  0.00  0.00     0.028 C 
BRANCH   5   6
HETATM    6  C   UNK N   1      20.942  13.823   9.833  0.00  0.00     0.164 C 
BRANCH   6   7
HETATM    7  O   UNK N   1      19.552  13.878   9.892  0.00  0.00    -0.401 OA
HETATM    8  H   UNK N   1      19.020  13.259   9.367  0.00  0.00     0.209 HD
ENDBRANCH   6   7
ENDBRANCH   5   6
ENDBRANCH   1   5
TORSDOF 5
ENDMDL
MODEL 5
REMARK VINA RESULT:      -3.1      1.995      3.045
REMARK  5 active torsions:
REMARK  status: ('A' for Active; 'I' for Inactive)
REMARK    1  A    between atoms: O_1  and  C_2 
REMARK    2  A    between atoms: C_2  and  C_3 
REMARK    3  A    between atoms: C_3  and  C_4 
REMARK    4  A    between atoms: C_4  and  C_5 
REMARK    5  A    between atoms: C_5  and  O_6 
ROOT
HETATM    1  C   UNK N   1      20.743  19.629   2.017  0.00  0.00     0.028 C 
ENDROOT
BRANCH   1   2
HETATM    2  C   UNK N   1      20.576  20.883   1.191  0.00  0.00     0.164 C 
BRANCH   2   3
HETATM    3  O   UNK N   1      20.620  20.554  -0.160  0.00  0.00    -0.401 OA
HETATM    4  H   UNK N   1      20.247  19.714  -0.468  0.00  0.00     0.209 HD
ENDBRANCH   2   3
ENDBRANCH   1   2
BRANCH   1   5
HETATM    5  C   UNK N   1      21.445  19.975   3.308  0.00  0.00     0.028 C 
BRANCH   5   6
HETATM    6  C   UNK N   1      22.938  19.978   3.073  0.00  0.00     0.164 C 
BRANCH   6   7
HETATM    7  O   UNK N   1      23.388  21.293   2.997  0.00  0.00    -0.401 OA
HETATM    8  H   UNK N   1      23.958  21.568   2.261  0.00  0.00     0.209 HD
ENDBRANCH   6   7
ENDBRANCH   5   6
ENDBRANCH   1   5
TORSDOF 5
ENDMDL
MODEL 6
REMARK VINA RESULT:      -3.1     11.035     12.063
REMARK  5 active torsions:
REMARK  status: ('A' for Active; 'I' for Inactive)
REMARK    1  A    between atoms: O_1  and  C_2 
REMARK    2  A    between atoms: C_2  and  C_3 
REMARK    3  A    between atoms: C_3  and  C_4 
REMARK    4  A    between atoms: C_4  and  C_5 
REMARK    5  A    between atoms: C_5  and  O_6 
ROOT
HETATM    1  C   UNK N   1      21.560  12.088  11.274  0.00  0.00     0.028 C 
ENDROOT
BRANCH   1   2
HETATM    2  C   UNK N   1      21.607  13.095  10.148  0.00  0.00     0.164 C 
BRANCH   2   3
HETATM    3  O   UNK N   1      20.311  13.373   9.724  0.00  0.00    -0.401 OA
HETATM    4  H   UNK N   1      20.152  13.683   8.820  0.00  0.00     0.209 HD
ENDBRANCH   2   3
ENDBRANCH   1   2
BRANCH   1   5
HETATM    5  C   UNK N   1      22.926  11.992  11.910  0.00  0.00     0.028 C 
BRANCH   5   6
HETATM    6  C   UNK N   1      23.982  12.163  10.842  0.00  0.00     0.164 C 
BRANCH   6   7
HETATM    7  O   UNK N   1      25.181  12.540  11.439  0.00  0.00    -0.401 OA
HETATM    8  H   UNK N   1      26.012  12.471  10.943  0.00  0.00     0.209 HD
ENDBRANCH   6   7
ENDBRANCH   5   6
ENDBRANCH   1   5
TORSDOF 5
ENDMDL
MODEL 7
REMARK VINA RESULT:      -3.1     16.783     17.273
REMARK  5 active torsions:
REMARK  status: ('A' for Active; 'I' for Inactive)
REMARK    1  A    between atoms: O_1  and  C_2 
REMARK    2  A    between atoms: C_2  and  C_3 
REMARK    3  A    between atoms: C_3  and  C_4 
REMARK    4  A    between atoms: C_4  and  C_5 
REMARK    5  A    between atoms: C_5  and  O_6 
ROOT
HETATM    1  C   UNK N   1      34.808  16.697   9.909  0.00  0.00     0.028 C 
ENDROOT
BRANCH   1   2
HETATM    2  C   UNK N   1      35.833  15.616  10.161  0.00  0.00     0.164 C 
BRANCH   2   3
HETATM    3  O   UNK N   1      36.903  16.153  10.872  0.00  0.00    -0.401 OA
HETATM    4  H   UNK N   1      37.020  15.936  11.810  0.00  0.00     0.209 HD
ENDBRANCH   2   3
ENDBRANCH   1   2
BRANCH   1   5
HETATM    5  C   UNK N   1      34.671  16.913   8.421  0.00  0.00     0.028 C 
BRANCH   5   6
HETATM    6  C   UNK N   1      34.258  18.344   8.165  0.00  0.00     0.164 C 
BRANCH   6   7
HETATM    7  O   UNK N   1      35.307  19.192   8.509  0.00  0.00    -0.401 OA
HETATM    8  H   UNK N   1      36.187  18.826   8.692  0.00  0.00     0.209 HD
ENDBRANCH   6   7
ENDBRANCH   5   6
ENDBRANCH   1   5
TORSDOF 5
ENDMDL
MODEL 8
REMARK VINA RESULT:      -3.1     16.208     16.869
REMARK  5 active torsions:
REMARK  status: ('A' for Active; 'I' for Inactive)
REMARK    1  A    between atoms: O_1  and  C_2 
REMARK    2  A    between atoms: C_2  and  C_3 
REMARK    3  A    between atoms: C_3  and  C_4 
REMARK    4  A    between atoms: C_4  and  C_5 
REMARK    5  A    between atoms: C_5  and  O_6 
ROOT
HETATM    1  C   UNK N   1      33.771  17.317   8.849  0.00  0.00     0.028 C 
ENDROOT
BRANCH   1   2
HETATM    2  C   UNK N   1      34.295  18.369   7.900  0.00  0.00     0.164 C 
BRANCH   2   3
HETATM    3  O   UNK N   1      35.264  19.131   8.546  0.00  0.00    -0.401 OA
HETATM    4  H   UNK N   1      36.098  18.722   8.823  0.00  0.00     0.209 HD
ENDBRANCH   2   3
ENDBRANCH   1   2
BRANCH   1   5
HETATM    5  C   UNK N   1      34.740  16.161   8.892  0.00  0.00     0.028 C 
BRANCH   5   6
HETATM    6  C   UNK N   1      35.244  15.989  10.306  0.00  0.00     0.164 C 
BRANCH   6   7
HETATM    7  O   UNK N   1      35.110  17.194  10.990  0.00  0.00    -0.401 OA
HETATM    8  H   UNK N   1      35.579  17.330  11.829  0.00  0.00     0.209 HD
ENDBRANCH   6   7
ENDBRANCH   5   6
ENDBRANCH   1   5
TORSDOF 5
ENDMDL
MODEL 9
REMARK VINA RESULT:      -2.9     14.463     15.165
REMARK  5 active torsions:
REMARK  status: ('A' for Active; 'I' for Inactive)
REMARK    1  A    between atoms: O_1  and  C_2 
REMARK    2  A    between atoms: C_2  and  C_3 
REMARK    3  A    between atoms: C_3  and  C_4 
REMARK    4  A    between atoms: C_4  and  C_5 
REMARK    5  A    between atoms: C_5  and  O_6 
ROOT
HETATM    1  C   UNK N   1      33.527  18.016   7.530  0.00  0.00     0.028 C 
ENDROOT
BRANCH   1   2
HETATM    2  C   UNK N   1      34.725  17.996   8.451  0.00  0.00     0.164 C 
BRANCH   2   3
HETATM    3  O   UNK N   1      35.288  19.268   8.501  0.00  0.00    -0.401 OA
HETATM    4  H   UNK N   1      36.196  19.385   8.822  0.00  0.00     0.209 HD
ENDBRANCH   2   3
ENDBRANCH   1   2
BRANCH   1   5
HETATM    5  C   UNK N   1      32.266  17.936   8.356  0.00  0.00     0.028 C 
BRANCH   5   6
HETATM    6  C   UNK N   1      31.729  16.524   8.303  0.00  0.00     0.164 C 
BRANCH   6   7
HETATM    7  O   UNK N   1      31.307  16.146   9.574  0.00  0.00    -0.401 OA
HETATM    8  H   UNK N   1      30.374  16.245   9.825  0.00  0.00     0.209 HD
ENDBRANCH   6   7
ENDBRANCH   5   6
ENDBRANCH   1   5
TORSDOF 5
ENDMDL
