MODEL 1
REMARK VINA RESULT:      -4.2      0.000      0.000
REMARK  6 active torsions:
REMARK  status: ('A' for Active; 'I' for Inactive)
REMARK    1  A    between atoms: C_5  and  C_3 
REMARK    2  A    between atoms: C_6  and  C_3 
REMARK    3  A    between atoms: C_6  and  C_4 
REMARK    4  A    between atoms: O_7  and  C_4 
REMARK    5  A    between atoms: C_5  and  O_8 
REMARK    6  A    between atoms: C_6  and  O_9 
ROOT
HETATM    1  C   UNK N   1      22.607  20.534   2.660  0.00  0.00     0.048 C 
HETATM    2  C   UNK N   1      21.121  20.385   2.393  0.00  0.00     0.077 C 
ENDROOT
BRANCH   2   3
HETATM    3  C   UNK N   1      20.794  18.887   2.280  0.00  0.00     0.071 C 
BRANCH   3   4
HETATM    4  C   UNK N   1      19.624  18.400   3.135  0.00  0.00     0.117 C 
HETATM    5  C   UNK N   1      19.769  16.915   3.390  0.00  0.00     0.039 C 
BRANCH   4   6
HETATM    6  O   UNK N   1      18.423  18.630   2.464  0.00  0.00    -0.396 OA
HETATM    7  H   UNK N   1      18.225  19.508   2.105  0.00  0.00     0.210 HD
ENDBRANCH   4   6
ENDBRANCH   3   4
ENDBRANCH   2   3
BRANCH   2   8
HETATM    8  C   UNK N   1      20.767  21.050   1.070  0.00  0.00     0.201 C 
BRANCH   8   9
HETATM    9  O   UNK N   1      20.671  20.103   0.047  0.00  0.00    -0.398 OA
HETATM   10  H   UNK N   1      21.366  19.787  -0.553  0.00  0.00     0.209 HD
ENDBRANCH   8   9
ENDBRANCH   2   8
BRANCH   2  11
HETATM   11  O   UNK N   1      20.410  21.002   3.426  0.00  0.00    -0.388 OA
HETATM   12  H   UNK N   1      20.267  21.110   4.379  0.00  0.00     0.210 HD
ENDBRANCH   2  11
TORSDOF 6
ENDMDL
MODEL 2
REMARK VINA RESULT:      -4.0      9.598     11.183
REMARK  6 active torsions:
REMARK  status: ('A' for Active; 'I' for Inactive)
REMARK    1  A    between atoms: C_5  and  C_3 
REMARK    2  A    between atoms: C_6  and  C_3 
REMARK    3  A    between atoms: C_6  and  C_4 
REMARK    4  A    between atoms: O_7  and  C_4 
REMARK    5  A    between atoms: C_5  and  O_8 
REMARK    6  A    between atoms: C_6  and  O_9 
ROOT
HETATM    1  C   UNK N   1      23.191  11.380   8.759  0.00  0.00     0.048 C 
HETATM    2  C   UNK N   1      23.269  12.036  10.125  0.00  0.00     0.077 C 
ENDROOT
BRANCH   2   3
HETATM    3  C   UNK N   1      22.491  13.361  10.075  0.00  0.00     0.071 C 
BRANCH   3   4
HETATM    4  C   UNK N   1      21.029  13.251   9.646  0.00  0.00     0.117 C 
HETATM    5  C   UNK N   1      20.506  14.624   9.280  0.00  0.00     0.039 C 
BRANCH   4   6
HETATM    6  O   UNK N   1      20.266  12.741  10.697  0.00  0.00    -0.396 OA
HETATM    7  H   UNK N   1      19.400  13.127  10.903  0.00  0.00     0.210 HD
ENDBRANCH   4   6
ENDBRANCH   3   4
ENDBRANCH   2   3
BRANCH   2   8
HETATM    8  C   UNK N   1      24.721  12.349  10.462  0.00  0.00     0.201 C 
BRANCH   8   9
HETATM    9  O   UNK N   1      24.933  12.301  11.842  0.00  0.00    -0.398 OA
HETATM   10  H   UNK N   1      24.459  12.773  12.545  0.00  0.00     0.209 HD
ENDBRANCH   8   9
ENDBRANCH   2   8
BRANCH   2  11
HETATM   11  O   UNK N   1      22.752  11.157  11.081  0.00  0.00    -0.388 OA
HETATM   12  H   UNK N   1      22.361  10.293  11.281  0.00  0.00     0.210 HD
ENDBRANCH   2  11
TORSDOF 6
ENDMDL
MODEL 3
REMARK VINA RESULT:      -4.0      1.638      2.077
REMARK  6 active torsions:
REMARK  status: ('A' for Active; 'I' for Inactive)
REMARK    1  A    between atoms: C_5  and  C_3 
REMARK    2  A    between atoms: C_6  and  C_3 
REMARK    3  A    between atoms: C_6  and  C_4 
REMARK    4  A    between atoms: O_7  and  C_4 
REMARK    5  A    between atoms: C_5  and  O_8 
REMARK    6  A    between atoms: C_6  and  O_9 
ROOT
HETATM    1  C   UNK N   1      20.684  19.771   3.745  0.00  0.00     0.048 C 
HETATM    2  C   UNK N   1      20.380  19.420   2.301  0.00  0.00     0.077 C 
ENDROOT
BRANCH   2   3
HETATM    3  C   UNK N   1      21.036  18.067   1.980  0.00  0.00     0.071 C 
BRANCH   3   4
HETATM    4  C   UNK N   1      20.183  17.097   1.163  0.00  0.00     0.117 C 
HETATM    5  C   UNK N   1      20.759  15.702   1.274  0.00  0.00     0.039 C 
BRANCH   4   6
HETATM    6  O   UNK N   1      20.183  17.483  -0.177  0.00  0.00    -0.396 OA
HETATM    7  H   UNK N   1      20.964  17.326  -0.730  0.00  0.00     0.210 HD
ENDBRANCH   4   6
ENDBRANCH   3   4
ENDBRANCH   2   3
BRANCH   2   8
HETATM    8  C   UNK N   1      20.984  20.471   1.378  0.00  0.00     0.201 C 
BRANCH   8   9
HETATM    9  O   UNK N   1      20.499  20.328   0.076  0.00  0.00    -0.398 OA
HETATM   10  H   UNK N   1      20.144  19.534  -0.355  0.00  0.00     0.209 HD
ENDBRANCH   8   9
ENDBRANCH   2   8
BRANCH   2  11
HETATM   11  O   UNK N   1      18.995  19.389   2.122  0.00  0.00    -0.388 OA
HETATM   12  H   UNK N   1      18.184  19.861   1.877  0.00  0.00     0.210 HD
ENDBRANCH   2  11
TORSDOF 6
ENDMDL
MODEL 4
REMARK VINA RESULT:      -4.0     10.442     12.087
REMARK  6 active torsions:
REMARK  status: ('A' for Active; 'I' for Inactive)
REMARK    1  A    between atoms: C_5  and  C_3 
REMARK    2  A    between atoms: C_6  and  C_3 
REMARK    3  A    between atoms: C_6  and  C_4 
REMARK    4  A    between atoms: O_7  and  C_4 
REMARK    5  A    between atoms: C_5  and  O_8 
REMARK    6  A    between atoms: C_6  and  O_9 
ROOT
HETATM    1  C   UNK N   1      30.916  24.236  -3.361  0.00  0.00     0.048 C 
HETATM    2  C   UNK N   1      30.203  23.093  -2.663  0.00  0.00     0.077 C 
ENDROOT
BRANCH   2   3
HETATM    3  C   UNK N   1      30.628  21.774  -3.330  0.00  0.00     0.071 C 
BRANCH   3   4
HETATM    4  C   UNK N   1      32.132  21.505  -3.360  0.00  0.00     0.117 C 
HETATM    5  C   UNK N   1      32.416  20.328  -4.268  0.00  0.00     0.039 C 
BRANCH   4   6
HETATM    6  O   UNK N   1      32.583  21.204  -2.074  0.00  0.00    -0.396 OA
HETATM    7  H   UNK N   1      33.450  21.518  -1.775  0.00  0.00     0.210 HD
ENDBRANCH   4   6
ENDBRANCH   3   4
ENDBRANCH   2   3
BRANCH   2   8
HETATM    8  C   UNK N   1      28.697  23.246  -2.832  0.00  0.00     0.201 C 
BRANCH   8   9
HETATM    9  O   UNK N   1      28.038  23.051  -1.616  0.00  0.00    -0.398 OA
HETATM   10  H   UNK N   1      27.674  23.717  -1.010  0.00  0.00     0.209 HD
ENDBRANCH   8   9
ENDBRANCH   2   8
BRANCH   2  11
HETATM   11  O   UNK N   1      30.521  23.121  -1.303  0.00  0.00    -0.388 OA
HETATM   12  H   UNK N   1      31.173  23.317  -0.612  0.00  0.00     0.210 HD
ENDBRANCH   2  11
TORSDOF 6
ENDMDL
MODEL 5
REMARK VINA RESULT:      -4.0     23.086     24.815
REMARK  6 active torsions:
REMARK  status: ('A' for Active; 'I' for Inactive)
REMARK    1  A    between atoms: C_5  and  C_3 
REMARK    2  A    between atoms: C_6  and  C_3 
REMARK    3  A    between atoms: C_6  and  C_4 
REMARK    4  A    between atoms: O_7  and  C_4 
REMARK    5  A    between atoms: C_5  and  O_8 
REMARK    6  A    between atoms: C_6  and  O_9 
ROOT
HETATM    1  C   UNK N   1      42.453  22.496   2.676  0.00  0.00     0.048 C 
HETATM    2  C   UNK N   1      43.778  22.986   3.230  0.00  0.00     0.077 C 
ENDROOT
BRANCH   2   3
HETATM    3  C   UNK N   1      44.656  23.449   2.056  0.00  0.00     0.071 C 
BRANCH   3   4
HETATM    4  C   UNK N   1      45.276  24.837   2.204  0.00  0.00     0.117 C 
HETATM    5  C   UNK N   1      45.316  25.519   0.852  0.00  0.00     0.039 C 
BRANCH   4   6
HETATM    6  O   UNK N   1      46.578  24.722   2.692  0.00  0.00    -0.396 OA
HETATM    7  H   UNK N   1      46.909  25.351   3.351  0.00  0.00     0.210 HD
ENDBRANCH   4   6
ENDBRANCH   3   4
ENDBRANCH   2   3
BRANCH   2   8
HETATM    8  C   UNK N   1      44.494  21.842   3.937  0.00  0.00     0.201 C 
BRANCH   8   9
HETATM    9  O   UNK N   1      45.804  22.201   4.262  0.00  0.00    -0.398 OA
HETATM   10  H   UNK N   1      46.532  22.443   3.667  0.00  0.00     0.209 HD
ENDBRANCH   8   9
ENDBRANCH   2   8
BRANCH   2  11
HETATM   11  O   UNK N   1      43.536  24.014   4.144  0.00  0.00    -0.388 OA
HETATM   12  H   UNK N   1      43.005  24.787   4.397  0.00  0.00     0.210 HD
ENDBRANCH   2  11
TORSDOF 6
ENDMDL
MODEL 6
REMARK VINA RESULT:      -3.9     15.345     16.699
REMARK  6 active torsions:
REMARK  status: ('A' for Active; 'I' for Inactive)
REMARK    1  A    between atoms: C_5  and  C_3 
REMARK    2  A    between atoms: C_6  and  C_3 
REMARK    3  A    between atoms: C_6  and  C_4 
REMARK    4  A    between atoms: O_7  and  C_4 
REMARK    5  A    between atoms: C_5  and  O_8 
REMARK    6  A    between atoms: C_6  and  O_9 
ROOT
HETATM    1  C   UNK N   1      34.954  14.371   9.407  0.00  0.00     0.048 C 
HETATM    2  C   UNK N   1      34.738  15.401  10.500  0.00  0.00     0.077 C 
ENDROOT
BRANCH   2   3
HETATM    3  C   UNK N   1      34.708  16.797   9.857  0.00  0.00     0.071 C 
BRANCH   3   4
HETATM    4  C   UNK N   1      33.726  16.968   8.698  0.00  0.00     0.117 C 
HETATM    5  C   UNK N   1      34.035  18.254   7.961  0.00  0.00     0.039 C 
BRANCH   4   6
HETATM    6  O   UNK N   1      32.423  17.029   9.191  0.00  0.00    -0.396 OA
HETATM    7  H   UNK N   1      32.264  17.107  10.145  0.00  0.00     0.210 HD
ENDBRANCH   4   6
ENDBRANCH   3   4
ENDBRANCH   2   3
BRANCH   2   8
HETATM    8  C   UNK N   1      35.900  15.357  11.484  0.00  0.00     0.201 C 
BRANCH   8   9
HETATM    9  O   UNK N   1      37.015  16.024  10.969  0.00  0.00    -0.398 OA
HETATM   10  H   UNK N   1      37.616  15.741  10.261  0.00  0.00     0.209 HD
ENDBRANCH   8   9
ENDBRANCH   2   8
BRANCH   2  11
HETATM   11  O   UNK N   1      33.551  15.107  11.175  0.00  0.00    -0.388 OA
HETATM   12  H   UNK N   1      32.861  14.458  11.387  0.00  0.00     0.210 HD
ENDBRANCH   2  11
TORSDOF 6
ENDMDL
MODEL 7
REMARK VINA RESULT:      -3.8      1.502      3.745
REMARK  6 active torsions:
REMARK  status: ('A' for Active; 'I' for Inactive)
REMARK    1  A    between atoms: C_5  and  C_3 
REMARK    2  A    between atoms: C_6  and  C_3 
REMARK    3  A    between atoms: C_6  and  C_4 
REMARK    4  A    between atoms: O_7  and  C_4 
REMARK    5  A    between atoms: C_5  and  O_8 
REMARK    6  A    between atoms: C_6  and  O_9 
ROOT
HETATM    1  C   UNK N   1      20.379  18.312   1.271  0.00  0.00     0.048 C 
HETATM    2  C   UNK N   1      19.756  18.480   2.645  0.00  0.00     0.077 C 
ENDROOT
BRANCH   2   3
HETATM    3  C   UNK N   1      20.437  19.666   3.347  0.00  0.00     0.071 C 
BRANCH   3   4
HETATM    4  C   UNK N   1      21.700  20.197   2.669  0.00  0.00     0.117 C 
HETATM    5  C   UNK N   1      22.921  19.672   3.394  0.00  0.00     0.039 C 
BRANCH   4   6
HETATM    6  O   UNK N   1      21.709  21.591   2.718  0.00  0.00    -0.396 OA
HETATM    7  H   UNK N   1      21.314  22.107   1.998  0.00  0.00     0.210 HD
ENDBRANCH   4   6
ENDBRANCH   3   4
ENDBRANCH   2   3
BRANCH   2   8
HETATM    8  C   UNK N   1      20.004  17.229   3.477  0.00  0.00     0.201 C 
BRANCH   8   9
HETATM    9  O   UNK N   1      18.824  16.795   4.087  0.00  0.00    -0.398 OA
HETATM   10  H   UNK N   1      18.631  16.703   5.034  0.00  0.00     0.209 HD
ENDBRANCH   8   9
ENDBRANCH   2   8
BRANCH   2  11
HETATM   11  O   UNK N   1      18.380  18.673   2.499  0.00  0.00    -0.388 OA
HETATM   12  H   UNK N   1      17.649  19.045   1.981  0.00  0.00     0.210 HD
ENDBRANCH   2  11
TORSDOF 6
ENDMDL
MODEL 8
REMARK VINA RESULT:      -3.8      8.503      9.741
REMARK  6 active torsions:
REMARK  status: ('A' for Active; 'I' for Inactive)
REMARK    1  A    between atoms: C_5  and  C_3 
REMARK    2  A    between atoms: C_6  and  C_3 
REMARK    3  A    between atoms: C_6  and  C_4 
REMARK    4  A    between atoms: O_7  and  C_4 
REMARK    5  A    between atoms: C_5  and  O_8 
REMARK    6  A    between atoms: C_6  and  O_9 
ROOT
HETATM    1  C   UNK N   1      28.782  18.055   5.135  0.00  0.00     0.048 C 
HETATM    2  C   UNK N   1      28.006  17.747   6.402  0.00  0.00     0.077 C 
ENDROOT
BRANCH   2   3
HETATM    3  C   UNK N   1      28.986  17.747   7.586  0.00  0.00     0.071 C 
BRANCH   3   4
HETATM    4  C   UNK N   1      28.580  18.611   8.779  0.00  0.00     0.117 C 
HETATM    5  C   UNK N   1      29.700  18.624   9.798  0.00  0.00     0.039 C 
BRANCH   4   6
HETATM    6  O   UNK N   1      27.433  18.083   9.374  0.00  0.00    -0.396 OA
HETATM    7  H   UNK N   1      27.003  18.552  10.106  0.00  0.00     0.210 HD
ENDBRANCH   4   6
ENDBRANCH   3   4
ENDBRANCH   2   3
BRANCH   2   8
HETATM    8  C   UNK N   1      27.384  16.361   6.300  0.00  0.00     0.201 C 
BRANCH   8   9
HETATM    9  O   UNK N   1      26.425  16.170   7.298  0.00  0.00    -0.398 OA
HETATM   10  H   UNK N   1      26.373  16.585   8.175  0.00  0.00     0.209 HD
ENDBRANCH   8   9
ENDBRANCH   2   8
BRANCH   2  11
HETATM   11  O   UNK N   1      26.993  18.698   6.557  0.00  0.00    -0.388 OA
HETATM   12  H   UNK N   1      26.060  18.936   6.440  0.00  0.00     0.210 HD
ENDBRANCH   2  11
TORSDOF 6
ENDMDL
MODEL 9
REMARK VINA RESULT:      -3.7     21.790     23.325
REMARK  6 active torsions:
REMARK  status: ('A' for Active; 'I' for Inactive)
REMARK    1  A    between atoms: C_5  and  C_3 
REMARK    2  A    between atoms: C_6  and  C_3 
REMARK    3  A    between atoms: C_6  and  C_4 
REMARK    4  A    between atoms: O_7  and  C_4 
REMARK    5  A    between atoms: C_5  and  O_8 
REMARK    6  A    between atoms: C_6  and  O_9 
ROOT
HETATM    1  C   UNK N   1      44.843  22.013   3.661  0.00  0.00     0.048 C 
HETATM    2  C   UNK N   1      44.089  23.141   2.980  0.00  0.00     0.077 C 
ENDROOT
BRANCH   2   3
HETATM    3  C   UNK N   1      43.110  22.529   1.965  0.00  0.00     0.071 C 
BRANCH   3   4
HETATM    4  C   UNK N   1      41.633  22.842   2.202  0.00  0.00     0.117 C 
HETATM    5  C   UNK N   1      40.781  21.963   1.311  0.00  0.00     0.039 C 
BRANCH   4   6
HETATM    6  O   UNK N   1      41.379  24.179   1.896  0.00  0.00    -0.396 OA
HETATM    7  H   UNK N   1      41.938  24.648   1.256  0.00  0.00     0.210 HD
ENDBRANCH   4   6
ENDBRANCH   3   4
ENDBRANCH   2   3
BRANCH   2   8
HETATM    8  C   UNK N   1      45.067  24.028   2.221  0.00  0.00     0.201 C 
BRANCH   8   9
HETATM    9  O   UNK N   1      46.202  24.291   2.993  0.00  0.00    -0.398 OA
HETATM   10  H   UNK N   1      46.255  24.690   3.876  0.00  0.00     0.209 HD
ENDBRANCH   8   9
ENDBRANCH   2   8
BRANCH   2  11
HETATM   11  O   UNK N   1      43.434  23.901   3.952  0.00  0.00    -0.388 OA
HETATM   12  H   UNK N   1      43.350  24.152   4.885  0.00  0.00     0.210 HD
ENDBRANCH   2  11
TORSDOF 6
ENDMDL
