MODEL 1
REMARK VINA RESULT:     -18.0      0.000      0.000
REMARK  11 active torsions:
REMARK  status: ('A' for Active; 'I' for Inactive)
REMARK    1  A    between atoms: O_40  and  C_11 
REMARK    2  A    between atoms: O_41  and  C_12 
REMARK    3  A    between atoms: C_12  and  O_42 
REMARK    4  A    between atoms: S_48  and  O_37 
REMARK    5  A    between atoms: S_49  and  O_38 
REMARK    6  A    between atoms: S_50  and  O_39 
REMARK    7  A    between atoms: S_51  and  O_43 
REMARK    8  A    between atoms: S_52  and  O_44 
REMARK    9  A    between atoms: S_53  and  O_45 
REMARK   10  A    between atoms: S_54  and  O_46 
REMARK   11  A    between atoms: S_55  and  O_47 
ROOT
HETATM    1  C   UNK N   1      24.604  17.645   4.877  0.00  0.00     0.226 A 
HETATM    2  C   UNK N   1      20.288  17.899   3.585  0.00  0.00     0.226 A 
HETATM    3  C   UNK N   1      22.777  18.406   3.993  0.00  0.00     0.263 A 
HETATM    4  C   UNK N   1      24.463  18.352   4.474  0.00  0.00     0.183 A 
HETATM    5  C   UNK N   1      20.952  18.384   3.513  0.00  0.00     0.183 A 
HETATM    6  C   UNK N   1      25.076  18.891   4.361  0.00  0.00     0.208 A 
HETATM    7  C   UNK N   1      20.978  19.119   3.141  0.00  0.00     0.211 A 
HETATM    8  C   UNK N   1      24.936  19.598   3.958  0.00  0.00     0.212 A 
HETATM    9  C   UNK N   1      24.180  19.764   3.670  0.00  0.00     0.232 A 
HETATM   10  C   UNK N   1      21.749  19.408   3.199  0.00  0.00     0.241 A 
HETATM   11  C   UNK N   1      23.567  19.225   3.783  0.00  0.00     0.297 A 
HETATM   12  C   UNK N   1      22.199  18.851   3.608  0.00  0.00     0.221 A 
HETATM   13  O   UNK N   1      24.922  16.615   5.495  0.00  0.00    -0.274 OA
HETATM   14  O   UNK N   1      23.342  16.184   5.292  0.00  0.00    -0.579 OA
HETATM   15  O   UNK N   1      24.273  15.693   5.796  0.00  0.00    -0.579 OA
HETATM   16  O   UNK N   1      19.018  16.206   4.117  0.00  0.00    -0.274 OA
HETATM   17  O   UNK N   1      20.131  16.133   4.454  0.00  0.00    -0.579 OA
HETATM   18  O   UNK N   1      19.231  17.248   3.637  0.00  0.00    -0.579 OA
HETATM   19  O   UNK N   1      21.364  17.942   3.852  0.00  0.00    -0.274 OA
HETATM   20  O   UNK N   1      22.038  16.705   4.672  0.00  0.00    -0.579 OA
HETATM   21  O   UNK N   1      21.044  17.097   4.202  0.00  0.00    -0.579 OA
HETATM   22  O   UNK N   1      25.182  17.804   4.951  0.00  0.00    -0.274 OA
HETATM   23  O   UNK N   1      26.762  18.235   5.154  0.00  0.00    -0.579 OA
HETATM   24  O   UNK N   1      26.114  17.313   5.455  0.00  0.00    -0.579 OA
HETATM   25  O   UNK N   1      19.904  18.496   3.173  0.00  0.00    -0.274 OA
HETATM   26  O   UNK N   1      19.299  19.788   2.344  0.00  0.00    -0.579 OA
HETATM   27  O   UNK N   1      18.858  18.784   2.743  0.00  0.00    -0.579 OA
HETATM   28  O   UNK N   1      26.031  19.252   4.432  0.00  0.00    -0.274 OA
HETATM   29  O   UNK N   1      26.576  20.691   3.836  0.00  0.00    -0.579 OA
HETATM   30  O   UNK N   1      27.057  19.805   4.422  0.00  0.00    -0.579 OA
HETATM   31  O   UNK N   1      23.556  21.356   2.680  0.00  0.00    -0.274 OA
HETATM   32  O   UNK N   1      23.012  19.917   3.276  0.00  0.00    -0.579 OA
HETATM   33  O   UNK N   1      22.530  20.803   2.689  0.00  0.00    -0.579 OA
HETATM   34  O   UNK N   1      20.890  20.091   2.615  0.00  0.00    -0.274 OA
HETATM   35  O   UNK N   1      22.117  21.171   2.388  0.00  0.00    -0.579 OA
HETATM   36  O   UNK N   1      20.986  21.134   2.103  0.00  0.00    -0.579 OA
HETATM   37  O   UNK N   1      23.991  17.105   4.991  0.00  0.00    -0.261 OA
HETATM   38  O   UNK N   1      20.346  17.175   3.974  0.00  0.00    -0.261 OA
HETATM   39  O   UNK N   1      22.585  17.674   4.319  0.00  0.00    -0.258 OA
HETATM   40  O   UNK N   1      23.709  18.518   4.186  0.00  0.00    -0.348 OA
HETATM   41  O   UNK N   1      21.706  18.218   3.802  0.00  0.00    -0.341 OA
HETATM   42  O   UNK N   1      22.813  19.391   3.494  0.00  0.00    -0.318 OA
HETATM   43  O   UNK N   1      25.831  18.725   4.650  0.00  0.00    -0.253 OA
HETATM   44  O   UNK N   1      20.344  19.500   2.774  0.00  0.00    -0.253 OA
HETATM   45  O   UNK N   1      25.548  20.137   3.845  0.00  0.00    -0.253 OA
HETATM   46  O   UNK N   1      24.039  20.470   3.267  0.00  0.00    -0.251 OA
HETATM   47  O   UNK N   1      22.021  20.127   2.901  0.00  0.00    -0.250 OA
HETATM   48  S   UNK N   1      24.132  16.399   5.393  0.00  0.00     0.240 SA
HETATM   49  S   UNK N   1      19.682  16.690   4.046  0.00  0.00     0.240 SA
HETATM   50  S   UNK N   1      21.814  17.385   4.261  0.00  0.00     0.240 SA
HETATM   51  S   UNK N   1      25.972  18.019   5.052  0.00  0.00     0.240 SA
HETATM   52  S   UNK N   1      19.601  19.142   2.758  0.00  0.00     0.240 SA
HETATM   53  S   UNK N   1      26.303  19.971   4.134  0.00  0.00     0.240 SA
HETATM   54  S   UNK N   1      23.284  20.637   2.978  0.00  0.00     0.241 SA
HETATM   55  S   UNK N   1      21.504  20.631   2.502  0.00  0.00     0.241 SA
HETATM   56  H   UNK N   1      25.531  16.023   5.964  0.00  0.00     0.234 HD
HETATM   57  H   UNK N   1      18.169  16.489   3.742  0.00  0.00     0.234 HD
HETATM   58  H   UNK N   1      21.776  18.763   3.539  0.00  0.00     0.234 HD
HETATM   59  H   UNK N   1      24.575  18.396   4.482  0.00  0.00     0.234 HD
HETATM   60  H   UNK N   1      19.325  17.752   3.402  0.00  0.00     0.234 HD
HETATM   61  H   UNK N   1      25.102  18.998   4.313  0.00  0.00     0.234 HD
HETATM   62  H   UNK N   1      24.485  21.610   2.799  0.00  0.00     0.234 HD
HETATM   63  H   UNK N   1      20.003  20.286   2.276  0.00  0.00     0.234 HD
ENDROOT
TORSDOF 11
ENDMDL
MODEL 2
REMARK VINA RESULT:     -17.7      3.013      4.943
REMARK  11 active torsions:
REMARK  status: ('A' for Active; 'I' for Inactive)
REMARK    1  A    between atoms: O_40  and  C_11 
REMARK    2  A    between atoms: O_41  and  C_12 
REMARK    3  A    between atoms: C_12  and  O_42 
REMARK    4  A    between atoms: S_48  and  O_37 
REMARK    5  A    between atoms: S_49  and  O_38 
REMARK    6  A    between atoms: S_50  and  O_39 
REMARK    7  A    between atoms: S_51  and  O_43 
REMARK    8  A    between atoms: S_52  and  O_44 
REMARK    9  A    between atoms: S_53  and  O_45 
REMARK   10  A    between atoms: S_54  and  O_46 
REMARK   11  A    between atoms: S_55  and  O_47 
ROOT
HETATM    1  C   UNK N   1      20.659  17.023   5.807  0.00  0.00     0.226 A 
HETATM    2  C   UNK N   1      20.898  19.665   2.157  0.00  0.00     0.226 A 
HETATM    3  C   UNK N   1      20.564  17.664   3.739  0.00  0.00     0.263 A 
HETATM    4  C   UNK N   1      20.457  16.599   5.128  0.00  0.00     0.183 A 
HETATM    5  C   UNK N   1      20.704  18.876   2.299  0.00  0.00     0.183 A 
HETATM    6  C   UNK N   1      20.250  15.803   5.186  0.00  0.00     0.208 A 
HETATM    7  C   UNK N   1      20.481  18.322   1.731  0.00  0.00     0.211 A 
HETATM    8  C   UNK N   1      20.048  15.379   4.508  0.00  0.00     0.212 A 
HETATM    9  C   UNK N   1      20.053  15.753   3.772  0.00  0.00     0.232 A 
HETATM   10  C   UNK N   1      20.338  17.605   2.115  0.00  0.00     0.241 A 
HETATM   11  C   UNK N   1      20.260  16.548   3.714  0.00  0.00     0.297 A 
HETATM   12  C   UNK N   1      20.472  17.718   2.921  0.00  0.00     0.221 A 
HETATM   13  O   UNK N   1      20.946  17.568   6.886  0.00  0.00    -0.274 OA
HETATM   14  O   UNK N   1      21.191  18.919   5.971  0.00  0.00    -0.579 OA
HETATM   15  O   UNK N   1      21.270  18.667   7.107  0.00  0.00    -0.579 OA
HETATM   16  O   UNK N   1      21.499  21.735   2.499  0.00  0.00    -0.274 OA
HETATM   17  O   UNK N   1      21.440  21.059   3.447  0.00  0.00    -0.579 OA
HETATM   18  O   UNK N   1      21.171  20.834   1.835  0.00  0.00    -0.579 OA
HETATM   19  O   UNK N   1      20.806  18.929   2.982  0.00  0.00    -0.274 OA
HETATM   20  O   UNK N   1      21.129  19.392   4.511  0.00  0.00    -0.579 OA
HETATM   21  O   UNK N   1      21.084  19.757   3.403  0.00  0.00    -0.579 OA
HETATM   22  O   UNK N   1      20.569  16.529   6.142  0.00  0.00    -0.274 OA
HETATM   23  O   UNK N   1      20.325  15.179   7.059  0.00  0.00    -0.579 OA
HETATM   24  O   UNK N   1      20.649  16.277   7.279  0.00  0.00    -0.579 OA
HETATM   25  O   UNK N   1      20.746  19.481   1.372  0.00  0.00    -0.274 OA
HETATM   26  O   UNK N   1      20.402  18.933  -0.146  0.00  0.00    -0.579 OA
HETATM   27  O   UNK N   1      20.736  19.956   0.306  0.00  0.00    -0.579 OA
HETATM   28  O   UNK N   1      20.072  14.914   5.660  0.00  0.00    -0.274 OA
HETATM   29  O   UNK N   1      19.600  13.505   4.942  0.00  0.00    -0.579 OA
HETATM   30  O   UNK N   1      19.831  13.837   6.036  0.00  0.00    -0.579 OA
HETATM   31  O   UNK N   1      19.620  14.997   1.998  0.00  0.00    -0.274 OA
HETATM   32  O   UNK N   1      20.092  16.406   2.716  0.00  0.00    -0.579 OA
HETATM   33  O   UNK N   1      19.861  16.074   1.622  0.00  0.00    -0.579 OA
HETATM   34  O   UNK N   1      20.195  17.668   0.882  0.00  0.00    -0.274 OA
HETATM   35  O   UNK N   1      19.781  16.075   0.997  0.00  0.00    -0.579 OA
HETATM   36  O   UNK N   1      19.874  16.843   0.123  0.00  0.00    -0.579 OA
HETATM   37  O   UNK N   1      20.866  17.820   5.750  0.00  0.00    -0.261 OA
HETATM   38  O   UNK N   1      21.111  20.157   2.783  0.00  0.00    -0.261 OA
HETATM   39  O   UNK N   1      20.798  18.325   4.172  0.00  0.00    -0.258 OA
HETATM   40  O   UNK N   1      20.462  16.972   4.393  0.00  0.00    -0.348 OA
HETATM   41  O   UNK N   1      20.698  18.503   3.034  0.00  0.00    -0.341 OA
HETATM   42  O   UNK N   1      20.265  16.921   2.978  0.00  0.00    -0.318 OA
HETATM   43  O   UNK N   1      20.245  15.430   5.922  0.00  0.00    -0.253 OA
HETATM   44  O   UNK N   1      20.413  18.459   0.920  0.00  0.00    -0.253 OA
HETATM   45  O   UNK N   1      19.841  14.583   4.565  0.00  0.00    -0.253 OA
HETATM   46  O   UNK N   1      19.851  15.328   3.093  0.00  0.00    -0.251 OA
HETATM   47  O   UNK N   1      20.102  16.901   1.756  0.00  0.00    -0.250 OA
HETATM   48  S   UNK N   1      21.068  18.243   6.429  0.00  0.00     0.240 SA
HETATM   49  S   UNK N   1      21.306  20.947   2.641  0.00  0.00     0.240 SA
HETATM   50  S   UNK N   1      20.941  19.042   3.788  0.00  0.00     0.240 SA
HETATM   51  S   UNK N   1      20.447  15.854   6.600  0.00  0.00     0.240 SA
HETATM   52  S   UNK N   1      20.574  19.207   0.612  0.00  0.00     0.240 SA
HETATM   53  S   UNK N   1      19.836  14.210   5.301  0.00  0.00     0.240 SA
HETATM   54  S   UNK N   1      19.856  15.701   2.357  0.00  0.00     0.241 SA
HETATM   55  S   UNK N   1      19.988  16.872   0.940  0.00  0.00     0.241 SA
HETATM   56  H   UNK N   1      21.079  17.602   7.847  0.00  0.00     0.234 HD
HETATM   57  H   UNK N   1      21.476  22.085   1.594  0.00  0.00     0.234 HD
HETATM   58  H   UNK N   1      20.530  18.059   2.653  0.00  0.00     0.234 HD
HETATM   59  H   UNK N   1      20.436  16.494   5.183  0.00  0.00     0.234 HD
HETATM   60  H   UNK N   1      21.012  20.404   1.506  0.00  0.00     0.234 HD
HETATM   61  H   UNK N   1      20.216  15.708   5.121  0.00  0.00     0.234 HD
HETATM   62  H   UNK N   1      19.476  14.203   2.537  0.00  0.00     0.234 HD
HETATM   63  H   UNK N   1      20.201  18.107   0.017  0.00  0.00     0.234 HD
ENDROOT
TORSDOF 11
ENDMDL
MODEL 3
REMARK VINA RESULT:     -17.2     10.141     12.287
REMARK  11 active torsions:
REMARK  status: ('A' for Active; 'I' for Inactive)
REMARK    1  A    between atoms: O_40  and  C_11 
REMARK    2  A    between atoms: O_41  and  C_12 
REMARK    3  A    between atoms: C_12  and  O_42 
REMARK    4  A    between atoms: S_48  and  O_37 
REMARK    5  A    between atoms: S_49  and  O_38 
REMARK    6  A    between atoms: S_50  and  O_39 
REMARK    7  A    between atoms: S_51  and  O_43 
REMARK    8  A    between atoms: S_52  and  O_44 
REMARK    9  A    between atoms: S_53  and  O_45 
REMARK   10  A    between atoms: S_54  and  O_46 
REMARK   11  A    between atoms: S_55  and  O_47 
ROOT
HETATM    1  C   UNK N   1      34.679  17.119   9.021  0.00  0.00     0.226 A 
HETATM    2  C   UNK N   1      32.746  16.322   5.022  0.00  0.00     0.226 A 
HETATM    3  C   UNK N   1      33.624  16.094   7.430  0.00  0.00     0.263 A 
HETATM    4  C   UNK N   1      34.362  16.357   8.999  0.00  0.00     0.183 A 
HETATM    5  C   UNK N   1      32.853  15.893   5.719  0.00  0.00     0.183 A 
HETATM    6  C   UNK N   1      34.427  15.864   9.656  0.00  0.00     0.208 A 
HETATM    7  C   UNK N   1      32.597  15.121   5.857  0.00  0.00     0.211 A 
HETATM    8  C   UNK N   1      34.110  15.102   9.634  0.00  0.00     0.212 A 
HETATM    9  C   UNK N   1      33.728  14.835   8.953  0.00  0.00     0.232 A 
HETATM   10  C   UNK N   1      32.821  14.911   6.623  0.00  0.00     0.241 A 
HETATM   11  C   UNK N   1      33.663  15.328   8.296  0.00  0.00     0.297 A 
HETATM   12  C   UNK N   1      33.215  15.554   6.958  0.00  0.00     0.221 A 
HETATM   13  O   UNK N   1      35.189  18.244   9.158  0.00  0.00    -0.274 OA
HETATM   14  O   UNK N   1      34.672  18.504   7.613  0.00  0.00    -0.579 OA
HETATM   15  O   UNK N   1      35.248  19.135   8.408  0.00  0.00    -0.579 OA
HETATM   16  O   UNK N   1      32.820  17.950   3.570  0.00  0.00    -0.274 OA
HETATM   17  O   UNK N   1      33.321  18.164   4.601  0.00  0.00    -0.579 OA
HETATM   18  O   UNK N   1      32.532  16.879   3.931  0.00  0.00    -0.579 OA
HETATM   19  O   UNK N   1      33.190  16.409   6.035  0.00  0.00    -0.274 OA
HETATM   20  O   UNK N   1      33.926  17.795   6.473  0.00  0.00    -0.579 OA
HETATM   21  O   UNK N   1      33.360  17.260   5.604  0.00  0.00    -0.579 OA
HETATM   22  O   UNK N   1      34.868  17.023   9.586  0.00  0.00    -0.274 OA
HETATM   23  O   UNK N   1      35.385  16.763  11.132  0.00  0.00    -0.579 OA
HETATM   24  O   UNK N   1      35.444  17.655  10.382  0.00  0.00    -0.579 OA
HETATM   25  O   UNK N   1      32.365  15.646   4.755  0.00  0.00    -0.274 OA
HETATM   26  O   UNK N   1      31.638  14.211   4.389  0.00  0.00    -0.579 OA
HETATM   27  O   UNK N   1      31.815  15.214   3.821  0.00  0.00    -0.579 OA
HETATM   28  O   UNK N   1      34.703  15.601  10.606  0.00  0.00    -0.274 OA
HETATM   29  O   UNK N   1      34.413  14.152  11.339  0.00  0.00    -0.579 OA
HETATM   30  O   UNK N   1      34.940  15.144  11.652  0.00  0.00    -0.579 OA
HETATM   31  O   UNK N   1      32.883  13.081   8.617  0.00  0.00    -0.274 OA
HETATM   32  O   UNK N   1      33.174  14.530   7.884  0.00  0.00    -0.579 OA
HETATM   33  O   UNK N   1      32.647  13.538   7.571  0.00  0.00    -0.579 OA
HETATM   34  O   UNK N   1      32.206  14.086   5.926  0.00  0.00    -0.274 OA
HETATM   35  O   UNK N   1      32.337  13.099   7.242  0.00  0.00    -0.579 OA
HETATM   36  O   UNK N   1      31.868  12.999   6.178  0.00  0.00    -0.579 OA
HETATM   37  O   UNK N   1      34.614  17.613   8.363  0.00  0.00    -0.261 OA
HETATM   38  O   UNK N   1      33.034  17.092   4.963  0.00  0.00    -0.261 OA
HETATM   39  O   UNK N   1      33.808  16.841   7.136  0.00  0.00    -0.258 OA
HETATM   40  O   UNK N   1      33.980  16.089   8.319  0.00  0.00    -0.348 OA
HETATM   41  O   UNK N   1      33.235  16.160   6.399  0.00  0.00    -0.341 OA
HETATM   42  O   UNK N   1      33.281  15.060   7.616  0.00  0.00    -0.318 OA
HETATM   43  O   UNK N   1      34.809  16.131  10.336  0.00  0.00    -0.253 OA
HETATM   44  O   UNK N   1      32.188  14.642   5.323  0.00  0.00    -0.253 OA
HETATM   45  O   UNK N   1      34.176  14.609  10.291  0.00  0.00    -0.253 OA
HETATM   46  O   UNK N   1      33.411  14.073   8.931  0.00  0.00    -0.251 OA
HETATM   47  O   UNK N   1      32.675  14.187   6.990  0.00  0.00    -0.250 OA
HETATM   48  S   UNK N   1      34.931  18.374   8.386  0.00  0.00     0.240 SA
HETATM   49  S   UNK N   1      32.927  17.521   4.266  0.00  0.00     0.240 SA
HETATM   50  S   UNK N   1      33.584  17.051   6.370  0.00  0.00     0.240 SA
HETATM   51  S   UNK N   1      35.126  16.893  10.359  0.00  0.00     0.240 SA
HETATM   52  S   UNK N   1      32.001  14.928   4.572  0.00  0.00     0.240 SA
HETATM   53  S   UNK N   1      34.558  14.877  10.972  0.00  0.00     0.240 SA
HETATM   54  S   UNK N   1      33.029  13.805   8.251  0.00  0.00     0.241 SA
HETATM   55  S   UNK N   1      32.272  13.593   6.584  0.00  0.00     0.241 SA
HETATM   56  H   UNK N   1      35.664  18.942   9.636  0.00  0.00     0.234 HD
HETATM   57  H   UNK N   1      32.355  17.548   2.819  0.00  0.00     0.234 HD
HETATM   58  H   UNK N   1      33.067  15.594   6.548  0.00  0.00     0.234 HD
HETATM   59  H   UNK N   1      34.394  16.325   9.110  0.00  0.00     0.234 HD
HETATM   60  H   UNK N   1      32.389  16.359   4.097  0.00  0.00     0.234 HD
HETATM   61  H   UNK N   1      34.399  15.754   9.697  0.00  0.00     0.234 HD
HETATM   62  H   UNK N   1      33.187  12.927   9.525  0.00  0.00     0.234 HD
HETATM   63  H   UNK N   1      31.757  13.772   5.126  0.00  0.00     0.234 HD
ENDROOT
TORSDOF 11
ENDMDL
MODEL 4
REMARK VINA RESULT:     -17.1      0.812      3.302
REMARK  11 active torsions:
REMARK  status: ('A' for Active; 'I' for Inactive)
REMARK    1  A    between atoms: O_40  and  C_11 
REMARK    2  A    between atoms: O_41  and  C_12 
REMARK    3  A    between atoms: C_12  and  O_42 
REMARK    4  A    between atoms: S_48  and  O_37 
REMARK    5  A    between atoms: S_49  and  O_38 
REMARK    6  A    between atoms: S_50  and  O_39 
REMARK    7  A    between atoms: S_51  and  O_43 
REMARK    8  A    between atoms: S_52  and  O_44 
REMARK    9  A    between atoms: S_53  and  O_45 
REMARK   10  A    between atoms: S_54  and  O_46 
REMARK   11  A    between atoms: S_55  and  O_47 
ROOT
HETATM    1  C   UNK N   1      25.075  19.520   3.496  0.00  0.00     0.226 A 
HETATM    2  C   UNK N   1      20.707  19.697   2.380  0.00  0.00     0.226 A 
HETATM    3  C   UNK N   1      22.969  19.021   3.403  0.00  0.00     0.263 A 
HETATM    4  C   UNK N   1      24.657  18.912   3.866  0.00  0.00     0.183 A 
HETATM    5  C   UNK N   1      21.172  19.209   2.856  0.00  0.00     0.183 A 
HETATM    6  C   UNK N   1      25.050  18.381   4.359  0.00  0.00     0.208 A 
HETATM    7  C   UNK N   1      20.907  18.561   3.291  0.00  0.00     0.211 A 
HETATM    8  C   UNK N   1      24.632  17.773   4.728  0.00  0.00     0.212 A 
HETATM    9  C   UNK N   1      23.819  17.697   4.603  0.00  0.00     0.232 A 
HETATM   10  C   UNK N   1      21.556  18.235   3.684  0.00  0.00     0.241 A 
HETATM   11  C   UNK N   1      23.426  18.228   4.110  0.00  0.00     0.297 A 
HETATM   12  C   UNK N   1      22.221  18.683   3.492  0.00  0.00     0.221 A 
HETATM   13  O   UNK N   1      25.797  20.397   2.991  0.00  0.00    -0.274 OA
HETATM   14  O   UNK N   1      24.405  20.922   2.277  0.00  0.00    -0.579 OA
HETATM   15  O   UNK N   1      25.520  21.267   2.265  0.00  0.00    -0.579 OA
HETATM   16  O   UNK N   1      20.119  21.303   1.024  0.00  0.00    -0.274 OA
HETATM   17  O   UNK N   1      21.250  21.264   1.307  0.00  0.00    -0.579 OA
HETATM   18  O   UNK N   1      19.919  20.368   1.691  0.00  0.00    -0.579 OA
HETATM   19  O   UNK N   1      21.754  19.560   2.720  0.00  0.00    -0.274 OA
HETATM   20  O   UNK N   1      22.909  20.585   2.198  0.00  0.00    -0.579 OA
HETATM   21  O   UNK N   1      21.771  20.332   2.135  0.00  0.00    -0.579 OA
HETATM   22  O   UNK N   1      25.585  19.328   3.758  0.00  0.00    -0.274 OA
HETATM   23  O   UNK N   1      26.977  18.802   4.471  0.00  0.00    -0.579 OA
HETATM   24  O   UNK N   1      26.700  19.673   3.745  0.00  0.00    -0.579 OA
HETATM   25  O   UNK N   1      20.091  19.208   2.614  0.00  0.00    -0.274 OA
HETATM   26  O   UNK N   1      18.983  18.129   3.187  0.00  0.00    -0.579 OA
HETATM   27  O   UNK N   1      18.943  19.052   2.475  0.00  0.00    -0.579 OA
HETATM   28  O   UNK N   1      25.852  17.975   4.848  0.00  0.00    -0.274 OA
HETATM   29  O   UNK N   1      25.822  16.660   5.844  0.00  0.00    -0.579 OA
HETATM   30  O   UNK N   1      26.648  17.394   5.470  0.00  0.00    -0.579 OA
HETATM   31  O   UNK N   1      22.574  16.356   5.346  0.00  0.00    -0.274 OA
HETATM   32  O   UNK N   1      22.603  17.671   4.350  0.00  0.00    -0.579 OA
HETATM   33  O   UNK N   1      21.777  16.937   4.724  0.00  0.00    -0.579 OA
HETATM   34  O   UNK N   1      20.437  17.714   3.830  0.00  0.00    -0.274 OA
HETATM   35  O   UNK N   1      21.223  16.651   4.817  0.00  0.00    -0.579 OA
HETATM   36  O   UNK N   1      20.120  16.788   4.464  0.00  0.00    -0.579 OA
HETATM   37  O   UNK N   1      24.682  20.052   3.003  0.00  0.00    -0.261 OA
HETATM   38  O   UNK N   1      21.050  20.329   1.975  0.00  0.00    -0.261 OA
HETATM   39  O   UNK N   1      23.068  19.682   2.921  0.00  0.00    -0.258 OA
HETATM   40  O   UNK N   1      23.845  18.836   3.741  0.00  0.00    -0.348 OA
HETATM   41  O   UNK N   1      21.984  19.285   2.980  0.00  0.00    -0.341 OA
HETATM   42  O   UNK N   1      22.615  18.152   3.986  0.00  0.00    -0.318 OA
HETATM   43  O   UNK N   1      25.862  18.457   4.483  0.00  0.00    -0.253 OA
HETATM   44  O   UNK N   1      20.131  18.285   3.326  0.00  0.00    -0.253 OA
HETATM   45  O   UNK N   1      25.025  17.242   5.221  0.00  0.00    -0.253 OA
HETATM   46  O   UNK N   1      23.401  17.089   4.973  0.00  0.00    -0.251 OA
HETATM   47  O   UNK N   1      21.541  17.578   4.182  0.00  0.00    -0.250 OA
HETATM   48  S   UNK N   1      25.101  20.659   2.634  0.00  0.00     0.240 SA
HETATM   49  S   UNK N   1      20.585  20.816   1.499  0.00  0.00     0.240 SA
HETATM   50  S   UNK N   1      22.419  20.008   2.528  0.00  0.00     0.240 SA
HETATM   51  S   UNK N   1      26.280  19.065   4.114  0.00  0.00     0.240 SA
HETATM   52  S   UNK N   1      19.537  18.668   2.901  0.00  0.00     0.240 SA
HETATM   53  S   UNK N   1      25.837  17.318   5.346  0.00  0.00     0.240 SA
HETATM   54  S   UNK N   1      22.589  17.013   4.848  0.00  0.00     0.241 SA
HETATM   55  S   UNK N   1      20.831  17.183   4.323  0.00  0.00     0.241 SA
HETATM   56  H   UNK N   1      26.633  20.860   2.825  0.00  0.00     0.234 HD
HETATM   57  H   UNK N   1      19.168  21.133   0.939  0.00  0.00     0.234 HD
HETATM   58  H   UNK N   1      21.837  18.800   3.317  0.00  0.00     0.234 HD
HETATM   59  H   UNK N   1      24.750  18.863   3.924  0.00  0.00     0.234 HD
HETATM   60  H   UNK N   1      19.812  19.916   2.012  0.00  0.00     0.234 HD
HETATM   61  H   UNK N   1      25.034  18.285   4.429  0.00  0.00     0.234 HD
HETATM   62  H   UNK N   1      23.392  16.046   5.765  0.00  0.00     0.234 HD
HETATM   63  H   UNK N   1      19.482  17.625   3.683  0.00  0.00     0.234 HD
ENDROOT
TORSDOF 11
ENDMDL
MODEL 5
REMARK VINA RESULT:     -16.9      0.896      2.069
REMARK  11 active torsions:
REMARK  status: ('A' for Active; 'I' for Inactive)
REMARK    1  A    between atoms: O_40  and  C_11 
REMARK    2  A    between atoms: O_41  and  C_12 
REMARK    3  A    between atoms: C_12  and  O_42 
REMARK    4  A    between atoms: S_48  and  O_37 
REMARK    5  A    between atoms: S_49  and  O_38 
REMARK    6  A    between atoms: S_50  and  O_39 
REMARK    7  A    between atoms: S_51  and  O_43 
REMARK    8  A    between atoms: S_52  and  O_44 
REMARK    9  A    between atoms: S_53  and  O_45 
REMARK   10  A    between atoms: S_54  and  O_46 
REMARK   11  A    between atoms: S_55  and  O_47 
ROOT
HETATM    1  C   UNK N   1      23.260  16.369   4.847  0.00  0.00     0.226 A 
HETATM    2  C   UNK N   1      20.549  19.342   2.804  0.00  0.00     0.226 A 
HETATM    3  C   UNK N   1      22.576  18.190   3.894  0.00  0.00     0.263 A 
HETATM    4  C   UNK N   1      23.668  17.069   4.685  0.00  0.00     0.183 A 
HETATM    5  C   UNK N   1      21.338  19.336   3.047  0.00  0.00     0.183 A 
HETATM    6  C   UNK N   1      24.461  17.142   4.897  0.00  0.00     0.208 A 
HETATM    7  C   UNK N   1      21.877  19.954   2.959  0.00  0.00     0.211 A 
HETATM    8  C   UNK N   1      24.868  17.842   4.735  0.00  0.00     0.212 A 
HETATM    9  C   UNK N   1      24.479  18.467   4.361  0.00  0.00     0.232 A 
HETATM   10  C   UNK N   1      22.599  19.711   3.278  0.00  0.00     0.241 A 
HETATM   11  C   UNK N   1      23.686  18.393   4.149  0.00  0.00     0.297 A 
HETATM   12  C   UNK N   1      22.505  18.944   3.564  0.00  0.00     0.221 A 
HETATM   13  O   UNK N   1      22.742  15.277   5.136  0.00  0.00    -0.274 OA
HETATM   14  O   UNK N   1      21.378  15.913   4.460  0.00  0.00    -0.579 OA
HETATM   15  O   UNK N   1      21.654  14.896   4.960  0.00  0.00    -0.579 OA
HETATM   16  O   UNK N   1      18.497  18.692   2.445  0.00  0.00    -0.274 OA
HETATM   17  O   UNK N   1      19.191  17.918   2.973  0.00  0.00    -0.579 OA
HETATM   18  O   UNK N   1      19.379  19.454   2.402  0.00  0.00    -0.579 OA
HETATM   19  O   UNK N   1      21.301  18.692   3.299  0.00  0.00    -0.274 OA
HETATM   20  O   UNK N   1      20.874  17.195   3.782  0.00  0.00    -0.579 OA
HETATM   21  O   UNK N   1      20.486  18.168   3.266  0.00  0.00    -0.579 OA
HETATM   22  O   UNK N   1      23.760  16.137   5.095  0.00  0.00    -0.274 OA
HETATM   23  O   UNK N   1      25.124  15.500   5.771  0.00  0.00    -0.579 OA
HETATM   24  O   UNK N   1      24.036  15.118   5.595  0.00  0.00    -0.579 OA
HETATM   25  O   UNK N   1      20.715  20.102   2.544  0.00  0.00    -0.274 OA
HETATM   26  O   UNK N   1      21.227  21.603   2.086  0.00  0.00    -0.579 OA
HETATM   27  O   UNK N   1      20.219  21.018   2.018  0.00  0.00    -0.579 OA
HETATM   28  O   UNK N   1      25.356  16.845   5.292  0.00  0.00    -0.274 OA
HETATM   29  O   UNK N   1      26.742  17.738   5.349  0.00  0.00    -0.579 OA
HETATM   30  O   UNK N   1      26.436  16.667   5.694  0.00  0.00    -0.579 OA
HETATM   31  O   UNK N   1      25.191  20.239   3.853  0.00  0.00    -0.274 OA
HETATM   32  O   UNK N   1      23.805  19.345   3.796  0.00  0.00    -0.579 OA
HETATM   33  O   UNK N   1      24.111  20.416   3.451  0.00  0.00    -0.579 OA
HETATM   34  O   UNK N   1      22.508  20.849   2.785  0.00  0.00    -0.274 OA
HETATM   35  O   UNK N   1      24.096  20.998   3.209  0.00  0.00    -0.579 OA
HETATM   36  O   UNK N   1      23.312  21.687   2.687  0.00  0.00    -0.579 OA
HETATM   37  O   UNK N   1      22.466  16.294   4.636  0.00  0.00    -0.261 OA
HETATM   38  O   UNK N   1      20.074  18.680   2.930  0.00  0.00    -0.261 OA
HETATM   39  O   UNK N   1      21.928  17.681   3.904  0.00  0.00    -0.258 OA
HETATM   40  O   UNK N   1      23.280  17.693   4.312  0.00  0.00    -0.348 OA
HETATM   41  O   UNK N   1      21.726  18.712   3.421  0.00  0.00    -0.341 OA
HETATM   42  O   UNK N   1      23.299  19.018   3.775  0.00  0.00    -0.318 OA
HETATM   43  O   UNK N   1      24.848  16.518   5.271  0.00  0.00    -0.253 OA
HETATM   44  O   UNK N   1      21.723  20.687   2.612  0.00  0.00    -0.253 OA
HETATM   45  O   UNK N   1      25.661  17.917   4.946  0.00  0.00    -0.253 OA
HETATM   46  O   UNK N   1      24.886  19.167   4.199  0.00  0.00    -0.251 OA
HETATM   47  O   UNK N   1      23.291  20.158   3.307  0.00  0.00    -0.250 OA
HETATM   48  S   UNK N   1      22.060  15.595   4.798  0.00  0.00     0.240 SA
HETATM   49  S   UNK N   1      19.285  18.686   2.687  0.00  0.00     0.240 SA
HETATM   50  S   UNK N   1      21.207  17.924   3.585  0.00  0.00     0.240 SA
HETATM   51  S   UNK N   1      24.442  15.819   5.433  0.00  0.00     0.240 SA
HETATM   52  S   UNK N   1      20.971  20.853   2.315  0.00  0.00     0.240 SA
HETATM   53  S   UNK N   1      26.048  17.291   5.320  0.00  0.00     0.240 SA
HETATM   54  S   UNK N   1      24.499  19.792   3.825  0.00  0.00     0.241 SA
HETATM   55  S   UNK N   1      23.302  20.923   2.997  0.00  0.00     0.241 SA
HETATM   56  H   UNK N   1      22.730  14.378   5.500  0.00  0.00     0.234 HD
HETATM   57  H   UNK N   1      18.129  19.478   2.011  0.00  0.00     0.234 HD
HETATM   58  H   UNK N   1      22.159  19.138   3.379  0.00  0.00     0.234 HD
HETATM   59  H   UNK N   1      23.773  17.035   4.731  0.00  0.00     0.234 HD
HETATM   60  H   UNK N   1      19.800  19.830   2.376  0.00  0.00     0.234 HD
HETATM   61  H   UNK N   1      24.554  17.218   4.894  0.00  0.00     0.234 HD
HETATM   62  H   UNK N   1      25.993  19.865   4.251  0.00  0.00     0.234 HD
HETATM   63  H   UNK N   1      22.052  21.583   2.346  0.00  0.00     0.234 HD
ENDROOT
TORSDOF 11
ENDMDL
MODEL 6
REMARK VINA RESULT:     -16.7      5.696      8.673
REMARK  11 active torsions:
REMARK  status: ('A' for Active; 'I' for Inactive)
REMARK    1  A    between atoms: O_40  and  C_11 
REMARK    2  A    between atoms: O_41  and  C_12 
REMARK    3  A    between atoms: C_12  and  O_42 
REMARK    4  A    between atoms: S_48  and  O_37 
REMARK    5  A    between atoms: S_49  and  O_38 
REMARK    6  A    between atoms: S_50  and  O_39 
REMARK    7  A    between atoms: S_51  and  O_43 
REMARK    8  A    between atoms: S_52  and  O_44 
REMARK    9  A    between atoms: S_53  and  O_45 
REMARK   10  A    between atoms: S_54  and  O_46 
REMARK   11  A    between atoms: S_55  and  O_47 
ROOT
HETATM    1  C   UNK N   1      32.646  17.355   5.629  0.00  0.00     0.226 A 
HETATM    2  C   UNK N   1      28.189  16.826   5.169  0.00  0.00     0.226 A 
HETATM    3  C   UNK N   1      30.548  17.168   6.137  0.00  0.00     0.263 A 
HETATM    4  C   UNK N   1      32.275  17.377   6.366  0.00  0.00     0.183 A 
HETATM    5  C   UNK N   1      28.705  16.937   5.804  0.00  0.00     0.183 A 
HETATM    6  C   UNK N   1      32.721  17.485   7.050  0.00  0.00     0.208 A 
HETATM    7  C   UNK N   1      28.493  16.982   6.599  0.00  0.00     0.211 A 
HETATM    8  C   UNK N   1      32.349  17.508   7.787  0.00  0.00     0.212 A 
HETATM    9  C   UNK N   1      31.530  17.422   7.837  0.00  0.00     0.232 A 
HETATM   10  C   UNK N   1      29.181  17.096   7.041  0.00  0.00     0.241 A 
HETATM   11  C   UNK N   1      31.083  17.314   7.153  0.00  0.00     0.297 A 
HETATM   12  C   UNK N   1      29.817  17.120   6.518  0.00  0.00     0.221 A 
HETATM   13  O   UNK N   1      33.303  17.336   4.574  0.00  0.00    -0.274 OA
HETATM   14  O   UNK N   1      31.842  17.112   3.842  0.00  0.00    -0.579 OA
HETATM   15  O   UNK N   1      32.945  17.202   3.472  0.00  0.00    -0.579 OA
HETATM   16  O   UNK N   1      27.450  16.569   3.132  0.00  0.00    -0.274 OA
HETATM   17  O   UNK N   1      28.603  16.705   3.242  0.00  0.00    -0.579 OA
HETATM   18  O   UNK N   1      27.329  16.655   4.289  0.00  0.00    -0.579 OA
HETATM   19  O   UNK N   1      29.266  16.964   5.398  0.00  0.00    -0.274 OA
HETATM   20  O   UNK N   1      30.350  16.978   4.181  0.00  0.00    -0.579 OA
HETATM   21  O   UNK N   1      29.215  16.875   4.434  0.00  0.00    -0.579 OA
HETATM   22  O   UNK N   1      33.181  17.436   5.898  0.00  0.00    -0.274 OA
HETATM   23  O   UNK N   1      34.644  17.660   6.630  0.00  0.00    -0.579 OA
HETATM   24  O   UNK N   1      34.285  17.526   5.528  0.00  0.00    -0.579 OA
HETATM   25  O   UNK N   1      27.606  16.811   5.746  0.00  0.00    -0.274 OA
HETATM   26  O   UNK N   1      26.573  16.809   7.033  0.00  0.00    -0.579 OA
HETATM   27  O   UNK N   1      26.452  16.696   5.878  0.00  0.00    -0.579 OA
HETATM   28  O   UNK N   1      33.572  17.626   7.601  0.00  0.00    -0.274 OA
HETATM   29  O   UNK N   1      33.658  17.776   9.241  0.00  0.00    -0.579 OA
HETATM   30  O   UNK N   1      34.433  17.786   8.370  0.00  0.00    -0.579 OA
HETATM   31  O   UNK N   1      30.381  17.434   9.444  0.00  0.00    -0.274 OA
HETATM   32  O   UNK N   1      30.296  17.284   7.803  0.00  0.00    -0.579 OA
HETATM   33  O   UNK N   1      29.520  17.273   8.675  0.00  0.00    -0.579 OA
HETATM   34  O   UNK N   1      28.089  17.026   7.630  0.00  0.00    -0.274 OA
HETATM   35  O   UNK N   1      28.982  17.242   9.001  0.00  0.00    -0.579 OA
HETATM   36  O   UNK N   1      27.848  17.098   8.769  0.00  0.00    -0.579 OA
HETATM   37  O   UNK N   1      32.200  17.247   4.944  0.00  0.00    -0.261 OA
HETATM   38  O   UNK N   1      28.483  16.792   4.399  0.00  0.00    -0.261 OA
HETATM   39  O   UNK N   1      30.591  17.102   5.317  0.00  0.00    -0.258 OA
HETATM   40  O   UNK N   1      31.456  17.292   6.416  0.00  0.00    -0.348 OA
HETATM   41  O   UNK N   1      29.524  17.022   5.753  0.00  0.00    -0.341 OA
HETATM   42  O   UNK N   1      30.265  17.228   7.203  0.00  0.00    -0.318 OA
HETATM   43  O   UNK N   1      33.540  17.570   7.000  0.00  0.00    -0.253 OA
HETATM   44  O   UNK N   1      27.727  16.924   6.901  0.00  0.00    -0.253 OA
HETATM   45  O   UNK N   1      32.795  17.615   8.471  0.00  0.00    -0.253 OA
HETATM   46  O   UNK N   1      31.158  17.444   8.573  0.00  0.00    -0.251 OA
HETATM   47  O   UNK N   1      29.223  17.171   7.861  0.00  0.00    -0.250 OA
HETATM   48  S   UNK N   1      32.572  17.224   4.208  0.00  0.00     0.240 SA
HETATM   49  S   UNK N   1      27.966  16.680   3.765  0.00  0.00     0.240 SA
HETATM   50  S   UNK N   1      29.903  16.988   4.875  0.00  0.00     0.240 SA
HETATM   51  S   UNK N   1      33.912  17.548   6.264  0.00  0.00     0.240 SA
HETATM   52  S   UNK N   1      27.089  16.810   6.390  0.00  0.00     0.240 SA
HETATM   53  S   UNK N   1      33.615  17.701   8.420  0.00  0.00     0.240 SA
HETATM   54  S   UNK N   1      30.339  17.359   8.624  0.00  0.00     0.241 SA
HETATM   55  S   UNK N   1      28.536  17.134   8.315  0.00  0.00     0.241 SA
HETATM   56  H   UNK N   1      34.112  17.379   4.041  0.00  0.00     0.234 HD
HETATM   57  H   UNK N   1      26.498  16.478   3.292  0.00  0.00     0.234 HD
HETATM   58  H   UNK N   1      29.417  17.062   6.351  0.00  0.00     0.234 HD
HETATM   59  H   UNK N   1      32.374  17.394   6.431  0.00  0.00     0.234 HD
HETATM   60  H   UNK N   1      27.260  16.696   4.847  0.00  0.00     0.234 HD
HETATM   61  H   UNK N   1      32.713  17.494   7.170  0.00  0.00     0.234 HD
HETATM   62  H   UNK N   1      31.240  17.566   9.875  0.00  0.00     0.234 HD
HETATM   63  H   UNK N   1      27.126  16.926   7.690  0.00  0.00     0.234 HD
ENDROOT
TORSDOF 11
ENDMDL
MODEL 7
REMARK VINA RESULT:     -16.6     10.000     12.595
REMARK  11 active torsions:
REMARK  status: ('A' for Active; 'I' for Inactive)
REMARK    1  A    between atoms: O_40  and  C_11 
REMARK    2  A    between atoms: O_41  and  C_12 
REMARK    3  A    between atoms: C_12  and  O_42 
REMARK    4  A    between atoms: S_48  and  O_37 
REMARK    5  A    between atoms: S_49  and  O_38 
REMARK    6  A    between atoms: S_50  and  O_39 
REMARK    7  A    between atoms: S_51  and  O_43 
REMARK    8  A    between atoms: S_52  and  O_44 
REMARK    9  A    between atoms: S_53  and  O_45 
REMARK   10  A    between atoms: S_54  and  O_46 
REMARK   11  A    between atoms: S_55  and  O_47 
ROOT
HETATM    1  C   UNK N   1      32.615  16.111   5.143  0.00  0.00     0.226 A 
HETATM    2  C   UNK N   1      34.696  17.443   8.919  0.00  0.00     0.226 A 
HETATM    3  C   UNK N   1      33.390  16.085   7.167  0.00  0.00     0.263 A 
HETATM    4  C   UNK N   1      32.570  15.523   5.722  0.00  0.00     0.183 A 
HETATM    5  C   UNK N   1      34.291  16.765   8.679  0.00  0.00     0.183 A 
HETATM    6  C   UNK N   1      32.181  14.815   5.560  0.00  0.00     0.208 A 
HETATM    7  C   UNK N   1      34.159  16.091   9.137  0.00  0.00     0.211 A 
HETATM    8  C   UNK N   1      32.136  14.227   6.138  0.00  0.00     0.212 A 
HETATM    9  C   UNK N   1      32.481  14.351   6.878  0.00  0.00     0.232 A 
HETATM   10  C   UNK N   1      33.733  15.552   8.680  0.00  0.00     0.241 A 
HETATM   11  C   UNK N   1      32.869  15.059   7.040  0.00  0.00     0.297 A 
HETATM   12  C   UNK N   1      33.602  15.892   7.941  0.00  0.00     0.221 A 
HETATM   13  O   UNK N   1      32.626  16.926   4.206  0.00  0.00    -0.274 OA
HETATM   14  O   UNK N   1      33.472  17.887   5.246  0.00  0.00    -0.579 OA
HETATM   15  O   UNK N   1      33.094  17.993   4.147  0.00  0.00    -0.579 OA
HETATM   16  O   UNK N   1      35.594  19.431   8.878  0.00  0.00    -0.274 OA
HETATM   17  O   UNK N   1      35.059  19.094   7.899  0.00  0.00    -0.579 OA
HETATM   18  O   UNK N   1      35.321  18.413   9.379  0.00  0.00    -0.579 OA
HETATM   19  O   UNK N   1      34.160  17.015   8.047  0.00  0.00    -0.274 OA
HETATM   20  O   UNK N   1      34.029  17.888   6.677  0.00  0.00    -0.579 OA
HETATM   21  O   UNK N   1      34.454  17.894   7.764  0.00  0.00    -0.579 OA
HETATM   22  O   UNK N   1      32.306  15.759   4.763  0.00  0.00    -0.274 OA
HETATM   23  O   UNK N   1      31.459  14.798   3.721  0.00  0.00    -0.579 OA
HETATM   24  O   UNK N   1      31.927  15.865   3.663  0.00  0.00    -0.579 OA
HETATM   25  O   UNK N   1      34.788  17.043   9.630  0.00  0.00    -0.274 OA
HETATM   26  O   UNK N   1      34.876  16.095  10.977  0.00  0.00    -0.579 OA
HETATM   27  O   UNK N   1      35.256  17.161  10.692  0.00  0.00    -0.579 OA
HETATM   28  O   UNK N   1      31.654  14.143   4.996  0.00  0.00    -0.274 OA
HETATM   29  O   UNK N   1      31.153  12.647   5.478  0.00  0.00    -0.579 OA
HETATM   30  O   UNK N   1      31.060  13.273   4.498  0.00  0.00    -0.579 OA
HETATM   31  O   UNK N   1      32.529  13.139   8.437  0.00  0.00    -0.274 OA
HETATM   32  O   UNK N   1      33.030  14.635   7.956  0.00  0.00    -0.579 OA
HETATM   33  O   UNK N   1      33.124  14.010   8.936  0.00  0.00    -0.579 OA
HETATM   34  O   UNK N   1      34.045  15.245   9.844  0.00  0.00    -0.274 OA
HETATM   35  O   UNK N   1      33.267  13.826   9.521  0.00  0.00    -0.579 OA
HETATM   36  O   UNK N   1      33.829  14.269  10.443  0.00  0.00    -0.579 OA
HETATM   37  O   UNK N   1      33.004  16.820   5.304  0.00  0.00    -0.261 OA
HETATM   38  O   UNK N   1      34.785  18.076   8.398  0.00  0.00    -0.261 OA
HETATM   39  O   UNK N   1      33.603  16.815   6.850  0.00  0.00    -0.258 OA
HETATM   40  O   UNK N   1      32.914  15.646   6.461  0.00  0.00    -0.348 OA
HETATM   41  O   UNK N   1      33.947  16.642   7.940  0.00  0.00    -0.341 OA
HETATM   42  O   UNK N   1      33.213  15.183   7.779  0.00  0.00    -0.318 OA
HETATM   43  O   UNK N   1      31.838  14.692   4.821  0.00  0.00    -0.253 OA
HETATM   44  O   UNK N   1      34.409  15.977   9.915  0.00  0.00    -0.253 OA
HETATM   45  O   UNK N   1      31.748  13.519   5.977  0.00  0.00    -0.253 OA
HETATM   46  O   UNK N   1      32.435  13.764   7.457  0.00  0.00    -0.251 OA
HETATM   47  O   UNK N   1      33.483  14.804   8.921  0.00  0.00    -0.250 OA
HETATM   48  S   UNK N   1      33.049  17.407   4.726  0.00  0.00     0.240 SA
HETATM   49  S   UNK N   1      35.190  18.754   8.638  0.00  0.00     0.240 SA
HETATM   50  S   UNK N   1      34.029  17.355   7.307  0.00  0.00     0.240 SA
HETATM   51  S   UNK N   1      31.882  15.278   4.242  0.00  0.00     0.240 SA
HETATM   52  S   UNK N   1      34.832  16.569  10.304  0.00  0.00     0.240 SA
HETATM   53  S   UNK N   1      31.403  13.396   5.237  0.00  0.00     0.240 SA
HETATM   54  S   UNK N   1      32.780  13.886   8.197  0.00  0.00     0.241 SA
HETATM   55  S   UNK N   1      33.656  14.536   9.682  0.00  0.00     0.241 SA
HETATM   56  H   UNK N   1      32.423  17.240   3.311  0.00  0.00     0.234 HD
HETATM   57  H   UNK N   1      35.966  19.483   9.773  0.00  0.00     0.234 HD
HETATM   58  H   UNK N   1      33.825  16.125   8.238  0.00  0.00     0.234 HD
HETATM   59  H   UNK N   1      32.508  15.444   5.657  0.00  0.00     0.234 HD
HETATM   60  H   UNK N   1      35.193  17.924   9.629  0.00  0.00     0.234 HD
HETATM   61  H   UNK N   1      32.151  14.708   5.608  0.00  0.00     0.234 HD
HETATM   62  H   UNK N   1      32.032  12.574   7.826  0.00  0.00     0.234 HD
HETATM   63  H   UNK N   1      34.449  15.390  10.713  0.00  0.00     0.234 HD
ENDROOT
TORSDOF 11
ENDMDL
MODEL 8
REMARK VINA RESULT:     -16.5     11.198     13.483
REMARK  11 active torsions:
REMARK  status: ('A' for Active; 'I' for Inactive)
REMARK    1  A    between atoms: O_40  and  C_11 
REMARK    2  A    between atoms: O_41  and  C_12 
REMARK    3  A    between atoms: C_12  and  O_42 
REMARK    4  A    between atoms: S_48  and  O_37 
REMARK    5  A    between atoms: S_49  and  O_38 
REMARK    6  A    between atoms: S_50  and  O_39 
REMARK    7  A    between atoms: S_51  and  O_43 
REMARK    8  A    between atoms: S_52  and  O_44 
REMARK    9  A    between atoms: S_53  and  O_45 
REMARK   10  A    between atoms: S_54  and  O_46 
REMARK   11  A    between atoms: S_55  and  O_47 
ROOT
HETATM    1  C   UNK N   1      34.523  13.269  10.251  0.00  0.00     0.226 A 
HETATM    2  C   UNK N   1      33.560  15.731   6.593  0.00  0.00     0.226 A 
HETATM    3  C   UNK N   1      34.345  14.973   8.923  0.00  0.00     0.263 A 
HETATM    4  C   UNK N   1      34.737  14.058  10.367  0.00  0.00     0.183 A 
HETATM    5  C   UNK N   1      33.893  15.883   7.333  0.00  0.00     0.183 A 
HETATM    6  C   UNK N   1      35.077  14.291  11.081  0.00  0.00     0.208 A 
HETATM    7  C   UNK N   1      34.158  16.615   7.604  0.00  0.00     0.211 A 
HETATM    8  C   UNK N   1      35.292  15.080  11.198  0.00  0.00     0.212 A 
HETATM    9  C   UNK N   1      35.166  15.634  10.599  0.00  0.00     0.232 A 
HETATM   10  C   UNK N   1      34.448  16.514   8.370  0.00  0.00     0.241 A 
HETATM   11  C   UNK N   1      34.826  15.400   9.885  0.00  0.00     0.297 A 
HETATM   12  C   UNK N   1      34.361  15.720   8.572  0.00  0.00     0.221 A 
HETATM   13  O   UNK N   1      34.237  12.062  10.178  0.00  0.00    -0.274 OA
HETATM   14  O   UNK N   1      33.700  12.431   8.663  0.00  0.00    -0.579 OA
HETATM   15  O   UNK N   1      33.754  11.459   9.305  0.00  0.00    -0.579 OA
HETATM   16  O   UNK N   1      32.654  14.662   4.920  0.00  0.00    -0.274 OA
HETATM   17  O   UNK N   1      32.899  14.019   5.861  0.00  0.00    -0.579 OA
HETATM   18  O   UNK N   1      33.073  15.610   5.456  0.00  0.00    -0.579 OA
HETATM   19  O   UNK N   1      33.837  15.224   7.541  0.00  0.00    -0.274 OA
HETATM   20  O   UNK N   1      33.566  13.626   7.707  0.00  0.00    -0.579 OA
HETATM   21  O   UNK N   1      33.461  14.531   6.977  0.00  0.00    -0.579 OA
HETATM   22  O   UNK N   1      34.719  13.134  10.806  0.00  0.00    -0.274 OA
HETATM   23  O   UNK N   1      35.256  12.765  12.322  0.00  0.00    -0.579 OA
HETATM   24  O   UNK N   1      34.774  12.161  11.448  0.00  0.00    -0.579 OA
HETATM   25  O   UNK N   1      33.676  16.532   6.461  0.00  0.00    -0.274 OA
HETATM   26  O   UNK N   1      33.984  18.150   6.373  0.00  0.00    -0.579 OA
HETATM   27  O   UNK N   1      33.523  17.358   5.652  0.00  0.00    -0.579 OA
HETATM   28  O   UNK N   1      35.437  14.170  12.031  0.00  0.00    -0.274 OA
HETATM   29  O   UNK N   1      36.076  15.351  12.990  0.00  0.00    -0.579 OA
HETATM   30  O   UNK N   1      35.882  14.207  13.108  0.00  0.00    -0.579 OA
HETATM   31  O   UNK N   1      35.575  17.566  10.596  0.00  0.00    -0.274 OA
HETATM   32  O   UNK N   1      34.935  16.386   9.637  0.00  0.00    -0.579 OA
HETATM   33  O   UNK N   1      35.130  17.530   9.519  0.00  0.00    -0.579 OA
HETATM   34  O   UNK N   1      34.479  17.646   7.856  0.00  0.00    -0.274 OA
HETATM   35  O   UNK N   1      35.159  18.114   9.285  0.00  0.00    -0.579 OA
HETATM   36  O   UNK N   1      34.870  18.654   8.292  0.00  0.00    -0.579 OA
HETATM   37  O   UNK N   1      34.183  13.035   9.537  0.00  0.00    -0.261 OA
HETATM   38  O   UNK N   1      33.319  14.966   6.399  0.00  0.00    -0.261 OA
HETATM   39  O   UNK N   1      34.040  14.329   8.509  0.00  0.00    -0.258 OA
HETATM   40  O   UNK N   1      34.612  14.611   9.769  0.00  0.00    -0.348 OA
HETATM   41  O   UNK N   1      34.018  15.329   7.931  0.00  0.00    -0.341 OA
HETATM   42  O   UNK N   1      34.701  15.954   9.287  0.00  0.00    -0.318 OA
HETATM   43  O   UNK N   1      35.202  13.738  11.679  0.00  0.00    -0.253 OA
HETATM   44  O   UNK N   1      34.138  17.324   7.183  0.00  0.00    -0.253 OA
HETATM   45  O   UNK N   1      35.631  15.314  11.911  0.00  0.00    -0.253 OA
HETATM   46  O   UNK N   1      35.380  16.422  10.715  0.00  0.00    -0.251 OA
HETATM   47  O   UNK N   1      34.767  17.104   8.849  0.00  0.00    -0.250 OA
HETATM   48  S   UNK N   1      33.969  12.247   9.421  0.00  0.00     0.240 SA
HETATM   49  S   UNK N   1      32.986  14.814   5.659  0.00  0.00     0.240 SA
HETATM   50  S   UNK N   1      33.751  14.430   7.743  0.00  0.00     0.240 SA
HETATM   51  S   UNK N   1      34.988  12.950  11.563  0.00  0.00     0.240 SA
HETATM   52  S   UNK N   1      33.830  17.342   6.417  0.00  0.00     0.240 SA
HETATM   53  S   UNK N   1      35.756  14.760  12.510  0.00  0.00     0.240 SA
HETATM   54  S   UNK N   1      35.255  16.976  10.117  0.00  0.00     0.241 SA
HETATM   55  S   UNK N   1      34.819  17.880   8.571  0.00  0.00     0.241 SA
HETATM   56  H   UNK N   1      34.177  11.151  10.506  0.00  0.00     0.234 HD
HETATM   57  H   UNK N   1      32.546  15.383   4.279  0.00  0.00     0.234 HD
HETATM   58  H   UNK N   1      34.227  15.847   8.175  0.00  0.00     0.234 HD
HETATM   59  H   UNK N   1      34.780  14.045  10.479  0.00  0.00     0.234 HD
HETATM   60  H   UNK N   1      33.273  16.073   5.708  0.00  0.00     0.234 HD
HETATM   61  H   UNK N   1      35.121  14.387  11.140  0.00  0.00     0.234 HD
HETATM   62  H   UNK N   1      35.891  17.350  11.487  0.00  0.00     0.234 HD
HETATM   63  H   UNK N   1      34.332  18.296   7.153  0.00  0.00     0.234 HD
ENDROOT
TORSDOF 11
ENDMDL
MODEL 9
REMARK VINA RESULT:     -16.3      3.031      4.477
REMARK  11 active torsions:
REMARK  status: ('A' for Active; 'I' for Inactive)
REMARK    1  A    between atoms: O_40  and  C_11 
REMARK    2  A    between atoms: O_41  and  C_12 
REMARK    3  A    between atoms: C_12  and  O_42 
REMARK    4  A    between atoms: S_48  and  O_37 
REMARK    5  A    between atoms: S_49  and  O_38 
REMARK    6  A    between atoms: S_50  and  O_39 
REMARK    7  A    between atoms: S_51  and  O_43 
REMARK    8  A    between atoms: S_52  and  O_44 
REMARK    9  A    between atoms: S_53  and  O_45 
REMARK   10  A    between atoms: S_54  and  O_46 
REMARK   11  A    between atoms: S_55  and  O_47 
ROOT
HETATM    1  C   UNK N   1      20.071  14.977   4.946  0.00  0.00     0.226 A 
HETATM    2  C   UNK N   1      20.287  17.667   1.330  0.00  0.00     0.226 A 
HETATM    3  C   UNK N   1      20.365  16.747   3.731  0.00  0.00     0.263 A 
HETATM    4  C   UNK N   1      20.295  15.741   5.166  0.00  0.00     0.183 A 
HETATM    5  C   UNK N   1      20.416  17.759   2.140  0.00  0.00     0.183 A 
HETATM    6  C   UNK N   1      20.442  15.915   5.958  0.00  0.00     0.208 A 
HETATM    7  C   UNK N   1      20.643  18.456   2.517  0.00  0.00     0.211 A 
HETATM    8  C   UNK N   1      20.666  16.679   6.178  0.00  0.00     0.212 A 
HETATM    9  C   UNK N   1      20.742  17.267   5.603  0.00  0.00     0.232 A 
HETATM   10  C   UNK N   1      20.708  18.299   3.325  0.00  0.00     0.241 A 
HETATM   11  C   UNK N   1      20.594  17.092   4.812  0.00  0.00     0.297 A 
HETATM   12  C   UNK N   1      20.521  17.505   3.445  0.00  0.00     0.221 A 
HETATM   13  O   UNK N   1      19.741  13.800   4.724  0.00  0.00    -0.274 OA
HETATM   14  O   UNK N   1      19.657  14.277   3.147  0.00  0.00    -0.579 OA
HETATM   15  O   UNK N   1      19.476  13.275   3.716  0.00  0.00    -0.579 OA
HETATM   16  O   UNK N   1      19.802  16.748  -0.589  0.00  0.00    -0.274 OA
HETATM   17  O   UNK N   1      19.744  16.046   0.340  0.00  0.00    -0.579 OA
HETATM   18  O   UNK N   1      20.118  17.635   0.099  0.00  0.00    -0.579 OA
HETATM   19  O   UNK N   1      20.266  17.098   2.283  0.00  0.00    -0.274 OA
HETATM   20  O   UNK N   1      19.861  15.520   2.268  0.00  0.00    -0.579 OA
HETATM   21  O   UNK N   1      20.014  16.462   1.596  0.00  0.00    -0.579 OA
HETATM   22  O   UNK N   1      20.102  14.803   5.524  0.00  0.00    -0.274 OA
HETATM   23  O   UNK N   1      20.185  14.325   7.101  0.00  0.00    -0.579 OA
HETATM   24  O   UNK N   1      19.920  13.800   6.094  0.00  0.00    -0.579 OA
HETATM   25  O   UNK N   1      20.484  18.462   1.285  0.00  0.00    -0.274 OA
HETATM   26  O   UNK N   1      20.904  20.054   1.386  0.00  0.00    -0.579 OA
HETATM   27  O   UNK N   1      20.606  19.332   0.518  0.00  0.00    -0.579 OA
HETATM   28  O   UNK N   1      20.524  15.724   6.960  0.00  0.00    -0.274 OA
HETATM   29  O   UNK N   1      20.953  16.807   8.127  0.00  0.00    -0.579 OA
HETATM   30  O   UNK N   1      20.663  15.678   8.116  0.00  0.00    -0.579 OA
HETATM   31  O   UNK N   1      21.255  19.161   5.833  0.00  0.00    -0.274 OA
HETATM   32  O   UNK N   1      20.826  18.077   4.665  0.00  0.00    -0.579 OA
HETATM   33  O   UNK N   1      21.116  19.207   4.676  0.00  0.00    -0.579 OA
HETATM   34  O   UNK N   1      20.948  19.447   2.911  0.00  0.00    -0.274 OA
HETATM   35  O   UNK N   1      21.244  19.797   4.496  0.00  0.00    -0.579 OA
HETATM   36  O   UNK N   1      21.268  20.401   3.499  0.00  0.00    -0.579 OA
HETATM   37  O   UNK N   1      19.923  14.801   4.154  0.00  0.00    -0.261 OA
HETATM   38  O   UNK N   1      20.060  16.933   1.030  0.00  0.00    -0.261 OA
HETATM   39  O   UNK N   1      20.144  16.147   3.211  0.00  0.00    -0.258 OA
HETATM   40  O   UNK N   1      20.370  16.328   4.593  0.00  0.00    -0.348 OA
HETATM   41  O   UNK N   1      20.341  17.172   2.713  0.00  0.00    -0.341 OA
HETATM   42  O   UNK N   1      20.669  17.680   4.238  0.00  0.00    -0.318 OA
HETATM   43  O   UNK N   1      20.367  15.327   6.531  0.00  0.00    -0.253 OA
HETATM   44  O   UNK N   1      20.781  19.183   2.152  0.00  0.00    -0.253 OA
HETATM   45  O   UNK N   1      20.814  16.854   6.969  0.00  0.00    -0.253 OA
HETATM   46  O   UNK N   1      20.965  18.030   5.823  0.00  0.00    -0.251 OA
HETATM   47  O   UNK N   1      20.923  18.841   3.908  0.00  0.00    -0.250 OA
HETATM   48  S   UNK N   1      19.699  14.038   3.935  0.00  0.00     0.240 SA
HETATM   49  S   UNK N   1      19.931  16.840   0.220  0.00  0.00     0.240 SA
HETATM   50  S   UNK N   1      20.079  16.304   2.403  0.00  0.00     0.240 SA
HETATM   51  S   UNK N   1      20.144  14.564   6.312  0.00  0.00     0.240 SA
HETATM   52  S   UNK N   1      20.694  19.258   1.336  0.00  0.00     0.240 SA
HETATM   53  S   UNK N   1      20.739  16.265   7.543  0.00  0.00     0.240 SA
HETATM   54  S   UNK N   1      21.041  18.619   5.249  0.00  0.00     0.241 SA
HETATM   55  S   UNK N   1      21.096  19.621   3.704  0.00  0.00     0.241 SA
HETATM   56  H   UNK N   1      19.538  12.882   4.965  0.00  0.00     0.234 HD
HETATM   57  H   UNK N   1      19.916  17.502  -1.189  0.00  0.00     0.234 HD
HETATM   58  H   UNK N   1      20.507  17.660   3.036  0.00  0.00     0.234 HD
HETATM   59  H   UNK N   1      20.305  15.719   5.284  0.00  0.00     0.234 HD
HETATM   60  H   UNK N   1      20.271  18.069   0.424  0.00  0.00     0.234 HD
HETATM   61  H   UNK N   1      20.475  16.004   6.032  0.00  0.00     0.234 HD
HETATM   62  H   UNK N   1      21.305  18.880   6.760  0.00  0.00     0.234 HD
HETATM   63  H   UNK N   1      21.036  20.138   2.237  0.00  0.00     0.234 HD
ENDROOT
TORSDOF 11
ENDMDL
