MODEL 1
REMARK VINA RESULT:      -6.7      0.000      0.000
REMARK  19 active torsions:
REMARK  status: ('A' for Active; 'I' for Inactive)
REMARK    1  A    between atoms: C_3  and  C_2 
REMARK    2  A    between atoms: C_4  and  C_3 
REMARK    3  A    between atoms: C_5  and  C_4 
REMARK    4  A    between atoms: C_6  and  C_5 
REMARK    5  A    between atoms: C_7  and  C_6 
REMARK    6  A    between atoms: C_11  and  C_7 
REMARK    7  A    between atoms: C_11  and  C_8 
REMARK    8  A    between atoms: C_12  and  C_8 
REMARK    9  A    between atoms: C_13  and  C_9 
REMARK   10  A    between atoms: O_21  and  C_9 
REMARK   11  A    between atoms: C_20  and  C_10 
REMARK   12  A    between atoms: O_22  and  C_10 
REMARK   13  A    between atoms: C_11  and  O_23 
REMARK   14  A    between atoms: C_14  and  O_24 
REMARK   15  A    between atoms: C_15  and  O_25 
REMARK   16  A    between atoms: C_16  and  O_26 
REMARK   17  A    between atoms: C_18  and  O_28 
REMARK   18  A    between atoms: C_19  and  O_31 
REMARK   19  A    between atoms: C_20  and  O_31 
ROOT
HETATM    1  C   UNK N   1      29.413  18.272   8.055  0.00  0.00     0.179 C 
HETATM    2  C   UNK N   1      28.396  18.190   6.890  0.00  0.00     0.180 C 
HETATM    3  C   UNK N   1      29.157  17.900   5.590  0.00  0.00     0.183 C 
HETATM    4  C   UNK N   1      30.034  16.653   5.762  0.00  0.00     0.204 C 
HETATM    5  C   UNK N   1      30.948  16.864   6.987  0.00  0.00     0.295 C 
HETATM    6  O   UNK N   1      29.238  15.519   5.960  0.00  0.00    -0.388 OA
HETATM    7  O   UNK N   1      30.146  17.055   8.146  0.00  0.00    -0.348 OA
HETATM    8  H   UNK N   1      28.698  14.714   5.982  0.00  0.00     0.210 HD
ENDROOT
BRANCH   3   9
HETATM    9  O   UNK N   1      28.263  17.723   4.530  0.00  0.00    -0.390 OA
HETATM   10  H   UNK N   1      28.317  18.113   3.644  0.00  0.00     0.210 HD
ENDBRANCH   3   9
BRANCH   5  11
HETATM   11  O   UNK N   1      31.779  15.723   7.191  0.00  0.00    -0.318 OA
BRANCH  11  12
HETATM   12  C   UNK N   1      33.199  15.939   7.115  0.00  0.00     0.217 C 
HETATM   13  C   UNK N   1      33.422  17.466   6.898  0.00  0.00     0.214 C 
HETATM   14  C   UNK N   1      33.816  17.911   8.281  0.00  0.00     0.181 C 
HETATM   15  C   UNK N   1      34.621  16.699   8.707  0.00  0.00     0.159 C 
HETATM   16  O   UNK N   1      33.803  15.607   8.362  0.00  0.00    -0.343 OA
BRANCH  12  17
HETATM   17  C   UNK N   1      33.935  15.163   5.990  0.00  0.00     0.235 C 
BRANCH  17  18
HETATM   18  O   UNK N   1      33.343  15.390   4.743  0.00  0.00    -0.395 OA
HETATM   19  H   UNK N   1      33.483  14.766   4.013  0.00  0.00     0.209 HD
ENDBRANCH  17  18
ENDBRANCH  12  17
BRANCH  13  20
HETATM   20  O   UNK N   1      34.497  17.711   6.026  0.00  0.00    -0.387 OA
HETATM   21  H   UNK N   1      35.446  17.799   5.849  0.00  0.00     0.210 HD
ENDBRANCH  13  20
BRANCH  14  22
HETATM   22  O   UNK N   1      34.549  19.101   8.266  0.00  0.00    -0.390 OA
HETATM   23  H   UNK N   1      35.464  19.114   8.586  0.00  0.00     0.210 HD
ENDBRANCH  14  22
BRANCH  15  24
HETATM   24  C   UNK N   1      34.967  16.654  10.202  0.00  0.00     0.066 C 
BRANCH  24  25
HETATM   25  C   UNK N   1      35.834  15.455  10.597  0.00  0.00     0.120 C 
BRANCH  25  26
HETATM   26  C   UNK N   1      35.245  14.804  11.841  0.00  0.00     0.032 C 
BRANCH  26  27
HETATM   27  C   UNK N   1      36.314  14.456  12.874  0.00  0.00     0.002 C 
BRANCH  27  28
HETATM   28  C   UNK N   1      36.330  12.962  13.176  0.00  0.00     0.000 C 
BRANCH  28  29
HETATM   29  C   UNK N   1      36.833  12.680  14.585  0.00  0.00     0.000 C 
BRANCH  29  30
HETATM   30  C   UNK N   1      36.235  13.639  15.605  0.00  0.00    -0.000 C 
BRANCH  30  31
HETATM   31  C   UNK N   1      34.979  13.069  16.240  0.00  0.00    -0.005 C 
HETATM   32  C   UNK N   1      35.351  11.976  17.223  0.00  0.00     0.005 C 
ENDBRANCH  30  31
ENDBRANCH  29  30
ENDBRANCH  28  29
ENDBRANCH  27  28
ENDBRANCH  26  27
ENDBRANCH  25  26
BRANCH  25  33
HETATM   33  O   UNK N   1      37.141  15.862  10.862  0.00  0.00    -0.395 OA
HETATM   34  H   UNK N   1      37.562  16.650  10.483  0.00  0.00     0.210 HD
ENDBRANCH  25  33
ENDBRANCH  24  25
ENDBRANCH  15  24
ENDBRANCH  11  12
ENDBRANCH   5  11
BRANCH   2  35
HETATM   35  O   UNK N   1      27.689  19.388   6.758  0.00  0.00    -0.390 OA
HETATM   36  H   UNK N   1      28.090  20.221   6.465  0.00  0.00     0.210 HD
ENDBRANCH   2  35
BRANCH   1  37
HETATM   37  C   UNK N   1      28.707  18.499   9.391  0.00  0.00     0.198 C 
BRANCH  37  38
HETATM   38  O   UNK N   1      27.370  18.098   9.328  0.00  0.00    -0.398 OA
HETATM   39  H   UNK N   1      26.820  17.841  10.085  0.00  0.00     0.209 HD
ENDBRANCH  37  38
ENDBRANCH   1  37
TORSDOF 19
ENDMDL
MODEL 2
REMARK VINA RESULT:      -6.5      8.633     12.757
REMARK  19 active torsions:
REMARK  status: ('A' for Active; 'I' for Inactive)
REMARK    1  A    between atoms: C_3  and  C_2 
REMARK    2  A    between atoms: C_4  and  C_3 
REMARK    3  A    between atoms: C_5  and  C_4 
REMARK    4  A    between atoms: C_6  and  C_5 
REMARK    5  A    between atoms: C_7  and  C_6 
REMARK    6  A    between atoms: C_11  and  C_7 
REMARK    7  A    between atoms: C_11  and  C_8 
REMARK    8  A    between atoms: C_12  and  C_8 
REMARK    9  A    between atoms: C_13  and  C_9 
REMARK   10  A    between atoms: O_21  and  C_9 
REMARK   11  A    between atoms: C_20  and  C_10 
REMARK   12  A    between atoms: O_22  and  C_10 
REMARK   13  A    between atoms: C_11  and  O_23 
REMARK   14  A    between atoms: C_14  and  O_24 
REMARK   15  A    between atoms: C_15  and  O_25 
REMARK   16  A    between atoms: C_16  and  O_26 
REMARK   17  A    between atoms: C_18  and  O_28 
REMARK   18  A    between atoms: C_19  and  O_31 
REMARK   19  A    between atoms: C_20  and  O_31 
ROOT
HETATM    1  C   UNK N   1      20.945  14.137   5.087  0.00  0.00     0.179 C 
HETATM    2  C   UNK N   1      20.300  14.036   6.490  0.00  0.00     0.180 C 
HETATM    3  C   UNK N   1      20.171  15.448   7.078  0.00  0.00     0.183 C 
HETATM    4  C   UNK N   1      19.424  16.358   6.095  0.00  0.00     0.204 C 
HETATM    5  C   UNK N   1      20.152  16.311   4.735  0.00  0.00     0.295 C 
HETATM    6  O   UNK N   1      18.103  15.926   5.935  0.00  0.00    -0.388 OA
HETATM    7  O   UNK N   1      20.155  14.974   4.249  0.00  0.00    -0.348 OA
HETATM    8  H   UNK N   1      17.158  15.706   5.906  0.00  0.00     0.210 HD
ENDROOT
BRANCH   3   9
HETATM    9  O   UNK N   1      19.505  15.407   8.305  0.00  0.00    -0.390 OA
HETATM   10  H   UNK N   1      18.971  14.680   8.661  0.00  0.00     0.210 HD
ENDBRANCH   3   9
BRANCH   5  11
HETATM   11  O   UNK N   1      19.485  17.140   3.785  0.00  0.00    -0.318 OA
BRANCH  11  12
HETATM   12  C   UNK N   1      20.312  17.782   2.799  0.00  0.00     0.217 C 
HETATM   13  C   UNK N   1      19.881  19.279   2.741  0.00  0.00     0.214 C 
HETATM   14  C   UNK N   1      20.980  19.938   3.533  0.00  0.00     0.181 C 
HETATM   15  C   UNK N   1      22.149  19.079   3.091  0.00  0.00     0.159 C 
HETATM   16  O   UNK N   1      21.673  17.761   3.224  0.00  0.00    -0.343 OA
BRANCH  12  17
HETATM   17  C   UNK N   1      20.235  17.186   1.368  0.00  0.00     0.235 C 
BRANCH  17  18
HETATM   18  O   UNK N   1      18.926  17.215   0.873  0.00  0.00    -0.395 OA
HETATM   19  H   UNK N   1      18.320  17.926   1.132  0.00  0.00     0.209 HD
ENDBRANCH  17  18
ENDBRANCH  12  17
BRANCH  13  20
HETATM   20  O   UNK N   1      19.919  19.775   1.426  0.00  0.00    -0.387 OA
HETATM   21  H   UNK N   1      19.692  20.443   0.761  0.00  0.00     0.210 HD
ENDBRANCH  13  20
BRANCH  14  22
HETATM   22  O   UNK N   1      21.122  21.292   3.216  0.00  0.00    -0.390 OA
HETATM   23  H   UNK N   1      21.505  21.557   2.366  0.00  0.00     0.210 HD
ENDBRANCH  14  22
BRANCH  15  24
HETATM   24  C   UNK N   1      23.430  19.267   3.916  0.00  0.00     0.066 C 
BRANCH  24  25
HETATM   25  C   UNK N   1      24.581  19.896   3.127  0.00  0.00     0.120 C 
BRANCH  25  26
HETATM   26  C   UNK N   1      25.646  20.380   4.103  0.00  0.00     0.032 C 
BRANCH  26  27
HETATM   27  C   UNK N   1      27.002  19.725   3.852  0.00  0.00     0.002 C 
BRANCH  27  28
HETATM   28  C   UNK N   1      28.034  20.170   4.882  0.00  0.00     0.000 C 
BRANCH  28  29
HETATM   29  C   UNK N   1      27.512  20.014   6.304  0.00  0.00     0.000 C 
BRANCH  29  30
HETATM   30  C   UNK N   1      27.838  18.643   6.881  0.00  0.00    -0.000 C 
BRANCH  30  31
HETATM   31  C   UNK N   1      28.749  18.748   8.091  0.00  0.00    -0.005 C 
HETATM   32  C   UNK N   1      28.209  17.889   9.217  0.00  0.00     0.005 C 
ENDBRANCH  30  31
ENDBRANCH  29  30
ENDBRANCH  28  29
ENDBRANCH  27  28
ENDBRANCH  26  27
ENDBRANCH  25  26
BRANCH  25  33
HETATM   33  O   UNK N   1      24.124  20.975   2.369  0.00  0.00    -0.395 OA
HETATM   34  H   UNK N   1      23.522  21.663   2.695  0.00  0.00     0.210 HD
ENDBRANCH  25  33
ENDBRANCH  24  25
ENDBRANCH  15  24
ENDBRANCH  11  12
ENDBRANCH   5  11
BRANCH   2  35
HETATM   35  O   UNK N   1      21.078  13.247   7.343  0.00  0.00    -0.390 OA
HETATM   36  H   UNK N   1      20.965  12.289   7.442  0.00  0.00     0.210 HD
ENDBRANCH   2  35
BRANCH   1  37
HETATM   37  C   UNK N   1      21.044  12.764   4.423  0.00  0.00     0.198 C 
BRANCH  37  38
HETATM   38  O   UNK N   1      20.140  11.864   4.992  0.00  0.00    -0.398 OA
HETATM   39  H   UNK N   1      19.193  11.807   4.788  0.00  0.00     0.209 HD
ENDBRANCH  37  38
ENDBRANCH   1  37
TORSDOF 19
ENDMDL
MODEL 3
REMARK VINA RESULT:      -6.4      8.971     12.428
REMARK  19 active torsions:
REMARK  status: ('A' for Active; 'I' for Inactive)
REMARK    1  A    between atoms: C_3  and  C_2 
REMARK    2  A    between atoms: C_4  and  C_3 
REMARK    3  A    between atoms: C_5  and  C_4 
REMARK    4  A    between atoms: C_6  and  C_5 
REMARK    5  A    between atoms: C_7  and  C_6 
REMARK    6  A    between atoms: C_11  and  C_7 
REMARK    7  A    between atoms: C_11  and  C_8 
REMARK    8  A    between atoms: C_12  and  C_8 
REMARK    9  A    between atoms: C_13  and  C_9 
REMARK   10  A    between atoms: O_21  and  C_9 
REMARK   11  A    between atoms: C_20  and  C_10 
REMARK   12  A    between atoms: O_22  and  C_10 
REMARK   13  A    between atoms: C_11  and  O_23 
REMARK   14  A    between atoms: C_14  and  O_24 
REMARK   15  A    between atoms: C_15  and  O_25 
REMARK   16  A    between atoms: C_16  and  O_26 
REMARK   17  A    between atoms: C_18  and  O_28 
REMARK   18  A    between atoms: C_19  and  O_31 
REMARK   19  A    between atoms: C_20  and  O_31 
ROOT
HETATM    1  C   UNK N   1      21.164  19.627   2.009  0.00  0.00     0.179 C 
HETATM    2  C   UNK N   1      20.008  18.940   2.776  0.00  0.00     0.180 C 
HETATM    3  C   UNK N   1      20.583  17.788   3.610  0.00  0.00     0.183 C 
HETATM    4  C   UNK N   1      21.722  18.303   4.499  0.00  0.00     0.204 C 
HETATM    5  C   UNK N   1      22.763  19.005   3.603  0.00  0.00     0.295 C 
HETATM    6  O   UNK N   1      21.232  19.209   5.447  0.00  0.00    -0.388 OA
HETATM    7  O   UNK N   1      22.145  20.095   2.930  0.00  0.00    -0.348 OA
HETATM    8  H   UNK N   1      20.888  19.745   6.179  0.00  0.00     0.210 HD
ENDROOT
BRANCH   3   9
HETATM    9  O   UNK N   1      19.582  17.204   4.391  0.00  0.00    -0.390 OA
HETATM   10  H   UNK N   1      18.677  17.525   4.524  0.00  0.00     0.210 HD
ENDBRANCH   3   9
BRANCH   5  11
HETATM   11  O   UNK N   1      23.840  19.508   4.390  0.00  0.00    -0.318 OA
BRANCH  11  12
HETATM   12  C   UNK N   1      25.168  19.262   3.896  0.00  0.00     0.217 C 
HETATM   13  C   UNK N   1      26.073  18.971   5.131  0.00  0.00     0.214 C 
HETATM   14  C   UNK N   1      26.188  17.471   5.071  0.00  0.00     0.181 C 
HETATM   15  C   UNK N   1      26.234  17.290   3.566  0.00  0.00     0.159 C 
HETATM   16  O   UNK N   1      25.173  18.084   3.094  0.00  0.00    -0.343 OA
BRANCH  12  17
HETATM   17  C   UNK N   1      25.802  20.418   3.076  0.00  0.00     0.235 C 
BRANCH  17  18
HETATM   18  O   UNK N   1      24.935  20.869   2.075  0.00  0.00    -0.395 OA
HETATM   19  H   UNK N   1      25.206  20.847   1.144  0.00  0.00     0.209 HD
ENDBRANCH  17  18
ENDBRANCH  12  17
BRANCH  13  20
HETATM   20  O   UNK N   1      27.355  19.524   4.972  0.00  0.00    -0.387 OA
HETATM   21  H   UNK N   1      28.198  19.839   5.334  0.00  0.00     0.210 HD
ENDBRANCH  13  20
BRANCH  14  22
HETATM   22  O   UNK N   1      27.325  17.000   5.733  0.00  0.00    -0.390 OA
HETATM   23  H   UNK N   1      27.250  16.614   6.620  0.00  0.00     0.210 HD
ENDBRANCH  14  22
BRANCH  15  24
HETATM   24  C   UNK N   1      26.066  15.840   3.091  0.00  0.00     0.066 C 
BRANCH  24  25
HETATM   25  C   UNK N   1      24.886  15.113   3.741  0.00  0.00     0.120 C 
BRANCH  25  26
HETATM   26  C   UNK N   1      24.954  13.634   3.384  0.00  0.00     0.032 C 
BRANCH  26  27
HETATM   27  C   UNK N   1      25.584  13.398   2.013  0.00  0.00     0.002 C 
BRANCH  27  28
HETATM   28  C   UNK N   1      24.615  12.694   1.070  0.00  0.00     0.000 C 
BRANCH  28  29
HETATM   29  C   UNK N   1      23.693  13.684   0.371  0.00  0.00     0.000 C 
BRANCH  29  30
HETATM   30  C   UNK N   1      22.235  13.250   0.442  0.00  0.00    -0.000 C 
BRANCH  30  31
HETATM   31  C   UNK N   1      21.342  14.369   0.946  0.00  0.00    -0.005 C 
HETATM   32  C   UNK N   1      20.811  14.023   2.322  0.00  0.00     0.005 C 
ENDBRANCH  30  31
ENDBRANCH  29  30
ENDBRANCH  28  29
ENDBRANCH  27  28
ENDBRANCH  26  27
ENDBRANCH  25  26
BRANCH  25  33
HETATM   33  O   UNK N   1      23.676  15.643   3.290  0.00  0.00    -0.395 OA
HETATM   34  H   UNK N   1      22.836  15.593   3.774  0.00  0.00     0.210 HD
ENDBRANCH  25  33
ENDBRANCH  24  25
ENDBRANCH  15  24
ENDBRANCH  11  12
ENDBRANCH   5  11
BRANCH   2  35
HETATM   35  O   UNK N   1      19.048  18.439   1.891  0.00  0.00    -0.390 OA
HETATM   36  H   UNK N   1      18.971  18.720   0.966  0.00  0.00     0.210 HD
ENDBRANCH   2  35
BRANCH   1  37
HETATM   37  C   UNK N   1      20.661  20.825   1.205  0.00  0.00     0.198 C 
BRANCH  37  38
HETATM   38  O   UNK N   1      20.526  20.502  -0.148  0.00  0.00    -0.398 OA
HETATM   39  H   UNK N   1      21.247  20.466  -0.796  0.00  0.00     0.209 HD
ENDBRANCH  37  38
ENDBRANCH   1  37
TORSDOF 19
ENDMDL
MODEL 4
REMARK VINA RESULT:      -6.4     10.131     13.456
REMARK  19 active torsions:
REMARK  status: ('A' for Active; 'I' for Inactive)
REMARK    1  A    between atoms: C_3  and  C_2 
REMARK    2  A    between atoms: C_4  and  C_3 
REMARK    3  A    between atoms: C_5  and  C_4 
REMARK    4  A    between atoms: C_6  and  C_5 
REMARK    5  A    between atoms: C_7  and  C_6 
REMARK    6  A    between atoms: C_11  and  C_7 
REMARK    7  A    between atoms: C_11  and  C_8 
REMARK    8  A    between atoms: C_12  and  C_8 
REMARK    9  A    between atoms: C_13  and  C_9 
REMARK   10  A    between atoms: O_21  and  C_9 
REMARK   11  A    between atoms: C_20  and  C_10 
REMARK   12  A    between atoms: O_22  and  C_10 
REMARK   13  A    between atoms: C_11  and  O_23 
REMARK   14  A    between atoms: C_14  and  O_24 
REMARK   15  A    between atoms: C_15  and  O_25 
REMARK   16  A    between atoms: C_16  and  O_26 
REMARK   17  A    between atoms: C_18  and  O_28 
REMARK   18  A    between atoms: C_19  and  O_31 
REMARK   19  A    between atoms: C_20  and  O_31 
ROOT
HETATM    1  C   UNK N   1      19.935  13.655   3.991  0.00  0.00     0.179 C 
HETATM    2  C   UNK N   1      19.650  13.407   5.492  0.00  0.00     0.180 C 
HETATM    3  C   UNK N   1      20.216  14.580   6.304  0.00  0.00     0.183 C 
HETATM    4  C   UNK N   1      19.670  15.906   5.761  0.00  0.00     0.204 C 
HETATM    5  C   UNK N   1      19.983  15.982   4.252  0.00  0.00     0.295 C 
HETATM    6  O   UNK N   1      18.287  15.982   5.958  0.00  0.00    -0.388 OA
HETATM    7  O   UNK N   1      19.356  14.892   3.586  0.00  0.00    -0.348 OA
HETATM    8  H   UNK N   1      17.352  16.096   6.193  0.00  0.00     0.210 HD
ENDROOT
BRANCH   3   9
HETATM    9  O   UNK N   1      19.894  14.438   7.657  0.00  0.00    -0.390 OA
HETATM   10  H   UNK N   1      20.361  14.820   8.416  0.00  0.00     0.210 HD
ENDBRANCH   3   9
BRANCH   5  11
HETATM   11  O   UNK N   1      19.484  17.199   3.701  0.00  0.00    -0.318 OA
BRANCH  11  12
HETATM   12  C   UNK N   1      20.317  17.854   2.729  0.00  0.00     0.217 C 
HETATM   13  C   UNK N   1      19.904  19.357   2.706  0.00  0.00     0.214 C 
HETATM   14  C   UNK N   1      21.011  19.984   3.510  0.00  0.00     0.181 C 
HETATM   15  C   UNK N   1      22.169  19.122   3.047  0.00  0.00     0.159 C 
HETATM   16  O   UNK N   1      21.678  17.807   3.151  0.00  0.00    -0.343 OA
BRANCH  12  17
HETATM   17  C   UNK N   1      20.230  17.292   1.285  0.00  0.00     0.235 C 
BRANCH  17  18
HETATM   18  O   UNK N   1      18.906  17.239   0.836  0.00  0.00    -0.395 OA
HETATM   19  H   UNK N   1      18.172  17.373   1.456  0.00  0.00     0.209 HD
ENDBRANCH  17  18
ENDBRANCH  12  17
BRANCH  13  20
HETATM   20  O   UNK N   1      19.946  19.883   1.403  0.00  0.00    -0.387 OA
HETATM   21  H   UNK N   1      20.409  20.337   0.682  0.00  0.00     0.210 HD
ENDBRANCH  13  20
BRANCH  14  22
HETATM   22  O   UNK N   1      21.169  21.344   3.225  0.00  0.00    -0.390 OA
HETATM   23  H   UNK N   1      22.056  21.718   3.108  0.00  0.00     0.210 HD
ENDBRANCH  14  22
BRANCH  15  24
HETATM   24  C   UNK N   1      23.454  19.277   3.874  0.00  0.00     0.066 C 
BRANCH  24  25
HETATM   25  C   UNK N   1      24.601  19.941   3.108  0.00  0.00     0.120 C 
BRANCH  25  26
HETATM   26  C   UNK N   1      25.654  20.413   4.102  0.00  0.00     0.032 C 
BRANCH  26  27
HETATM   27  C   UNK N   1      26.926  19.572   4.041  0.00  0.00     0.002 C 
BRANCH  27  28
HETATM   28  C   UNK N   1      27.001  18.591   5.206  0.00  0.00     0.000 C 
BRANCH  28  29
HETATM   29  C   UNK N   1      26.546  17.197   4.795  0.00  0.00     0.000 C 
BRANCH  29  30
HETATM   30  C   UNK N   1      26.934  16.872   3.359  0.00  0.00    -0.000 C 
BRANCH  30  31
HETATM   31  C   UNK N   1      25.875  16.030   2.670  0.00  0.00    -0.005 C 
HETATM   32  C   UNK N   1      24.683  15.850   3.589  0.00  0.00     0.005 C 
ENDBRANCH  30  31
ENDBRANCH  29  30
ENDBRANCH  28  29
ENDBRANCH  27  28
ENDBRANCH  26  27
ENDBRANCH  25  26
BRANCH  25  33
HETATM   33  O   UNK N   1      24.133  21.032   2.375  0.00  0.00    -0.395 OA
HETATM   34  H   UNK N   1      24.053  21.054   1.408  0.00  0.00     0.210 HD
ENDBRANCH  25  33
ENDBRANCH  24  25
ENDBRANCH  15  24
ENDBRANCH  11  12
ENDBRANCH   5  11
BRANCH   2  35
HETATM   35  O   UNK N   1      20.240  12.215   5.924  0.00  0.00    -0.390 OA
HETATM   36  H   UNK N   1      21.033  12.178   6.480  0.00  0.00     0.210 HD
ENDBRANCH   2  35
BRANCH   1  37
HETATM   37  C   UNK N   1      19.339  12.549   3.124  0.00  0.00     0.198 C 
BRANCH  37  38
HETATM   38  O   UNK N   1      18.421  13.067   2.207  0.00  0.00    -0.398 OA
HETATM   39  H   UNK N   1      17.494  12.794   2.118  0.00  0.00     0.209 HD
ENDBRANCH  37  38
ENDBRANCH   1  37
TORSDOF 19
ENDMDL
MODEL 5
REMARK VINA RESULT:      -6.3      2.478      9.449
REMARK  19 active torsions:
REMARK  status: ('A' for Active; 'I' for Inactive)
REMARK    1  A    between atoms: C_3  and  C_2 
REMARK    2  A    between atoms: C_4  and  C_3 
REMARK    3  A    between atoms: C_5  and  C_4 
REMARK    4  A    between atoms: C_6  and  C_5 
REMARK    5  A    between atoms: C_7  and  C_6 
REMARK    6  A    between atoms: C_11  and  C_7 
REMARK    7  A    between atoms: C_11  and  C_8 
REMARK    8  A    between atoms: C_12  and  C_8 
REMARK    9  A    between atoms: C_13  and  C_9 
REMARK   10  A    between atoms: O_21  and  C_9 
REMARK   11  A    between atoms: C_20  and  C_10 
REMARK   12  A    between atoms: O_22  and  C_10 
REMARK   13  A    between atoms: C_11  and  O_23 
REMARK   14  A    between atoms: C_14  and  O_24 
REMARK   15  A    between atoms: C_15  and  O_25 
REMARK   16  A    between atoms: C_16  and  O_26 
REMARK   17  A    between atoms: C_18  and  O_28 
REMARK   18  A    between atoms: C_19  and  O_31 
REMARK   19  A    between atoms: C_20  and  O_31 
ROOT
HETATM    1  C   UNK N   1      36.759  13.462   9.674  0.00  0.00     0.179 C 
HETATM    2  C   UNK N   1      36.954  13.368  11.207  0.00  0.00     0.180 C 
HETATM    3  C   UNK N   1      36.540  14.702  11.841  0.00  0.00     0.183 C 
HETATM    4  C   UNK N   1      35.118  15.073  11.400  0.00  0.00     0.204 C 
HETATM    5  C   UNK N   1      35.069  15.073   9.858  0.00  0.00     0.295 C 
HETATM    6  O   UNK N   1      34.194  14.148  11.900  0.00  0.00    -0.388 OA
HETATM    7  O   UNK N   1      35.402  13.775   9.377  0.00  0.00    -0.348 OA
HETATM    8  H   UNK N   1      33.536  13.583  12.334  0.00  0.00     0.210 HD
ENDROOT
BRANCH   3   9
HETATM    9  O   UNK N   1      36.612  14.624  13.234  0.00  0.00    -0.390 OA
HETATM   10  H   UNK N   1      37.157  15.165  13.827  0.00  0.00     0.210 HD
ENDBRANCH   3   9
BRANCH   5  11
HETATM   11  O   UNK N   1      33.759  15.405   9.401  0.00  0.00    -0.318 OA
BRANCH  11  12
HETATM   12  C   UNK N   1      33.654  16.536   8.519  0.00  0.00     0.217 C 
HETATM   13  C   UNK N   1      33.794  15.999   7.063  0.00  0.00     0.214 C 
HETATM   14  C   UNK N   1      32.359  15.996   6.606  0.00  0.00     0.181 C 
HETATM   15  C   UNK N   1      31.876  17.250   7.307  0.00  0.00     0.159 C 
HETATM   16  O   UNK N   1      32.353  17.109   8.624  0.00  0.00    -0.343 OA
BRANCH  12  17
HETATM   17  C   UNK N   1      34.705  17.657   8.739  0.00  0.00     0.235 C 
BRANCH  17  18
HETATM   18  O   UNK N   1      34.271  18.876   8.205  0.00  0.00    -0.395 OA
HETATM   19  H   UNK N   1      33.783  18.898   7.367  0.00  0.00     0.209 HD
ENDBRANCH  17  18
ENDBRANCH  12  17
BRANCH  13  20
HETATM   20  O   UNK N   1      34.519  16.889   6.252  0.00  0.00    -0.387 OA
HETATM   21  H   UNK N   1      35.250  17.087   5.647  0.00  0.00     0.210 HD
ENDBRANCH  13  20
BRANCH  14  22
HETATM   22  O   UNK N   1      32.247  16.048   5.213  0.00  0.00    -0.390 OA
HETATM   23  H   UNK N   1      32.333  15.239   4.686  0.00  0.00     0.210 HD
ENDBRANCH  14  22
BRANCH  15  24
HETATM   24  C   UNK N   1      30.352  17.436   7.310  0.00  0.00     0.066 C 
BRANCH  24  25
HETATM   25  C   UNK N   1      29.794  17.910   8.654  0.00  0.00     0.120 C 
BRANCH  25  26
HETATM   26  C   UNK N   1      28.334  18.306   8.474  0.00  0.00     0.032 C 
BRANCH  26  27
HETATM   27  C   UNK N   1      28.064  18.913   7.099  0.00  0.00     0.002 C 
BRANCH  27  28
HETATM   28  C   UNK N   1      27.443  20.300   7.216  0.00  0.00     0.000 C 
BRANCH  28  29
HETATM   29  C   UNK N   1      27.043  20.851   5.854  0.00  0.00     0.000 C 
BRANCH  29  30
HETATM   30  C   UNK N   1      27.644  20.041   4.713  0.00  0.00    -0.000 C 
BRANCH  30  31
HETATM   31  C   UNK N   1      26.797  20.130   3.457  0.00  0.00    -0.005 C 
HETATM   32  C   UNK N   1      25.334  20.264   3.831  0.00  0.00     0.005 C 
ENDBRANCH  30  31
ENDBRANCH  29  30
ENDBRANCH  28  29
ENDBRANCH  27  28
ENDBRANCH  26  27
ENDBRANCH  25  26
BRANCH  25  33
HETATM   33  O   UNK N   1      30.517  19.007   9.125  0.00  0.00    -0.395 OA
HETATM   34  H   UNK N   1      30.999  19.634   8.563  0.00  0.00     0.210 HD
ENDBRANCH  25  33
ENDBRANCH  24  25
ENDBRANCH  15  24
ENDBRANCH  11  12
ENDBRANCH   5  11
BRANCH   2  35
HETATM   35  O   UNK N   1      38.288  13.097  11.526  0.00  0.00    -0.390 OA
HETATM   36  H   UNK N   1      39.043  13.511  11.080  0.00  0.00     0.210 HD
ENDBRANCH   2  35
BRANCH   1  37
HETATM   37  C   UNK N   1      37.098  12.139   8.991  0.00  0.00     0.198 C 
BRANCH  37  38
HETATM   38  O   UNK N   1      36.981  11.068   9.881  0.00  0.00    -0.398 OA
HETATM   39  H   UNK N   1      37.687  10.444  10.112  0.00  0.00     0.209 HD
ENDBRANCH  37  38
ENDBRANCH   1  37
TORSDOF 19
ENDMDL
MODEL 6
REMARK VINA RESULT:      -6.3      8.634     12.366
REMARK  19 active torsions:
REMARK  status: ('A' for Active; 'I' for Inactive)
REMARK    1  A    between atoms: C_3  and  C_2 
REMARK    2  A    between atoms: C_4  and  C_3 
REMARK    3  A    between atoms: C_5  and  C_4 
REMARK    4  A    between atoms: C_6  and  C_5 
REMARK    5  A    between atoms: C_7  and  C_6 
REMARK    6  A    between atoms: C_11  and  C_7 
REMARK    7  A    between atoms: C_11  and  C_8 
REMARK    8  A    between atoms: C_12  and  C_8 
REMARK    9  A    between atoms: C_13  and  C_9 
REMARK   10  A    between atoms: O_21  and  C_9 
REMARK   11  A    between atoms: C_20  and  C_10 
REMARK   12  A    between atoms: O_22  and  C_10 
REMARK   13  A    between atoms: C_11  and  O_23 
REMARK   14  A    between atoms: C_14  and  O_24 
REMARK   15  A    between atoms: C_15  and  O_25 
REMARK   16  A    between atoms: C_16  and  O_26 
REMARK   17  A    between atoms: C_18  and  O_28 
REMARK   18  A    between atoms: C_19  and  O_31 
REMARK   19  A    between atoms: C_20  and  O_31 
ROOT
HETATM    1  C   UNK N   1      20.211  17.805   2.605  0.00  0.00     0.179 C 
HETATM    2  C   UNK N   1      19.892  16.982   1.333  0.00  0.00     0.180 C 
HETATM    3  C   UNK N   1      20.688  15.671   1.380  0.00  0.00     0.183 C 
HETATM    4  C   UNK N   1      20.416  14.938   2.700  0.00  0.00     0.204 C 
HETATM    5  C   UNK N   1      20.727  15.900   3.866  0.00  0.00     0.295 C 
HETATM    6  O   UNK N   1      19.077  14.535   2.768  0.00  0.00    -0.388 OA
HETATM    7  O   UNK N   1      19.889  17.046   3.767  0.00  0.00    -0.348 OA
HETATM    8  H   UNK N   1      18.186  14.151   2.776  0.00  0.00     0.210 HD
ENDROOT
BRANCH   3   9
HETATM    9  O   UNK N   1      20.353  14.857   0.294  0.00  0.00    -0.390 OA
HETATM   10  H   UNK N   1      20.736  13.997   0.064  0.00  0.00     0.210 HD
ENDBRANCH   3   9
BRANCH   5  11
HETATM   11  O   UNK N   1      20.479  15.262   5.117  0.00  0.00    -0.318 OA
BRANCH  11  12
HETATM   12  C   UNK N   1      21.456  15.473   6.151  0.00  0.00     0.217 C 
HETATM   13  C   UNK N   1      22.187  14.116   6.379  0.00  0.00     0.214 C 
HETATM   14  C   UNK N   1      23.481  14.345   5.643  0.00  0.00     0.181 C 
HETATM   15  C   UNK N   1      23.690  15.811   5.968  0.00  0.00     0.159 C 
HETATM   16  O   UNK N   1      22.440  16.401   5.702  0.00  0.00    -0.343 OA
BRANCH  12  17
HETATM   17  C   UNK N   1      20.895  15.971   7.510  0.00  0.00     0.235 C 
BRANCH  17  18
HETATM   18  O   UNK N   1      19.838  15.168   7.951  0.00  0.00    -0.395 OA
HETATM   19  H   UNK N   1      19.404  14.550   7.342  0.00  0.00     0.209 HD
ENDBRANCH  17  18
ENDBRANCH  12  17
BRANCH  13  20
HETATM   20  O   UNK N   1      22.477  13.909   7.739  0.00  0.00    -0.387 OA
HETATM   21  H   UNK N   1      23.095  13.900   8.486  0.00  0.00     0.210 HD
ENDBRANCH  13  20
BRANCH  14  22
HETATM   22  O   UNK N   1      24.506  13.512   6.102  0.00  0.00    -0.390 OA
HETATM   23  H   UNK N   1      24.312  12.600   6.367  0.00  0.00     0.210 HD
ENDBRANCH  14  22
BRANCH  15  24
HETATM   24  C   UNK N   1      24.789  16.499   5.145  0.00  0.00     0.066 C 
BRANCH  24  25
HETATM   25  C   UNK N   1      24.343  17.816   4.504  0.00  0.00     0.120 C 
BRANCH  25  26
HETATM   26  C   UNK N   1      25.447  18.317   3.582  0.00  0.00     0.032 C 
BRANCH  26  27
HETATM   27  C   UNK N   1      25.372  19.825   3.356  0.00  0.00     0.002 C 
BRANCH  27  28
HETATM   28  C   UNK N   1      26.762  20.446   3.283  0.00  0.00     0.000 C 
BRANCH  28  29
HETATM   29  C   UNK N   1      27.633  20.010   4.453  0.00  0.00     0.000 C 
BRANCH  29  30
HETATM   30  C   UNK N   1      27.310  20.786   5.723  0.00  0.00    -0.000 C 
BRANCH  30  31
HETATM   31  C   UNK N   1      27.542  19.946   6.966  0.00  0.00    -0.005 C 
HETATM   32  C   UNK N   1      27.806  18.507   6.573  0.00  0.00     0.005 C 
ENDBRANCH  30  31
ENDBRANCH  29  30
ENDBRANCH  28  29
ENDBRANCH  27  28
ENDBRANCH  26  27
ENDBRANCH  25  26
BRANCH  25  33
HETATM   33  O   UNK N   1      24.086  18.775   5.483  0.00  0.00    -0.395 OA
HETATM   34  H   UNK N   1      24.543  19.628   5.556  0.00  0.00     0.210 HD
ENDBRANCH  25  33
ENDBRANCH  24  25
ENDBRANCH  15  24
ENDBRANCH  11  12
ENDBRANCH   5  11
BRANCH   2  35
HETATM   35  O   UNK N   1      20.233  17.692   0.179  0.00  0.00    -0.390 OA
HETATM   36  H   UNK N   1      19.592  18.175  -0.365  0.00  0.00     0.210 HD
ENDBRANCH   2  35
BRANCH   1  37
HETATM   37  C   UNK N   1      19.398  19.097   2.647  0.00  0.00     0.198 C 
BRANCH  37  38
HETATM   38  O   UNK N   1      18.078  18.875   2.248  0.00  0.00    -0.398 OA
HETATM   39  H   UNK N   1      17.657  19.238   1.452  0.00  0.00     0.209 HD
ENDBRANCH  37  38
ENDBRANCH   1  37
TORSDOF 19
ENDMDL
MODEL 7
REMARK VINA RESULT:      -6.1      2.592      8.917
REMARK  19 active torsions:
REMARK  status: ('A' for Active; 'I' for Inactive)
REMARK    1  A    between atoms: C_3  and  C_2 
REMARK    2  A    between atoms: C_4  and  C_3 
REMARK    3  A    between atoms: C_5  and  C_4 
REMARK    4  A    between atoms: C_6  and  C_5 
REMARK    5  A    between atoms: C_7  and  C_6 
REMARK    6  A    between atoms: C_11  and  C_7 
REMARK    7  A    between atoms: C_11  and  C_8 
REMARK    8  A    between atoms: C_12  and  C_8 
REMARK    9  A    between atoms: C_13  and  C_9 
REMARK   10  A    between atoms: O_21  and  C_9 
REMARK   11  A    between atoms: C_20  and  C_10 
REMARK   12  A    between atoms: O_22  and  C_10 
REMARK   13  A    between atoms: C_11  and  O_23 
REMARK   14  A    between atoms: C_14  and  O_24 
REMARK   15  A    between atoms: C_15  and  O_25 
REMARK   16  A    between atoms: C_16  and  O_26 
REMARK   17  A    between atoms: C_18  and  O_28 
REMARK   18  A    between atoms: C_19  and  O_31 
REMARK   19  A    between atoms: C_20  and  O_31 
ROOT
HETATM    1  C   UNK N   1      36.420  12.533  11.822  0.00  0.00     0.179 C 
HETATM    2  C   UNK N   1      37.873  12.225  11.385  0.00  0.00     0.180 C 
HETATM    3  C   UNK N   1      38.007  12.501   9.881  0.00  0.00     0.183 C 
HETATM    4  C   UNK N   1      37.532  13.925   9.565  0.00  0.00     0.204 C 
HETATM    5  C   UNK N   1      36.097  14.094  10.106  0.00  0.00     0.295 C 
HETATM    6  O   UNK N   1      38.375  14.866  10.168  0.00  0.00    -0.388 OA
HETATM    7  O   UNK N   1      36.098  13.885  11.514  0.00  0.00    -0.348 OA
HETATM    8  H   UNK N   1      39.015  15.524  10.482  0.00  0.00     0.210 HD
ENDROOT
BRANCH   3   9
HETATM    9  O   UNK N   1      39.330  12.326   9.468  0.00  0.00    -0.390 OA
HETATM   10  H   UNK N   1      39.756  12.703   8.683  0.00  0.00     0.210 HD
ENDBRANCH   3   9
BRANCH   5  11
HETATM   11  O   UNK N   1      35.616  15.410   9.841  0.00  0.00    -0.318 OA
BRANCH  11  12
HETATM   12  C   UNK N   1      34.389  15.509   9.098  0.00  0.00     0.217 C 
HETATM   13  C   UNK N   1      34.060  17.025   8.952  0.00  0.00     0.214 C 
HETATM   14  C   UNK N   1      34.490  17.290   7.534  0.00  0.00     0.181 C 
HETATM   15  C   UNK N   1      34.074  15.975   6.903  0.00  0.00     0.159 C 
HETATM   16  O   UNK N   1      34.581  14.999   7.781  0.00  0.00    -0.343 OA
BRANCH  12  17
HETATM   17  C   UNK N   1      33.165  14.792   9.729  0.00  0.00     0.235 C 
BRANCH  17  18
HETATM   18  O   UNK N   1      33.092  15.024  11.107  0.00  0.00    -0.395 OA
HETATM   19  H   UNK N   1      33.859  15.372  11.587  0.00  0.00     0.209 HD
ENDBRANCH  17  18
ENDBRANCH  12  17
BRANCH  13  20
HETATM   20  O   UNK N   1      32.678  17.264   9.052  0.00  0.00    -0.387 OA
HETATM   21  H   UNK N   1      31.877  17.422   9.574  0.00  0.00     0.210 HD
ENDBRANCH  13  20
BRANCH  14  22
HETATM   22  O   UNK N   1      33.853  18.407   6.987  0.00  0.00    -0.390 OA
HETATM   23  H   UNK N   1      34.356  19.046   6.458  0.00  0.00     0.210 HD
ENDBRANCH  14  22
BRANCH  15  24
HETATM   24  C   UNK N   1      34.614  15.747   5.484  0.00  0.00     0.066 C 
BRANCH  24  25
HETATM   25  C   UNK N   1      34.012  14.525   4.786  0.00  0.00     0.120 C 
BRANCH  25  26
HETATM   26  C   UNK N   1      33.696  14.883   3.341  0.00  0.00     0.032 C 
BRANCH  26  27
HETATM   27  C   UNK N   1      32.296  15.472   3.182  0.00  0.00     0.002 C 
BRANCH  27  28
HETATM   28  C   UNK N   1      32.342  16.991   3.061  0.00  0.00     0.000 C 
BRANCH  28  29
HETATM   29  C   UNK N   1      31.700  17.669   4.263  0.00  0.00     0.000 C 
BRANCH  29  30
HETATM   30  C   UNK N   1      30.719  16.749   4.978  0.00  0.00    -0.000 C 
BRANCH  30  31
HETATM   31  C   UNK N   1      30.498  17.177   6.417  0.00  0.00    -0.005 C 
HETATM   32  C   UNK N   1      29.075  17.671   6.594  0.00  0.00     0.005 C 
ENDBRANCH  30  31
ENDBRANCH  29  30
ENDBRANCH  28  29
ENDBRANCH  27  28
ENDBRANCH  26  27
ENDBRANCH  25  26
BRANCH  25  33
HETATM   33  O   UNK N   1      32.841  14.121   5.430  0.00  0.00    -0.395 OA
HETATM   34  H   UNK N   1      31.949  14.423   5.195  0.00  0.00     0.210 HD
ENDBRANCH  25  33
ENDBRANCH  24  25
ENDBRANCH  15  24
ENDBRANCH  11  12
ENDBRANCH   5  11
BRANCH   2  35
HETATM   35  O   UNK N   1      38.202  10.892  11.644  0.00  0.00    -0.390 OA
HETATM   36  H   UNK N   1      38.067  10.171  11.010  0.00  0.00     0.210 HD
ENDBRANCH   2  35
BRANCH   1  37
HETATM   37  C   UNK N   1      36.241  12.335  13.326  0.00  0.00     0.198 C 
BRANCH  37  38
HETATM   38  O   UNK N   1      37.422  12.621  14.016  0.00  0.00    -0.398 OA
HETATM   39  H   UNK N   1      37.532  13.312  14.688  0.00  0.00     0.209 HD
ENDBRANCH  37  38
ENDBRANCH   1  37
TORSDOF 19
ENDMDL
MODEL 8
REMARK VINA RESULT:      -6.1      9.705     12.552
REMARK  19 active torsions:
REMARK  status: ('A' for Active; 'I' for Inactive)
REMARK    1  A    between atoms: C_3  and  C_2 
REMARK    2  A    between atoms: C_4  and  C_3 
REMARK    3  A    between atoms: C_5  and  C_4 
REMARK    4  A    between atoms: C_6  and  C_5 
REMARK    5  A    between atoms: C_7  and  C_6 
REMARK    6  A    between atoms: C_11  and  C_7 
REMARK    7  A    between atoms: C_11  and  C_8 
REMARK    8  A    between atoms: C_12  and  C_8 
REMARK    9  A    between atoms: C_13  and  C_9 
REMARK   10  A    between atoms: O_21  and  C_9 
REMARK   11  A    between atoms: C_20  and  C_10 
REMARK   12  A    between atoms: O_22  and  C_10 
REMARK   13  A    between atoms: C_11  and  O_23 
REMARK   14  A    between atoms: C_14  and  O_24 
REMARK   15  A    between atoms: C_15  and  O_25 
REMARK   16  A    between atoms: C_16  and  O_26 
REMARK   17  A    between atoms: C_18  and  O_28 
REMARK   18  A    between atoms: C_19  and  O_31 
REMARK   19  A    between atoms: C_20  and  O_31 
ROOT
HETATM    1  C   UNK N   1      20.352  17.842   2.531  0.00  0.00     0.179 C 
HETATM    2  C   UNK N   1      19.896  16.950   1.351  0.00  0.00     0.180 C 
HETATM    3  C   UNK N   1      20.648  15.615   1.420  0.00  0.00     0.183 C 
HETATM    4  C   UNK N   1      20.467  14.982   2.806  0.00  0.00     0.204 C 
HETATM    5  C   UNK N   1      20.912  16.005   3.872  0.00  0.00     0.295 C 
HETATM    6  O   UNK N   1      19.127  14.638   3.016  0.00  0.00    -0.388 OA
HETATM    7  O   UNK N   1      20.108  17.175   3.766  0.00  0.00    -0.348 OA
HETATM    8  H   UNK N   1      18.228  14.291   3.126  0.00  0.00     0.210 HD
ENDROOT
BRANCH   3   9
HETATM    9  O   UNK N   1      20.192  14.746   0.426  0.00  0.00    -0.390 OA
HETATM   10  H   UNK N   1      19.488  14.083   0.501  0.00  0.00     0.210 HD
ENDBRANCH   3   9
BRANCH   5  11
HETATM   11  O   UNK N   1      20.753  15.461   5.181  0.00  0.00    -0.318 OA
BRANCH  11  12
HETATM   12  C   UNK N   1      21.374  16.185   6.258  0.00  0.00     0.217 C 
HETATM   13  C   UNK N   1      20.250  16.982   6.986  0.00  0.00     0.214 C 
HETATM   14  C   UNK N   1      20.020  16.128   8.205  0.00  0.00     0.181 C 
HETATM   15  C   UNK N   1      21.447  15.687   8.468  0.00  0.00     0.159 C 
HETATM   16  O   UNK N   1      21.912  15.268   7.207  0.00  0.00    -0.343 OA
BRANCH  12  17
HETATM   17  C   UNK N   1      22.495  17.174   5.840  0.00  0.00     0.235 C 
BRANCH  17  18
HETATM   18  O   UNK N   1      23.763  16.605   5.999  0.00  0.00    -0.395 OA
HETATM   19  H   UNK N   1      24.218  16.649   6.854  0.00  0.00     0.209 HD
ENDBRANCH  17  18
ENDBRANCH  12  17
BRANCH  13  20
HETATM   20  O   UNK N   1      20.703  18.245   7.405  0.00  0.00    -0.387 OA
HETATM   21  H   UNK N   1      21.129  19.098   7.230  0.00  0.00     0.210 HD
ENDBRANCH  13  20
BRANCH  14  22
HETATM   22  O   UNK N   1      19.448  16.849   9.257  0.00  0.00    -0.390 OA
HETATM   23  H   UNK N   1      19.842  17.687   9.545  0.00  0.00     0.210 HD
ENDBRANCH  14  22
BRANCH  15  24
HETATM   24  C   UNK N   1      21.588  14.551   9.491  0.00  0.00     0.066 C 
BRANCH  24  25
HETATM   25  C   UNK N   1      20.643  13.374   9.237  0.00  0.00     0.120 C 
BRANCH  25  26
HETATM   26  C   UNK N   1      20.758  12.386  10.390  0.00  0.00     0.032 C 
BRANCH  26  27
HETATM   27  C   UNK N   1      21.986  12.649  11.258  0.00  0.00     0.002 C 
BRANCH  27  28
HETATM   28  C   UNK N   1      23.051  11.578  11.054  0.00  0.00     0.000 C 
BRANCH  28  29
HETATM   29  C   UNK N   1      24.334  12.165  10.479  0.00  0.00     0.000 C 
BRANCH  29  30
HETATM   30  C   UNK N   1      24.367  12.078   8.960  0.00  0.00    -0.000 C 
BRANCH  30  31
HETATM   31  C   UNK N   1      24.864  13.369   8.336  0.00  0.00    -0.005 C 
HETATM   32  C   UNK N   1      24.752  13.288   6.826  0.00  0.00     0.005 C 
ENDBRANCH  30  31
ENDBRANCH  29  30
ENDBRANCH  28  29
ENDBRANCH  27  28
ENDBRANCH  26  27
ENDBRANCH  25  26
BRANCH  25  33
HETATM   33  O   UNK N   1      20.971  12.732   8.042  0.00  0.00    -0.395 OA
HETATM   34  H   UNK N   1      21.348  11.840   7.979  0.00  0.00     0.210 HD
ENDBRANCH  25  33
ENDBRANCH  24  25
ENDBRANCH  15  24
ENDBRANCH  11  12
ENDBRANCH   5  11
BRANCH   2  35
HETATM   35  O   UNK N   1      20.159  17.569   0.126  0.00  0.00    -0.390 OA
HETATM   36  H   UNK N   1      21.048  17.817  -0.173  0.00  0.00     0.210 HD
ENDBRANCH   2  35
BRANCH   1  37
HETATM   37  C   UNK N   1      19.591  19.166   2.552  0.00  0.00     0.198 C 
BRANCH  37  38
HETATM   38  O   UNK N   1      18.237  18.972   2.269  0.00  0.00    -0.398 OA
HETATM   39  H   UNK N   1      17.603  19.667   2.029  0.00  0.00     0.209 HD
ENDBRANCH  37  38
ENDBRANCH   1  37
TORSDOF 19
ENDMDL
MODEL 9
REMARK VINA RESULT:      -6.0      3.557      6.953
REMARK  19 active torsions:
REMARK  status: ('A' for Active; 'I' for Inactive)
REMARK    1  A    between atoms: C_3  and  C_2 
REMARK    2  A    between atoms: C_4  and  C_3 
REMARK    3  A    between atoms: C_5  and  C_4 
REMARK    4  A    between atoms: C_6  and  C_5 
REMARK    5  A    between atoms: C_7  and  C_6 
REMARK    6  A    between atoms: C_11  and  C_7 
REMARK    7  A    between atoms: C_11  and  C_8 
REMARK    8  A    between atoms: C_12  and  C_8 
REMARK    9  A    between atoms: C_13  and  C_9 
REMARK   10  A    between atoms: O_21  and  C_9 
REMARK   11  A    between atoms: C_20  and  C_10 
REMARK   12  A    between atoms: O_22  and  C_10 
REMARK   13  A    between atoms: C_11  and  O_23 
REMARK   14  A    between atoms: C_14  and  O_24 
REMARK   15  A    between atoms: C_15  and  O_25 
REMARK   16  A    between atoms: C_16  and  O_26 
REMARK   17  A    between atoms: C_18  and  O_28 
REMARK   18  A    between atoms: C_19  and  O_31 
REMARK   19  A    between atoms: C_20  and  O_31 
ROOT
HETATM    1  C   UNK N   1      33.654  14.979   9.773  0.00  0.00     0.179 C 
HETATM    2  C   UNK N   1      34.933  15.847   9.844  0.00  0.00     0.180 C 
HETATM    3  C   UNK N   1      35.957  15.147  10.748  0.00  0.00     0.183 C 
HETATM    4  C   UNK N   1      36.187  13.710  10.264  0.00  0.00     0.204 C 
HETATM    5  C   UNK N   1      34.822  12.994  10.195  0.00  0.00     0.295 C 
HETATM    6  O   UNK N   1      36.782  13.709   8.998  0.00  0.00    -0.388 OA
HETATM    7  O   UNK N   1      33.976  13.682   9.281  0.00  0.00    -0.348 OA
HETATM    8  H   UNK N   1      37.298  13.696   8.177  0.00  0.00     0.210 HD
ENDROOT
BRANCH   3   9
HETATM    9  O   UNK N   1      37.162  15.855  10.760  0.00  0.00    -0.390 OA
HETATM   10  H   UNK N   1      37.371  16.669  10.276  0.00  0.00     0.210 HD
ENDBRANCH   3   9
BRANCH   5  11
HETATM   11  O   UNK N   1      34.987  11.652   9.740  0.00  0.00    -0.318 OA
BRANCH  11  12
HETATM   12  C   UNK N   1      34.304  10.631  10.490  0.00  0.00     0.217 C 
HETATM   13  C   UNK N   1      35.297   9.440  10.655  0.00  0.00     0.214 C 
HETATM   14  C   UNK N   1      35.760   9.632  12.074  0.00  0.00     0.181 C 
HETATM   15  C   UNK N   1      34.463  10.118  12.692  0.00  0.00     0.159 C 
HETATM   16  O   UNK N   1      34.012  11.109  11.800  0.00  0.00    -0.343 OA
BRANCH  12  17
HETATM   17  C   UNK N   1      32.991  10.100   9.855  0.00  0.00     0.235 C 
BRANCH  17  18
HETATM   18  O   UNK N   1      32.071  11.133   9.645  0.00  0.00    -0.395 OA
HETATM   19  H   UNK N   1      32.349  12.059   9.719  0.00  0.00     0.209 HD
ENDBRANCH  17  18
ENDBRANCH  12  17
BRANCH  13  20
HETATM   20  O   UNK N   1      34.636   8.203  10.564  0.00  0.00    -0.387 OA
HETATM   21  H   UNK N   1      34.397   7.337  10.928  0.00  0.00     0.210 HD
ENDBRANCH  13  20
BRANCH  14  22
HETATM   22  O   UNK N   1      36.246   8.448  12.638  0.00  0.00    -0.390 OA
HETATM   23  H   UNK N   1      36.048   8.230  13.562  0.00  0.00     0.210 HD
ENDBRANCH  14  22
BRANCH  15  24
HETATM   24  C   UNK N   1      34.606  10.700  14.105  0.00  0.00     0.066 C 
BRANCH  24  25
HETATM   25  C   UNK N   1      35.468  11.964  14.166  0.00  0.00     0.120 C 
BRANCH  25  26
HETATM   26  C   UNK N   1      36.147  12.037  15.527  0.00  0.00     0.032 C 
BRANCH  26  27
HETATM   27  C   UNK N   1      35.745  13.286  16.308  0.00  0.00     0.002 C 
BRANCH  27  28
HETATM   28  C   UNK N   1      35.123  12.925  17.652  0.00  0.00     0.000 C 
BRANCH  28  29
HETATM   29  C   UNK N   1      35.013  11.417  17.833  0.00  0.00     0.000 C 
BRANCH  29  30
HETATM   30  C   UNK N   1      35.794  10.930  19.045  0.00  0.00    -0.000 C 
BRANCH  30  31
HETATM   31  C   UNK N   1      36.745   9.804  18.683  0.00  0.00    -0.005 C 
HETATM   32  C   UNK N   1      36.077   8.862  17.702  0.00  0.00     0.005 C 
ENDBRANCH  30  31
ENDBRANCH  29  30
ENDBRANCH  28  29
ENDBRANCH  27  28
ENDBRANCH  26  27
ENDBRANCH  25  26
BRANCH  25  33
HETATM   33  O   UNK N   1      34.683  13.101  13.978  0.00  0.00    -0.395 OA
HETATM   34  H   UNK N   1      34.197  13.309  13.164  0.00  0.00     0.210 HD
ENDBRANCH  25  33
ENDBRANCH  24  25
ENDBRANCH  15  24
ENDBRANCH  11  12
ENDBRANCH   5  11
BRANCH   2  35
HETATM   35  O   UNK N   1      34.649  17.116  10.359  0.00  0.00    -0.390 OA
HETATM   36  H   UNK N   1      35.122  17.511  11.107  0.00  0.00     0.210 HD
ENDBRANCH   2  35
BRANCH   1  37
HETATM   37  C   UNK N   1      32.617  15.595   8.836  0.00  0.00     0.198 C 
BRANCH  37  38
HETATM   38  O   UNK N   1      32.351  16.922   9.182  0.00  0.00    -0.398 OA
HETATM   39  H   UNK N   1      32.985  17.656   9.145  0.00  0.00     0.209 HD
ENDBRANCH  37  38
ENDBRANCH   1  37
TORSDOF 19
ENDMDL
