REMARK  16 active torsions:
REMARK  status: ('A' for Active; 'I' for Inactive)
REMARK    1  A    between atoms: C_41  and  C_25 
REMARK    2  A    between atoms: C_42  and  C_26 
REMARK    3  A    between atoms: C_43  and  C_27 
REMARK    4  A    between atoms: C_44  and  C_28 
REMARK    5  A    between atoms: S_63  and  C_29 
REMARK    6  A    between atoms: S_64  and  C_30 
REMARK    7  A    between atoms: S_65  and  C_31 
REMARK    8  A    between atoms: S_66  and  C_32 
REMARK    9  A    between atoms: S_64  and  O_55 
REMARK   10  A    between atoms: S_64  and  O_56 
REMARK   11  A    between atoms: S_65  and  O_57 
REMARK   12  A    between atoms: S_65  and  O_58 
REMARK   13  A    between atoms: S_65  and  O_59 
REMARK   14  A    between atoms: S_66  and  O_60 
REMARK   15  A    between atoms: S_66  and  O_61 
REMARK   16  A    between atoms: S_66  and  O_62 
ROOT
HETATM    1  C   UNK N   1      -2.391  -3.333  -0.630  0.00  0.00     0.033 A 
HETATM    2  C   UNK N   1       2.454  -3.386   0.477  0.00  0.00     0.033 A 
HETATM    3  C   UNK N   1      -3.328  -2.359  -0.679  0.00  0.00     0.033 A 
HETATM    4  C   UNK N   1       3.415  -2.496   0.372  0.00  0.00     0.033 A 
HETATM    5  C   UNK N   1      -3.380   2.476   0.464  0.00  0.00     0.033 A 
HETATM    6  C   UNK N   1       3.313   2.368  -0.573  0.00  0.00     0.033 A 
HETATM    7  C   UNK N   1      -2.495   3.431   0.608  0.00  0.00     0.033 A 
HETATM    8  C   UNK N   1       2.386   3.352  -0.473  0.00  0.00     0.033 A 
HETATM    9  C   UNK N   1      -1.200  -2.703  -0.341  0.00  0.00     0.046 A 
HETATM   10  C   UNK N   1       1.181  -2.671   0.266  0.00  0.00     0.046 A 
HETATM   11  C   UNK N   1      -2.671  -1.172  -0.401  0.00  0.00     0.046 A 
HETATM   12  C   UNK N   1       2.742  -1.227   0.107  0.00  0.00     0.046 A 
HETATM   13  C   UNK N   1      -2.639   1.253   0.117  0.00  0.00     0.046 A 
HETATM   14  C   UNK N   1       2.664   1.201  -0.238  0.00  0.00     0.046 A 
HETATM   15  C   UNK N   1      -1.198   2.816   0.338  0.00  0.00     0.046 A 
HETATM   16  C   UNK N   1       1.214   2.743  -0.074  0.00  0.00     0.046 A 
HETATM   17  C   UNK N   1      -0.072  -3.356  -0.035  0.00  0.00     0.028 C 
HETATM   18  C   UNK N   1      -3.306  -0.009  -0.189  0.00  0.00     0.028 C 
HETATM   19  C   UNK N   1       3.357  -0.072  -0.098  0.00  0.00     0.028 C 
HETATM   20  C   UNK N   1      -0.037   3.470   0.188  0.00  0.00     0.028 C 
HETATM   21  N   UNK N   1      -1.353  -1.368  -0.265  0.00  0.00    -0.355 N 
HETATM   22  N   UNK N   1       1.366  -1.427   0.074  0.00  0.00    -0.355 N 
ATOM     23  HN  UNK N   1       0.649  -0.717  -0.074  1.00  0.00     0.166 HD
HETATM   24  N   UNK N   1      -1.381   1.450   0.105  0.00  0.00    -0.355 N 
ATOM     25  HN  UNK N   1      -0.653   0.751  -0.045  1.00  0.00     0.166 HD
HETATM   26  N   UNK N   1       1.376   1.419   0.055  0.00  0.00    -0.355 N 
HETATM   27  H   UNK N   1      -0.653  -0.688  -0.139  0.00  0.00     0.166 HD
HETATM   28  H   UNK N   1       0.697   0.753   0.309  0.00  0.00     0.166 HD
ENDROOT
BRANCH  19  29
HETATM   29  C   UNK N   1       4.799  -0.054  -0.115  0.00  0.00    -0.021 A 
HETATM   30  C   UNK N   1       5.506  -0.866  -1.007  0.00  0.00     0.014 A 
HETATM   31  C   UNK N   1       6.891  -0.849  -0.981  0.00  0.00     0.024 A 
HETATM   32  C   UNK N   1       7.549  -0.052  -0.038  0.00  0.00     0.056 A 
HETATM   33  C   UNK N   1       6.836   0.738   0.857  0.00  0.00     0.024 A 
HETATM   34  C   UNK N   1       5.459   0.750   0.807  0.00  0.00     0.014 A 
BRANCH  32  35
HETATM   35  S   UNK N   1       9.372  -0.038   0.022  0.00  0.00     0.115 S 
BRANCH  35  36
HETATM   36  O   UNK N   1      11.111   0.005   0.048  0.00  0.00    -0.304 OA
HETATM   37  H   UNK N   1      11.616  -0.823   0.064  0.00  0.00     0.230 HD
ENDBRANCH  35  36
BRANCH  35  38
HETATM   38  O   UNK N   1       9.360   1.708  -0.189  0.00  0.00    -0.304 OA
HETATM   39  H   UNK N   1      10.191   2.195  -0.305  0.00  0.00     0.230 HD
ENDBRANCH  35  38
BRANCH  35  40
HETATM   40  O   UNK N   1       9.404  -1.769   0.307  0.00  0.00    -0.304 OA
HETATM   41  H   UNK N   1       8.584  -2.263   0.465  0.00  0.00     0.230 HD
ENDBRANCH  35  40
ENDBRANCH  32  35
ENDBRANCH  19  29
BRANCH  17  42
HETATM   42  C   UNK N   1      -0.053  -4.819  -0.004  0.00  0.00    -0.021 A 
HETATM   43  C   UNK N   1      -0.625  -5.547  -1.049  0.00  0.00     0.014 A 
HETATM   44  C   UNK N   1      -0.575  -6.927  -1.031  0.00  0.00     0.027 A 
HETATM   45  C   UNK N   1       0.022  -7.582   0.042  0.00  0.00     0.080 A 
HETATM   46  C   UNK N   1       0.577  -6.867   1.102  0.00  0.00     0.027 A 
HETATM   47  C   UNK N   1       0.552  -5.482   1.071  0.00  0.00     0.014 A 
BRANCH  45  48
HETATM   48  S   UNK N   1       0.056  -9.407   0.055  0.00  0.00     0.137 S 
HETATM   49  O   UNK N   1       0.095 -11.146   0.062  0.00  0.00    -0.591 OA
HETATM   50  O   UNK N   1       1.780  -9.383  -0.269  0.00  0.00    -0.591 OA
HETATM   51  O   UNK N   1      -1.674  -9.448   0.360  0.00  0.00    -0.591 OA
ENDBRANCH  45  48
ENDBRANCH  17  42
BRANCH  20  52
HETATM   52  C   UNK N   1      -0.022   4.951   0.164  0.00  0.00    -0.021 A 
HETATM   53  C   UNK N   1       1.144   5.667   0.450  0.00  0.00     0.014 A 
HETATM   54  C   UNK N   1       1.158   7.047   0.342  0.00  0.00     0.024 A 
HETATM   55  C   UNK N   1       0.018   7.726  -0.095  0.00  0.00     0.056 A 
HETATM   56  C   UNK N   1      -1.135   7.014  -0.416  0.00  0.00     0.024 A 
HETATM   57  C   UNK N   1      -1.151   5.643  -0.287  0.00  0.00     0.014 A 
BRANCH  55  58
HETATM   58  S   UNK N   1      -0.004   9.572  -0.108  0.00  0.00     0.115 S 
BRANCH  58  59
HETATM   59  O   UNK N   1      -0.038  11.310  -0.018  0.00  0.00    -0.304 OA
HETATM   60  H   UNK N   1       0.791  11.811   0.032  0.00  0.00     0.230 HD
ENDBRANCH  58  59
BRANCH  58  61
HETATM   61  O   UNK N   1       1.735   9.627  -0.333  0.00  0.00    -0.304 OA
HETATM   62  H   UNK N   1       2.242   8.810  -0.458  0.00  0.00     0.230 HD
ENDBRANCH  58  61
BRANCH  58  63
HETATM   63  O   UNK N   1      -1.751   9.563   0.096  0.00  0.00    -0.304 OA
HETATM   64  H   UNK N   1      -2.237  10.395   0.208  0.00  0.00     0.230 HD
ENDBRANCH  58  63
ENDBRANCH  55  58
ENDBRANCH  20  52
BRANCH  18  65
HETATM   65  C   UNK N   1      -4.762  -0.015  -0.091  0.00  0.00    -0.021 A 
HETATM   66  C   UNK N   1      -5.557   0.968  -0.690  0.00  0.00     0.014 A 
HETATM   67  C   UNK N   1      -6.938   0.892  -0.559  0.00  0.00     0.025 A 
HETATM   68  C   UNK N   1      -7.502  -0.121   0.224  0.00  0.00     0.064 A 
HETATM   69  C   UNK N   1      -6.700  -1.040   0.887  0.00  0.00     0.025 A 
HETATM   70  C   UNK N   1      -5.340  -0.986   0.729  0.00  0.00     0.014 A 
BRANCH  68  71
HETATM   71  S   UNK N   1      -9.301  -0.443   0.157  0.00  0.00     0.122 S 
HETATM   72  O   UNK N   1     -11.004  -0.779   0.046  0.00  0.00    -0.604 OA
BRANCH  71  73
HETATM   73  O   UNK N   1      -8.976  -2.138  -0.193  0.00  0.00    -0.298 OA
HETATM   74  H   UNK N   1      -9.694  -2.760  -0.386  0.00  0.00     0.231 HD
ENDBRANCH  71  73
BRANCH  71  75
HETATM   75  O   UNK N   1      -9.653   1.245   0.476  0.00  0.00    -0.298 OA
HETATM   76  H   UNK N   1      -8.941   1.880   0.652  0.00  0.00     0.231 HD
ENDBRANCH  71  75
ENDBRANCH  68  71
ENDBRANCH  18  65
TORSDOF 16
