MODEL 1
REMARK VINA RESULT:      -4.4      0.000      0.000
REMARK  6 active torsions:
REMARK  status: ('A' for Active; 'I' for Inactive)
REMARK    1  A    between atoms: C_2  and  N_1 
REMARK    2  A    between atoms: C_2  and  C_3 
REMARK    3  A    between atoms: C_2  and  C_6 
REMARK    4  A    between atoms: C_3  and  S_4 
REMARK    5  A    between atoms: S_4  and  O_5 
REMARK    6  A    between atoms: C_6  and  O_7 
ROOT
HETATM    1  C   UNK N   1      34.306  17.155   9.107  0.00  0.00     0.184 C 
ENDROOT
BRANCH   1   2
HETATM    2  N   UNK N   1      34.943  17.187  10.411  0.00  0.00    -0.417 N 
HETATM    3  H   UNK N   1      34.797  16.422  11.069  0.00  0.00     0.150 HD
HETATM    4  H   UNK N   1      35.537  17.976  10.670  0.00  0.00     0.150 HD
ENDBRANCH   1   2
BRANCH   1   5
HETATM    5  C   UNK N   1      33.320  16.001   8.869  0.00  0.00     0.140 C 
BRANCH   5   6
HETATM    6  S   UNK N   1      33.805  14.421   9.643  0.00  0.00    -0.013 SA
BRANCH   6   7
HETATM    7  O   UNK N   1      33.256  14.900  11.195  0.00  0.00    -0.329 OA
HETATM    8  H   UNK N   1      33.887  15.231  11.852  0.00  0.00     0.227 HD
ENDBRANCH   6   7
ENDBRANCH   5   6
ENDBRANCH   1   5
BRANCH   1   9
HETATM    9  C   UNK N   1      34.685  18.254   8.143  0.00  0.00     0.163 C 
HETATM   10  O   UNK N   1      34.399  18.185   6.966  0.00  0.00    -0.648 OA
BRANCH   9  11
HETATM   11  O   UNK N   1      35.353  19.334   8.598  0.00  0.00    -0.775 OA
HETATM   12  H   UNK N   1      35.005  19.834   9.311  0.00  0.00     0.167 HD
ENDBRANCH   9  11
ENDBRANCH   1   9
TORSDOF 6
ENDMDL
MODEL 2
REMARK VINA RESULT:      -4.2      1.152      1.305
REMARK  6 active torsions:
REMARK  status: ('A' for Active; 'I' for Inactive)
REMARK    1  A    between atoms: C_2  and  N_1 
REMARK    2  A    between atoms: C_2  and  C_3 
REMARK    3  A    between atoms: C_2  and  C_6 
REMARK    4  A    between atoms: C_3  and  S_4 
REMARK    5  A    between atoms: S_4  and  O_5 
REMARK    6  A    between atoms: C_6  and  O_7 
ROOT
HETATM    1  C   UNK N   1      34.241  17.237   9.185  0.00  0.00     0.184 C 
ENDROOT
BRANCH   1   2
HETATM    2  N   UNK N   1      32.855  16.809   9.103  0.00  0.00    -0.417 N 
HETATM    3  H   UNK N   1      32.491  16.129   9.770  0.00  0.00     0.150 HD
HETATM    4  H   UNK N   1      32.246  17.190   8.378  0.00  0.00     0.150 HD
ENDBRANCH   1   2
BRANCH   1   5
HETATM    5  C   UNK N   1      35.079  16.585  10.296  0.00  0.00     0.140 C 
BRANCH   5   6
HETATM    6  S   UNK N   1      34.872  14.778  10.439  0.00  0.00    -0.013 SA
BRANCH   6   7
HETATM    7  O   UNK N   1      33.353  14.917  11.220  0.00  0.00    -0.329 OA
HETATM    8  H   UNK N   1      33.311  15.128  12.166  0.00  0.00     0.227 HD
ENDBRANCH   6   7
ENDBRANCH   5   6
ENDBRANCH   1   5
BRANCH   1   9
HETATM    9  C   UNK N   1      34.692  18.266   8.176  0.00  0.00     0.163 C 
HETATM   10  O   UNK N   1      34.443  18.139   6.995  0.00  0.00    -0.648 OA
BRANCH   9  11
HETATM   11  O   UNK N   1      35.384  19.346   8.594  0.00  0.00    -0.775 OA
HETATM   12  H   UNK N   1      36.232  19.238   8.978  0.00  0.00     0.167 HD
ENDBRANCH   9  11
ENDBRANCH   1   9
TORSDOF 6
ENDMDL
MODEL 3
REMARK VINA RESULT:      -4.0     15.601     16.143
REMARK  6 active torsions:
REMARK  status: ('A' for Active; 'I' for Inactive)
REMARK    1  A    between atoms: C_2  and  N_1 
REMARK    2  A    between atoms: C_2  and  C_3 
REMARK    3  A    between atoms: C_2  and  C_6 
REMARK    4  A    between atoms: C_3  and  S_4 
REMARK    5  A    between atoms: S_4  and  O_5 
REMARK    6  A    between atoms: C_6  and  O_7 
ROOT
HETATM    1  C   UNK N   1      20.146  18.988   1.985  0.00  0.00     0.184 C 
ENDROOT
BRANCH   1   2
HETATM    2  N   UNK N   1      18.732  19.060   2.308  0.00  0.00    -0.417 N 
HETATM    3  H   UNK N   1      18.417  18.889   3.263  0.00  0.00     0.150 HD
HETATM    4  H   UNK N   1      18.052  19.282   1.580  0.00  0.00     0.150 HD
ENDBRANCH   1   2
BRANCH   1   5
HETATM    5  C   UNK N   1      20.837  17.651   2.294  0.00  0.00     0.140 C 
BRANCH   5   6
HETATM    6  S   UNK N   1      20.438  16.306   1.129  0.00  0.00    -0.013 SA
BRANCH   6   7
HETATM    7  O   UNK N   1      20.195  17.383  -0.183  0.00  0.00    -0.329 OA
HETATM    8  H   UNK N   1      20.622  17.211  -1.037  0.00  0.00     0.227 HD
ENDBRANCH   6   7
ENDBRANCH   5   6
ENDBRANCH   1   5
BRANCH   1   9
HETATM    9  C   UNK N   1      20.766  20.228   1.387  0.00  0.00     0.163 C 
HETATM   10  O   UNK N   1      21.375  21.021   2.074  0.00  0.00    -0.648 OA
BRANCH   9  11
HETATM   11  O   UNK N   1      20.641  20.459   0.063  0.00  0.00    -0.775 OA
HETATM   12  H   UNK N   1      19.843  20.239  -0.377  0.00  0.00     0.167 HD
ENDBRANCH   9  11
ENDBRANCH   1   9
TORSDOF 6
ENDMDL
MODEL 4
REMARK VINA RESULT:      -3.9     15.059     15.532
REMARK  6 active torsions:
REMARK  status: ('A' for Active; 'I' for Inactive)
REMARK    1  A    between atoms: C_2  and  N_1 
REMARK    2  A    between atoms: C_2  and  C_3 
REMARK    3  A    between atoms: C_2  and  C_6 
REMARK    4  A    between atoms: C_3  and  S_4 
REMARK    5  A    between atoms: S_4  and  O_5 
REMARK    6  A    between atoms: C_6  and  O_7 
ROOT
HETATM    1  C   UNK N   1      20.306  19.095   2.121  0.00  0.00     0.184 C 
ENDROOT
BRANCH   1   2
HETATM    2  N   UNK N   1      18.869  18.893   2.190  0.00  0.00    -0.417 N 
HETATM    3  H   UNK N   1      18.253  19.391   1.547  0.00  0.00     0.150 HD
HETATM    4  H   UNK N   1      18.477  18.253   2.881  0.00  0.00     0.150 HD
ENDBRANCH   1   2
BRANCH   1   5
HETATM    5  C   UNK N   1      21.165  18.062   2.866  0.00  0.00     0.140 C 
BRANCH   5   6
HETATM    6  S   UNK N   1      21.490  18.469   4.614  0.00  0.00    -0.013 SA
BRANCH   6   7
HETATM    7  O   UNK N   1      20.686  19.980   4.514  0.00  0.00    -0.329 OA
HETATM    8  H   UNK N   1      20.027  20.224   5.182  0.00  0.00     0.227 HD
ENDBRANCH   6   7
ENDBRANCH   5   6
ENDBRANCH   1   5
BRANCH   1   9
HETATM    9  C   UNK N   1      20.782  20.290   1.329  0.00  0.00     0.163 C 
HETATM   10  O   UNK N   1      21.352  21.215   1.869  0.00  0.00    -0.648 OA
BRANCH   9  11
HETATM   11  O   UNK N   1      20.572  20.330  -0.003  0.00  0.00    -0.775 OA
HETATM   12  H   UNK N   1      20.266  19.565  -0.451  0.00  0.00     0.167 HD
ENDBRANCH   9  11
ENDBRANCH   1   9
TORSDOF 6
ENDMDL
MODEL 5
REMARK VINA RESULT:      -3.9      2.365      2.610
REMARK  6 active torsions:
REMARK  status: ('A' for Active; 'I' for Inactive)
REMARK    1  A    between atoms: C_2  and  N_1 
REMARK    2  A    between atoms: C_2  and  C_3 
REMARK    3  A    between atoms: C_2  and  C_6 
REMARK    4  A    between atoms: C_3  and  S_4 
REMARK    5  A    between atoms: S_4  and  O_5 
REMARK    6  A    between atoms: C_6  and  O_7 
ROOT
HETATM    1  C   UNK N   1      34.057  17.233   9.023  0.00  0.00     0.184 C 
ENDROOT
BRANCH   1   2
HETATM    2  N   UNK N   1      34.731  17.047  10.296  0.00  0.00    -0.417 N 
HETATM    3  H   UNK N   1      35.744  17.147  10.356  0.00  0.00     0.150 HD
HETATM    4  H   UNK N   1      34.190  16.817  11.130  0.00  0.00     0.150 HD
ENDBRANCH   1   2
BRANCH   1   5
HETATM    5  C   UNK N   1      32.835  16.336   8.773  0.00  0.00     0.140 C 
BRANCH   5   6
HETATM    6  S   UNK N   1      31.299  17.241   8.383  0.00  0.00    -0.013 SA
BRANCH   6   7
HETATM    7  O   UNK N   1      31.594  17.208   6.695  0.00  0.00    -0.329 OA
HETATM    8  H   UNK N   1      31.156  16.545   6.139  0.00  0.00     0.227 HD
ENDBRANCH   6   7
ENDBRANCH   5   6
ENDBRANCH   1   5
BRANCH   1   9
HETATM    9  C   UNK N   1      34.634  18.279   8.099  0.00  0.00     0.163 C 
HETATM   10  O   UNK N   1      35.268  19.219   8.531  0.00  0.00    -0.648 OA
BRANCH   9  11
HETATM   11  O   UNK N   1      34.442  18.167   6.768  0.00  0.00    -0.775 OA
HETATM   12  H   UNK N   1      33.978  17.429   6.423  0.00  0.00     0.167 HD
ENDBRANCH   9  11
ENDBRANCH   1   9
TORSDOF 6
ENDMDL
MODEL 6
REMARK VINA RESULT:      -3.8      3.454      3.777
REMARK  6 active torsions:
REMARK  status: ('A' for Active; 'I' for Inactive)
REMARK    1  A    between atoms: C_2  and  N_1 
REMARK    2  A    between atoms: C_2  and  C_3 
REMARK    3  A    between atoms: C_2  and  C_6 
REMARK    4  A    between atoms: C_3  and  S_4 
REMARK    5  A    between atoms: S_4  and  O_5 
REMARK    6  A    between atoms: C_6  and  O_7 
ROOT
HETATM    1  C   UNK N   1      34.661  15.017  11.035  0.00  0.00     0.184 C 
ENDROOT
BRANCH   1   2
HETATM    2  N   UNK N   1      33.263  15.243  10.716  0.00  0.00    -0.417 N 
HETATM    3  H   UNK N   1      33.009  15.783   9.888  0.00  0.00     0.150 HD
HETATM    4  H   UNK N   1      32.533  14.861  11.319  0.00  0.00     0.150 HD
ENDBRANCH   1   2
BRANCH   1   5
HETATM    5  C   UNK N   1      35.022  13.601  11.510  0.00  0.00     0.140 C 
BRANCH   5   6
HETATM    6  S   UNK N   1      35.574  13.503  13.246  0.00  0.00    -0.013 SA
BRANCH   6   7
HETATM    7  O   UNK N   1      37.229  13.672  12.831  0.00  0.00    -0.329 OA
HETATM    8  H   UNK N   1      37.900  13.141  13.287  0.00  0.00     0.227 HD
ENDBRANCH   6   7
ENDBRANCH   5   6
ENDBRANCH   1   5
BRANCH   1   9
HETATM    9  C   UNK N   1      35.591  16.195  10.863  0.00  0.00     0.163 C 
HETATM   10  O   UNK N   1      35.163  17.310  10.652  0.00  0.00    -0.648 OA
BRANCH   9  11
HETATM   11  O   UNK N   1      36.924  16.004  10.947  0.00  0.00    -0.775 OA
HETATM   12  H   UNK N   1      37.287  15.550  11.684  0.00  0.00     0.167 HD
ENDBRANCH   9  11
ENDBRANCH   1   9
TORSDOF 6
ENDMDL
MODEL 7
REMARK VINA RESULT:      -3.6     12.273     12.612
REMARK  6 active torsions:
REMARK  status: ('A' for Active; 'I' for Inactive)
REMARK    1  A    between atoms: C_2  and  N_1 
REMARK    2  A    between atoms: C_2  and  C_3 
REMARK    3  A    between atoms: C_2  and  C_6 
REMARK    4  A    between atoms: C_3  and  S_4 
REMARK    5  A    between atoms: S_4  and  O_5 
REMARK    6  A    between atoms: C_6  and  O_7 
ROOT
HETATM    1  C   UNK N   1      43.082  22.834   3.225  0.00  0.00     0.184 C 
ENDROOT
BRANCH   1   2
HETATM    2  N   UNK N   1      43.589  23.982   3.955  0.00  0.00    -0.417 N 
HETATM    3  H   UNK N   1      44.447  23.901   4.501  0.00  0.00     0.150 HD
HETATM    4  H   UNK N   1      43.088  24.870   3.921  0.00  0.00     0.150 HD
ENDBRANCH   1   2
BRANCH   1   5
HETATM    5  C   UNK N   1      43.373  21.460   3.848  0.00  0.00     0.140 C 
BRANCH   5   6
HETATM    6  S   UNK N   1      45.035  20.801   3.487  0.00  0.00    -0.013 SA
BRANCH   6   7
HETATM    7  O   UNK N   1      45.828  22.140   4.206  0.00  0.00    -0.329 OA
HETATM    8  H   UNK N   1      46.328  22.023   5.029  0.00  0.00     0.227 HD
ENDBRANCH   6   7
ENDBRANCH   5   6
ENDBRANCH   1   5
BRANCH   1   9
HETATM    9  C   UNK N   1      42.333  23.123   1.945  0.00  0.00     0.163 C 
HETATM   10  O   UNK N   1      42.563  22.504   0.928  0.00  0.00    -0.648 OA
BRANCH   9  11
HETATM   11  O   UNK N   1      41.391  24.089   1.933  0.00  0.00    -0.775 OA
HETATM   12  H   UNK N   1      41.223  24.568   1.145  0.00  0.00     0.167 HD
ENDBRANCH   9  11
ENDBRANCH   1   9
TORSDOF 6
ENDMDL
MODEL 8
REMARK VINA RESULT:      -3.5      4.028      5.457
REMARK  6 active torsions:
REMARK  status: ('A' for Active; 'I' for Inactive)
REMARK    1  A    between atoms: C_2  and  N_1 
REMARK    2  A    between atoms: C_2  and  C_3 
REMARK    3  A    between atoms: C_2  and  C_6 
REMARK    4  A    between atoms: C_3  and  S_4 
REMARK    5  A    between atoms: S_4  and  O_5 
REMARK    6  A    between atoms: C_6  and  O_7 
ROOT
HETATM    1  C   UNK N   1      35.465  14.098  11.896  0.00  0.00     0.184 C 
ENDROOT
BRANCH   1   2
HETATM    2  N   UNK N   1      36.132  13.083  11.100  0.00  0.00    -0.417 N 
HETATM    3  H   UNK N   1      37.070  13.254  10.738  0.00  0.00     0.150 HD
HETATM    4  H   UNK N   1      35.663  12.199  10.903  0.00  0.00     0.150 HD
ENDBRANCH   1   2
BRANCH   1   5
HETATM    5  C   UNK N   1      34.546  15.059  11.126  0.00  0.00     0.140 C 
BRANCH   5   6
HETATM    6  S   UNK N   1      35.358  16.594  10.565  0.00  0.00    -0.013 SA
BRANCH   6   7
HETATM    7  O   UNK N   1      36.927  16.020  10.951  0.00  0.00    -0.329 OA
HETATM    8  H   UNK N   1      37.041  15.341  11.634  0.00  0.00     0.227 HD
ENDBRANCH   6   7
ENDBRANCH   5   6
ENDBRANCH   1   5
BRANCH   1   9
HETATM    9  C   UNK N   1      35.750  14.089  13.379  0.00  0.00     0.163 C 
HETATM   10  O   UNK N   1      35.032  13.493  14.154  0.00  0.00    -0.648 OA
BRANCH   9  11
HETATM   11  O   UNK N   1      36.823  14.756  13.852  0.00  0.00    -0.775 OA
HETATM   12  H   UNK N   1      37.151  15.503  13.389  0.00  0.00     0.167 HD
ENDBRANCH   9  11
ENDBRANCH   1   9
TORSDOF 6
ENDMDL
MODEL 9
REMARK VINA RESULT:      -3.5     12.387     13.431
REMARK  6 active torsions:
REMARK  status: ('A' for Active; 'I' for Inactive)
REMARK    1  A    between atoms: C_2  and  N_1 
REMARK    2  A    between atoms: C_2  and  C_3 
REMARK    3  A    between atoms: C_2  and  C_6 
REMARK    4  A    between atoms: C_3  and  S_4 
REMARK    5  A    between atoms: S_4  and  O_5 
REMARK    6  A    between atoms: C_6  and  O_7 
ROOT
HETATM    1  C   UNK N   1      43.894  23.350   3.006  0.00  0.00     0.184 C 
ENDROOT
BRANCH   1   2
HETATM    2  N   UNK N   1      43.554  23.712   4.371  0.00  0.00    -0.417 N 
HETATM    3  H   UNK N   1      43.482  24.694   4.636  0.00  0.00     0.150 HD
HETATM    4  H   UNK N   1      43.386  22.983   5.065  0.00  0.00     0.150 HD
ENDBRANCH   1   2
BRANCH   1   5
HETATM    5  C   UNK N   1      43.223  22.080   2.461  0.00  0.00     0.140 C 
BRANCH   5   6
HETATM    6  S   UNK N   1      41.493  22.307   1.929  0.00  0.00    -0.013 SA
BRANCH   6   7
HETATM    7  O   UNK N   1      41.581  24.016   2.041  0.00  0.00    -0.329 OA
HETATM    8  H   UNK N   1      40.828  24.559   1.760  0.00  0.00     0.227 HD
ENDBRANCH   6   7
ENDBRANCH   5   6
ENDBRANCH   1   5
BRANCH   1   9
HETATM    9  C   UNK N   1      44.861  24.260   2.287  0.00  0.00     0.163 C 
HETATM   10  O   UNK N   1      44.512  24.921   1.332  0.00  0.00    -0.648 OA
BRANCH   9  11
HETATM   11  O   UNK N   1      46.139  24.340   2.715  0.00  0.00    -0.775 OA
HETATM   12  H   UNK N   1      46.548  23.594   3.109  0.00  0.00     0.167 HD
ENDBRANCH   9  11
ENDBRANCH   1   9
TORSDOF 6
ENDMDL
