REMARK  8 active torsions:
REMARK  status: ('A' for Active; 'I' for Inactive)
REMARK    1  A    between atoms: C_8  and  C_5 
REMARK    2  A    between atoms: O_14  and  C_5 
REMARK    3  A    between atoms: N_13  and  C_6 
REMARK    4  A    between atoms: O_20  and  C_7 
REMARK    5  A    between atoms: C_9  and  O_15 
REMARK    6  A    between atoms: C_10  and  O_16 
REMARK    7  A    between atoms: C_11  and  O_17 
REMARK    8  A    between atoms: C_12  and  O_20 
ROOT
HETATM    1  C   UNK N   1       0.495   7.217   0.083  0.00  0.00     0.179 C 
HETATM    2  C   UNK N   1      -0.763   6.761  -0.695  0.00  0.00     0.180 C 
HETATM    3  C   UNK N   1      -1.173   5.369  -0.202  0.00  0.00     0.183 C 
HETATM    4  C   UNK N   1       0.018   4.409  -0.298  0.00  0.00     0.205 C 
HETATM    5  C   UNK N   1       1.201   5.022   0.497  0.00  0.00     0.298 C 
HETATM    6  O   UNK N   1       1.536   6.273  -0.085  0.00  0.00    -0.348 OA
ENDROOT
BRANCH   5   7
HETATM    7  O   UNK N   1       2.373   4.272   0.524  0.00  0.00    -0.315 OA
BRANCH   7   8
HETATM    8  C   UNK N   1       2.643   2.973   0.221  0.00  0.00     0.105 A 
HETATM    9  C   UNK N   1       1.631   2.002   0.173  0.00  0.00     0.039 A 
HETATM   10  C   UNK N   1       1.919   0.673  -0.124  0.00  0.00     0.003 A 
HETATM   11  C   UNK N   1       3.233   0.288  -0.373  0.00  0.00     0.003 A 
HETATM   12  C   UNK N   1       4.258   1.232  -0.316  0.00  0.00     0.039 A 
HETATM   13  C   UNK N   1       3.985   2.579  -0.019  0.00  0.00     0.136 A 
BRANCH  13  14
HETATM   14  N   UNK N   1       5.067   3.517   0.027  0.00  0.00    -0.113 N 
HETATM   15  O   UNK N   1       4.866   4.678   0.216  0.00  0.00    -0.532 OA
HETATM   16  O   UNK N   1       6.190   3.139  -0.135  0.00  0.00    -0.532 OA
ENDBRANCH  13  14
ENDBRANCH   7   8
ENDBRANCH   5   7
BRANCH   4  17
HETATM   17  O   UNK N   1       0.390   4.228  -1.636  0.00  0.00    -0.388 OA
HETATM   18  H   UNK N   1       0.410   3.942  -2.563  0.00  0.00     0.210 HD
ENDBRANCH   4  17
BRANCH   3  19
HETATM   19  O   UNK N   1      -2.250   4.882  -0.947  0.00  0.00    -0.390 OA
HETATM   20  H   UNK N   1      -2.917   5.360  -1.465  0.00  0.00     0.210 HD
ENDBRANCH   3  19
BRANCH   1  21
HETATM   21  C   UNK N   1       1.014   8.554  -0.438  0.00  0.00     0.198 C 
BRANCH  21  22
HETATM   22  O   UNK N   1       0.164   9.600  -0.078  0.00  0.00    -0.398 OA
HETATM   23  H   UNK N   1       0.498  10.475   0.172  0.00  0.00     0.209 HD
ENDBRANCH  21  22
ENDBRANCH   1  21
BRANCH   2  24
HETATM   24  O   UNK N   1      -1.818   7.656  -0.503  0.00  0.00    -0.390 OA
HETATM   25  H   UNK N   1      -1.646   8.602  -0.370  0.00  0.00     0.210 HD
ENDBRANCH   2  24
TORSDOF 8
