REMARK  9 active torsions:
REMARK  status: ('A' for Active; 'I' for Inactive)
REMARK    1  A    between atoms: C_2  and  N_1 
REMARK    2  A    between atoms: C_2  and  C_3 
REMARK    3  A    between atoms: C_2  and  C_15 
REMARK    4  A    between atoms: C_3  and  C_4 
REMARK    5  A    between atoms: C_7  and  O_8 
REMARK    6  A    between atoms: O_8  and  P_9 
REMARK    7  A    between atoms: P_9  and  O_10 
REMARK    8  A    between atoms: P_9  and  O_11 
REMARK    9  A    between atoms: C_15  and  O_16 
ROOT
HETATM    1  C   UNK N   1       0.286  -0.850  -0.080  0.00  0.00    -0.056 A 
HETATM    2  C   UNK N   1      -0.780  -0.085   0.411  0.00  0.00     0.010 A 
HETATM    3  C   UNK N   1      -0.710   1.314   0.391  0.00  0.00     0.038 A 
HETATM    4  C   UNK N   1       0.424   1.957  -0.121  0.00  0.00     0.081 A 
HETATM    5  C   UNK N   1       1.470   1.186  -0.649  0.00  0.00     0.038 A 
HETATM    6  C   UNK N   1       1.403  -0.202  -0.625  0.00  0.00     0.010 A 
ENDROOT
BRANCH   1   7
HETATM    7  C   UNK N   1       0.243  -2.350   0.042  0.00  0.00     0.074 C 
BRANCH   7   8
HETATM    8  C   UNK N   1       1.613  -3.019  -0.163  0.00  0.00     0.177 C 
BRANCH   8   9
HETATM    9  N   UNK N   1       2.552  -2.542   0.841  0.00  0.00    -0.417 N 
HETATM   10  H   UNK N   1       3.171  -2.945   1.545  0.00  0.00     0.150 HD
HETATM   11  H   UNK N   1       2.607  -1.524   0.841  0.00  0.00     0.150 HD
ENDBRANCH   8   9
BRANCH   8  12
HETATM   12  C   UNK N   1       1.558  -4.518  -0.099  0.00  0.00     0.163 C 
HETATM   13  O   UNK N   1       0.516  -5.100   0.149  0.00  0.00    -0.648 OA
BRANCH  12  14
HETATM   14  O   UNK N   1       2.684  -5.228  -0.310  0.00  0.00    -0.775 OA
HETATM   15  H   UNK N   1       2.648  -6.152  -0.457  0.00  0.00     0.167 HD
ENDBRANCH  12  14
ENDBRANCH   8  12
ENDBRANCH   7   8
ENDBRANCH   1   7
BRANCH   4  16
HETATM   16  O   UNK N   1       0.507   3.313  -0.072  0.00  0.00    -0.255 OA
BRANCH  16  17
HETATM   17  P   UNK N   1       1.873   4.234  -0.616  0.00  0.00     0.396 P 
HETATM   18  O   UNK N   1       2.564   3.520   0.580  0.00  0.00    -0.631 OA
BRANCH  17  19
HETATM   19  O   UNK N   1       2.544   5.565   0.271  0.00  0.00    -0.307 OA
HETATM   20  H   UNK N   1       3.376   5.612   0.767  0.00  0.00     0.222 HD
ENDBRANCH  17  19
BRANCH  17  21
HETATM   21  O   UNK N   1       0.659   5.280   0.050  0.00  0.00    -0.307 OA
HETATM   22  H   UNK N   1       0.827   6.160   0.422  0.00  0.00     0.222 HD
ENDBRANCH  17  21
ENDBRANCH  16  17
ENDBRANCH   4  16
TORSDOF 9
