MODEL 1
REMARK VINA RESULT:      -7.2      0.000      0.000
REMARK  28 active torsions:
REMARK  status: ('A' for Active; 'I' for Inactive)
REMARK    1  A    between atoms: C_17  and  C_10 
REMARK    2  A    between atoms: C_20  and  C_10 
REMARK    3  A    between atoms: C_27  and  C_17 
REMARK    4  A    between atoms: C_19  and  C_18 
REMARK    5  A    between atoms: C_28  and  C_18 
REMARK    6  A    between atoms: C_31  and  C_19 
REMARK    7  A    between atoms: N_42  and  C_20 
REMARK    8  A    between atoms: C_24  and  C_21 
REMARK    9  A    between atoms: C_29  and  C_21 
REMARK   10  A    between atoms: C_25  and  C_22 
REMARK   11  A    between atoms: C_30  and  C_22 
REMARK   12  A    between atoms: C_26  and  C_23 
REMARK   13  A    between atoms: O_59  and  C_23 
REMARK   14  A    between atoms: C_33  and  C_27 
REMARK   15  A    between atoms: C_27  and  N_45 
REMARK   16  A    between atoms: C_34  and  C_28 
REMARK   17  A    between atoms: C_28  and  N_43 
REMARK   18  A    between atoms: C_32  and  C_29 
REMARK   19  A    between atoms: C_29  and  N_48 
REMARK   20  A    between atoms: C_36  and  C_30 
REMARK   21  A    between atoms: C_30  and  N_46 
REMARK   22  A    between atoms: O_51  and  C_31 
REMARK   23  A    between atoms: C_35  and  C_32 
REMARK   24  A    between atoms: C_33  and  O_53 
REMARK   25  A    between atoms: C_34  and  O_54 
REMARK       I    between atoms: N_45  and  C_35 
REMARK   26  A    between atoms: O_57  and  C_36 
REMARK       I    between atoms: N_41  and  C_37 
REMARK       I    between atoms: N_42  and  C_37 
REMARK   27  A    between atoms: C_38  and  O_58 
REMARK   28  A    between atoms: O_59  and  C_38 
ROOT
HETATM    1  C   UNK N   1      36.642  13.836   9.853  0.00  0.00     0.159 C 
ENDROOT
BRANCH   1   2
HETATM    2  C   UNK N   1      36.811  13.581   8.348  0.00  0.00     0.035 C 
BRANCH   2   3
HETATM    3  C   UNK N   1      36.112  12.334   7.832  0.00  0.00     0.023 C 
BRANCH   3   4
HETATM    4  C   UNK N   1      34.618  12.518   7.707  0.00  0.00     0.138 C 
BRANCH   4   5
HETATM    5  N   UNK N   1      34.026  11.214   7.581  0.00  0.00    -0.227 N 
HETATM    6  C   UNK N   1      33.051  10.754   8.501  0.00  0.00     0.665 C 
HETATM    7  N   UNK N   1      32.612  11.525   9.428  0.00  0.00    -0.235 N 
HETATM    8  N   UNK N   1      32.631   9.409   8.455  0.00  0.00    -0.235 N 
HETATM    9  H   UNK N   1      32.221  11.395  10.322  0.00  0.00     0.174 HD
ATOM     10  HN  UNK N   1      32.686  12.511   9.177  1.00  0.00     0.174 HD
HETATM   11  H   UNK N   1      33.157   8.685   8.043  0.00  0.00     0.174 HD
HETATM   12  H   UNK N   1      31.762   9.179   8.857  0.00  0.00     0.174 HD
HETATM   13  H   UNK N   1      34.302  10.628   6.840  0.00  0.00     0.177 HD
ENDBRANCH   4   5
ENDBRANCH   3   4
ENDBRANCH   2   3
ENDBRANCH   1   2
BRANCH   1  14
HETATM   14  C   UNK N   1      37.805  13.249  10.648  0.00  0.00     0.135 C 
HETATM   15  N   UNK N   1      37.720  12.204  11.414  0.00  0.00    -0.361 N 
ATOM     16  HN  UNK N   1      38.596  11.951  11.871  1.00  0.00     0.162 HD
BRANCH  15  17
HETATM   17  C   UNK N   1      36.603  11.321  11.744  0.00  0.00     0.158 C 
BRANCH  17  18
HETATM   18  C   UNK N   1      36.244  10.413  10.564  0.00  0.00     0.044 C 
BRANCH  18  19
HETATM   19  C   UNK N   1      36.221   8.937  10.913  0.00  0.00     0.112 C 
BRANCH  19  20
HETATM   20  C   UNK N   1      34.815   8.446  10.790  0.00  0.00     0.139 C 
HETATM   21  O   UNK N   1      34.576   7.438  10.148  0.00  0.00    -0.650 OA
BRANCH  20  22
HETATM   22  O   UNK N   1      33.809   9.124  11.377  0.00  0.00    -0.776 OA
HETATM   23  H   UNK N   1      33.753  10.059  11.369  0.00  0.00     0.167 HD
ENDBRANCH  20  22
ENDBRANCH  19  20
ENDBRANCH  18  19
ENDBRANCH  17  18
BRANCH  17  24
HETATM   24  C   UNK N   1      35.398  12.050  12.326  0.00  0.00     0.135 C 
HETATM   25  N   UNK N   1      35.454  12.739  13.425  0.00  0.00    -0.358 N 
ATOM     26  HN  UNK N   1      34.586  13.170  13.743  1.00  0.00     0.162 HD
BRANCH  25  27
HETATM   27  C   UNK N   1      36.636  12.958  14.248  0.00  0.00     0.181 C 
BRANCH  27  28
HETATM   28  C   UNK N   1      36.503  12.258  15.609  0.00  0.00     0.040 C 
BRANCH  28  29
HETATM   29  C   UNK N   1      35.078  12.093  16.164  0.00  0.00    -0.012 C 
HETATM   30  C   UNK N   1      34.567  13.294  16.974  0.00  0.00     0.005 C 
HETATM   31  C   UNK N   1      35.320  13.446  18.296  0.00  0.00     0.000 C 
HETATM   32  C   UNK N   1      35.197  12.171  19.120  0.00  0.00     0.000 C 
HETATM   33  C   UNK N   1      35.751  10.984  18.337  0.00  0.00     0.000 C 
HETATM   34  C   UNK N   1      34.992  10.824  17.016  0.00  0.00     0.005 C 
ENDBRANCH  28  29
ENDBRANCH  27  28
BRANCH  27  35
HETATM   35  C   UNK N   1      36.856  14.435  14.411  0.00  0.00     0.163 C 
HETATM   36  O   UNK N   1      36.444  15.215  13.568  0.00  0.00    -0.648 OA
BRANCH  35  37
HETATM   37  O   UNK N   1      37.500  14.905  15.495  0.00  0.00    -0.775 OA
HETATM   38  H   UNK N   1      37.446  14.648  16.394  0.00  0.00     0.167 HD
ENDBRANCH  35  37
ENDBRANCH  27  35
ENDBRANCH  25  27
BRANCH  24  39
HETATM   39  O   UNK N   1      34.216  11.966  11.685  0.00  0.00    -0.348 OA
HETATM   40  H   UNK N   1      33.449  11.572  11.317  0.00  0.00     0.219 HD
ENDBRANCH  24  39
ENDBRANCH  17  24
ENDBRANCH  15  17
BRANCH  14  41
HETATM   41  O   UNK N   1      39.023  13.809  10.503  0.00  0.00    -0.348 OA
HETATM   42  H   UNK N   1      39.672  14.302  10.040  0.00  0.00     0.219 HD
ENDBRANCH  14  41
ENDBRANCH   1  14
BRANCH   1  43
HETATM   43  N   UNK N   1      36.434  15.245  10.155  0.00  0.00    -0.342 N 
HETATM   44  C   UNK N   1      35.271  15.964  10.153  0.00  0.00     0.290 C 
HETATM   45  O   UNK N   1      35.346  17.157  10.412  0.00  0.00    -0.264 OA
HETATM   46  H   UNK N   1      37.244  15.751  10.396  0.00  0.00     0.163 HD
BRANCH  44  47
HETATM   47  C   UNK N   1      33.910  15.388   9.857  0.00  0.00     0.238 C 
HETATM   48  O   UNK N   1      33.421  14.530  10.574  0.00  0.00    -0.285 OA
BRANCH  47  49
HETATM   49  C   UNK N   1      33.119  15.824   8.645  0.00  0.00     0.166 C 
BRANCH  49  50
HETATM   50  C   UNK N   1      34.003  16.126   7.425  0.00  0.00     0.038 C 
BRANCH  50  51
HETATM   51  C   UNK N   1      33.368  16.147   6.035  0.00  0.00    -0.012 C 
HETATM   52  C   UNK N   1      33.358  17.517   5.363  0.00  0.00     0.005 C 
HETATM   53  C   UNK N   1      32.636  17.403   4.021  0.00  0.00     0.000 C 
HETATM   54  C   UNK N   1      33.362  16.408   3.118  0.00  0.00     0.000 C 
HETATM   55  C   UNK N   1      33.447  15.038   3.787  0.00  0.00     0.000 C 
HETATM   56  C   UNK N   1      34.117  15.150   5.154  0.00  0.00     0.005 C 
ENDBRANCH  50  51
ENDBRANCH  49  50
BRANCH  49  57
HETATM   57  N   UNK N   1      32.449  17.062   9.009  0.00  0.00    -0.339 N 
HETATM   58  C   UNK N   1      31.250  17.469   8.733  0.00  0.00     0.259 C 
ATOM     59  HN  UNK N   1      33.009  17.708   9.565  1.00  0.00     0.164 HD
BRANCH  58  60
HETATM   60  O   UNK N   1      30.819  18.607   9.309  0.00  0.00    -0.327 OA
HETATM   61  H   UNK N   1      30.036  19.028   9.604  0.00  0.00     0.221 HD
ENDBRANCH  58  60
BRANCH  58  62
HETATM   62  O   UNK N   1      30.392  16.806   7.908  0.00  0.00    -0.312 OA
BRANCH  62  63
HETATM   63  C   UNK N   1      29.496  17.393   7.043  0.00  0.00     0.218 C 
BRANCH  63  64
HETATM   64  C   UNK N   1      29.484  16.674   5.734  0.00  0.00    -0.034 A 
HETATM   65  C   UNK N   1      29.081  17.344   4.574  0.00  0.00     0.009 A 
HETATM   66  C   UNK N   1      29.066  16.676   3.347  0.00  0.00     0.001 A 
HETATM   67  C   UNK N   1      29.460  15.337   3.275  0.00  0.00     0.000 A 
HETATM   68  C   UNK N   1      29.867  14.666   4.432  0.00  0.00     0.001 A 
HETATM   69  C   UNK N   1      29.879  15.332   5.661  0.00  0.00     0.009 A 
ENDBRANCH  63  64
ENDBRANCH  62  63
ENDBRANCH  58  62
ENDBRANCH  49  57
ENDBRANCH  47  49
ENDBRANCH  44  47
ENDBRANCH   1  43
TORSDOF 28
ENDMDL
MODEL 2
REMARK VINA RESULT:      -7.2      9.060     14.995
REMARK  28 active torsions:
REMARK  status: ('A' for Active; 'I' for Inactive)
REMARK    1  A    between atoms: C_17  and  C_10 
REMARK    2  A    between atoms: C_20  and  C_10 
REMARK    3  A    between atoms: C_27  and  C_17 
REMARK    4  A    between atoms: C_19  and  C_18 
REMARK    5  A    between atoms: C_28  and  C_18 
REMARK    6  A    between atoms: C_31  and  C_19 
REMARK    7  A    between atoms: N_42  and  C_20 
REMARK    8  A    between atoms: C_24  and  C_21 
REMARK    9  A    between atoms: C_29  and  C_21 
REMARK   10  A    between atoms: C_25  and  C_22 
REMARK   11  A    between atoms: C_30  and  C_22 
REMARK   12  A    between atoms: C_26  and  C_23 
REMARK   13  A    between atoms: O_59  and  C_23 
REMARK   14  A    between atoms: C_33  and  C_27 
REMARK   15  A    between atoms: C_27  and  N_45 
REMARK   16  A    between atoms: C_34  and  C_28 
REMARK   17  A    between atoms: C_28  and  N_43 
REMARK   18  A    between atoms: C_32  and  C_29 
REMARK   19  A    between atoms: C_29  and  N_48 
REMARK   20  A    between atoms: C_36  and  C_30 
REMARK   21  A    between atoms: C_30  and  N_46 
REMARK   22  A    between atoms: O_51  and  C_31 
REMARK   23  A    between atoms: C_35  and  C_32 
REMARK   24  A    between atoms: C_33  and  O_53 
REMARK   25  A    between atoms: C_34  and  O_54 
REMARK       I    between atoms: N_45  and  C_35 
REMARK   26  A    between atoms: O_57  and  C_36 
REMARK       I    between atoms: N_41  and  C_37 
REMARK       I    between atoms: N_42  and  C_37 
REMARK   27  A    between atoms: C_38  and  O_58 
REMARK   28  A    between atoms: O_59  and  C_38 
ROOT
HETATM    1  C   UNK N   1      20.536  15.559   5.167  0.00  0.00     0.159 C 
ENDROOT
BRANCH   1   2
HETATM    2  C   UNK N   1      20.328  14.526   6.286  0.00  0.00     0.035 C 
BRANCH   2   3
HETATM    3  C   UNK N   1      20.787  13.118   5.943  0.00  0.00     0.023 C 
BRANCH   3   4
HETATM    4  C   UNK N   1      21.435  12.418   7.114  0.00  0.00     0.138 C 
BRANCH   4   5
HETATM    5  N   UNK N   1      22.827  12.777   7.123  0.00  0.00    -0.227 N 
HETATM    6  C   UNK N   1      23.606  12.682   8.302  0.00  0.00     0.665 C 
HETATM    7  N   UNK N   1      23.105  12.195   9.379  0.00  0.00    -0.235 N 
HETATM    8  N   UNK N   1      24.912  13.214   8.318  0.00  0.00    -0.235 N 
HETATM    9  H   UNK N   1      23.280  12.296  10.342  0.00  0.00     0.174 HD
ATOM     10  HN  UNK N   1      22.341  11.546   9.190  1.00  0.00     0.174 HD
HETATM   11  H   UNK N   1      25.230  13.903   7.690  0.00  0.00     0.174 HD
HETATM   12  H   UNK N   1      25.542  12.878   8.996  0.00  0.00     0.174 HD
HETATM   13  H   UNK N   1      23.249  13.093   6.292  0.00  0.00     0.177 HD
ENDBRANCH   4   5
ENDBRANCH   3   4
ENDBRANCH   2   3
ENDBRANCH   1   2
BRANCH   1  14
HETATM   14  C   UNK N   1      19.319  15.630   4.248  0.00  0.00     0.135 C 
HETATM   15  N   UNK N   1      19.287  16.267   3.116  0.00  0.00    -0.361 N 
ATOM     16  HN  UNK N   1      18.390  16.211   2.633  1.00  0.00     0.162 HD
BRANCH  15  17
HETATM   17  C   UNK N   1      20.295  17.048   2.405  0.00  0.00     0.158 C 
BRANCH  17  18
HETATM   18  C   UNK N   1      20.188  18.538   2.747  0.00  0.00     0.044 C 
BRANCH  18  19
HETATM   19  C   UNK N   1      21.527  19.206   2.996  0.00  0.00     0.112 C 
BRANCH  19  20
HETATM   20  C   UNK N   1      21.587  20.458   2.183  0.00  0.00     0.139 C 
HETATM   21  O   UNK N   1      21.399  20.413   0.979  0.00  0.00    -0.650 OA
BRANCH  20  22
HETATM   22  O   UNK N   1      21.861  21.637   2.777  0.00  0.00    -0.776 OA
HETATM   23  H   UNK N   1      21.240  22.095   3.309  0.00  0.00     0.167 HD
ENDBRANCH  20  22
ENDBRANCH  19  20
ENDBRANCH  18  19
ENDBRANCH  17  18
BRANCH  17  24
HETATM   24  C   UNK N   1      20.333  16.781   0.906  0.00  0.00     0.135 C 
HETATM   25  N   UNK N   1      20.440  15.588   0.404  0.00  0.00    -0.358 N 
ATOM     26  HN  UNK N   1      20.479  15.516  -0.612  1.00  0.00     0.162 HD
BRANCH  25  27
HETATM   27  C   UNK N   1      20.508  14.340   1.154  0.00  0.00     0.181 C 
BRANCH  27  28
HETATM   28  C   UNK N   1      21.760  13.534   0.778  0.00  0.00     0.040 C 
BRANCH  28  29
HETATM   29  C   UNK N   1      23.118  14.199   1.057  0.00  0.00    -0.012 C 
HETATM   30  C   UNK N   1      24.336  13.356   0.650  0.00  0.00     0.005 C 
HETATM   31  C   UNK N   1      24.491  12.121   1.537  0.00  0.00     0.000 C 
HETATM   32  C   UNK N   1      24.608  12.534   2.998  0.00  0.00     0.000 C 
HETATM   33  C   UNK N   1      23.376  13.329   3.420  0.00  0.00     0.000 C 
HETATM   34  C   UNK N   1      23.224  14.573   2.538  0.00  0.00     0.005 C 
ENDBRANCH  28  29
ENDBRANCH  27  28
BRANCH  27  35
HETATM   35  C   UNK N   1      19.253  13.550   0.909  0.00  0.00     0.163 C 
HETATM   36  O   UNK N   1      19.239  12.661   0.073  0.00  0.00    -0.648 OA
BRANCH  35  37
HETATM   37  O   UNK N   1      18.141  13.815   1.619  0.00  0.00    -0.775 OA
HETATM   38  H   UNK N   1      17.875  13.518   2.467  0.00  0.00     0.167 HD
ENDBRANCH  35  37
ENDBRANCH  27  35
ENDBRANCH  25  27
BRANCH  24  39
HETATM   39  O   UNK N   1      20.268  17.825   0.056  0.00  0.00    -0.348 OA
HETATM   40  H   UNK N   1      19.884  18.503  -0.465  0.00  0.00     0.219 HD
ENDBRANCH  24  39
ENDBRANCH  17  24
ENDBRANCH  15  17
BRANCH  14  41
HETATM   41  O   UNK N   1      18.216  14.937   4.597  0.00  0.00    -0.348 OA
HETATM   42  H   UNK N   1      17.374  14.844   4.998  0.00  0.00     0.219 HD
ENDBRANCH  14  41
ENDBRANCH   1  14
BRANCH   1  43
HETATM   43  N   UNK N   1      20.903  16.869   5.686  0.00  0.00    -0.342 N 
HETATM   44  C   UNK N   1      22.137  17.344   6.029  0.00  0.00     0.290 C 
HETATM   45  O   UNK N   1      22.199  18.481   6.478  0.00  0.00    -0.264 OA
HETATM   46  H   UNK N   1      20.157  17.502   5.804  0.00  0.00     0.163 HD
BRANCH  44  47
HETATM   47  C   UNK N   1      23.421  16.567   5.891  0.00  0.00     0.238 C 
HETATM   48  O   UNK N   1      23.597  15.527   6.505  0.00  0.00    -0.285 OA
BRANCH  47  49
HETATM   49  C   UNK N   1      24.551  17.065   5.017  0.00  0.00     0.166 C 
BRANCH  49  50
HETATM   50  C   UNK N   1      25.879  16.337   5.276  0.00  0.00     0.038 C 
BRANCH  50  51
HETATM   51  C   UNK N   1      26.396  15.345   4.235  0.00  0.00    -0.012 C 
HETATM   52  C   UNK N   1      26.877  15.984   2.934  0.00  0.00     0.005 C 
HETATM   53  C   UNK N   1      27.297  14.878   1.967  0.00  0.00     0.000 C 
HETATM   54  C   UNK N   1      28.434  14.057   2.572  0.00  0.00     0.000 C 
HETATM   55  C   UNK N   1      28.010  13.454   3.909  0.00  0.00     0.000 C 
HETATM   56  C   UNK N   1      27.536  14.546   4.863  0.00  0.00     0.005 C 
ENDBRANCH  50  51
ENDBRANCH  49  50
BRANCH  49  57
HETATM   57  N   UNK N   1      24.753  18.464   5.356  0.00  0.00    -0.339 N 
HETATM   58  C   UNK N   1      25.706  19.272   5.010  0.00  0.00     0.259 C 
ATOM     59  HN  UNK N   1      24.037  18.871   5.957  1.00  0.00     0.164 HD
BRANCH  58  60
HETATM   60  O   UNK N   1      25.590  20.569   5.349  0.00  0.00    -0.327 OA
HETATM   61  H   UNK N   1      25.823  21.428   5.053  0.00  0.00     0.221 HD
ENDBRANCH  58  60
BRANCH  58  62
HETATM   62  O   UNK N   1      26.812  18.890   4.311  0.00  0.00    -0.312 OA
BRANCH  62  63
HETATM   63  C   UNK N   1      28.096  19.334   4.536  0.00  0.00     0.218 C 
BRANCH  63  64
HETATM   64  C   UNK N   1      28.910  18.267   5.192  0.00  0.00    -0.034 A 
HETATM   65  C   UNK N   1      28.766  18.023   6.561  0.00  0.00     0.009 A 
HETATM   66  C   UNK N   1      29.526  17.027   7.181  0.00  0.00     0.001 A 
HETATM   67  C   UNK N   1      30.429  16.269   6.431  0.00  0.00     0.000 A 
HETATM   68  C   UNK N   1      30.573  16.508   5.061  0.00  0.00     0.001 A 
HETATM   69  C   UNK N   1      29.815  17.507   4.440  0.00  0.00     0.009 A 
ENDBRANCH  63  64
ENDBRANCH  62  63
ENDBRANCH  58  62
ENDBRANCH  49  57
ENDBRANCH  47  49
ENDBRANCH  44  47
ENDBRANCH   1  43
TORSDOF 28
ENDMDL
MODEL 3
REMARK VINA RESULT:      -7.2      7.312     14.390
REMARK  28 active torsions:
REMARK  status: ('A' for Active; 'I' for Inactive)
REMARK    1  A    between atoms: C_17  and  C_10 
REMARK    2  A    between atoms: C_20  and  C_10 
REMARK    3  A    between atoms: C_27  and  C_17 
REMARK    4  A    between atoms: C_19  and  C_18 
REMARK    5  A    between atoms: C_28  and  C_18 
REMARK    6  A    between atoms: C_31  and  C_19 
REMARK    7  A    between atoms: N_42  and  C_20 
REMARK    8  A    between atoms: C_24  and  C_21 
REMARK    9  A    between atoms: C_29  and  C_21 
REMARK   10  A    between atoms: C_25  and  C_22 
REMARK   11  A    between atoms: C_30  and  C_22 
REMARK   12  A    between atoms: C_26  and  C_23 
REMARK   13  A    between atoms: O_59  and  C_23 
REMARK   14  A    between atoms: C_33  and  C_27 
REMARK   15  A    between atoms: C_27  and  N_45 
REMARK   16  A    between atoms: C_34  and  C_28 
REMARK   17  A    between atoms: C_28  and  N_43 
REMARK   18  A    between atoms: C_32  and  C_29 
REMARK   19  A    between atoms: C_29  and  N_48 
REMARK   20  A    between atoms: C_36  and  C_30 
REMARK   21  A    between atoms: C_30  and  N_46 
REMARK   22  A    between atoms: O_51  and  C_31 
REMARK   23  A    between atoms: C_35  and  C_32 
REMARK   24  A    between atoms: C_33  and  O_53 
REMARK   25  A    between atoms: C_34  and  O_54 
REMARK       I    between atoms: N_45  and  C_35 
REMARK   26  A    between atoms: O_57  and  C_36 
REMARK       I    between atoms: N_41  and  C_37 
REMARK       I    between atoms: N_42  and  C_37 
REMARK   27  A    between atoms: C_38  and  O_58 
REMARK   28  A    between atoms: O_59  and  C_38 
ROOT
HETATM    1  C   UNK N   1      23.613  17.610   5.131  0.00  0.00     0.159 C 
ENDROOT
BRANCH   1   2
HETATM    2  C   UNK N   1      24.428  16.406   5.628  0.00  0.00     0.035 C 
BRANCH   2   3
HETATM    3  C   UNK N   1      23.880  15.052   5.208  0.00  0.00     0.023 C 
BRANCH   3   4
HETATM    4  C   UNK N   1      24.935  14.167   4.588  0.00  0.00     0.138 C 
BRANCH   4   5
HETATM    5  N   UNK N   1      25.578  14.918   3.544  0.00  0.00    -0.227 N 
HETATM    6  C   UNK N   1      26.573  14.336   2.721  0.00  0.00     0.665 C 
HETATM    7  N   UNK N   1      26.869  13.092   2.834  0.00  0.00    -0.235 N 
HETATM    8  N   UNK N   1      27.309  15.150   1.836  0.00  0.00    -0.235 N 
HETATM    9  H   UNK N   1      27.663  12.540   2.650  0.00  0.00     0.174 HD
ATOM     10  HN  UNK N   1      26.094  12.542   3.205  1.00  0.00     0.174 HD
HETATM   11  H   UNK N   1      27.405  16.124   1.941  0.00  0.00     0.174 HD
HETATM   12  H   UNK N   1      27.751  14.720   1.067  0.00  0.00     0.174 HD
HETATM   13  H   UNK N   1      25.322  15.857   3.397  0.00  0.00     0.177 HD
ENDBRANCH   4   5
ENDBRANCH   3   4
ENDBRANCH   2   3
ENDBRANCH   1   2
BRANCH   1  14
HETATM   14  C   UNK N   1      22.198  17.594   5.703  0.00  0.00     0.135 C 
HETATM   15  N   UNK N   1      21.124  17.850   5.019  0.00  0.00    -0.361 N 
ATOM     16  HN  UNK N   1      20.262  17.795   5.562  1.00  0.00     0.162 HD
BRANCH  15  17
HETATM   17  C   UNK N   1      20.919  18.202   3.616  0.00  0.00     0.158 C 
BRANCH  17  18
HETATM   18  C   UNK N   1      21.055  19.711   3.395  0.00  0.00     0.044 C 
BRANCH  18  19
HETATM   19  C   UNK N   1      21.919  20.079   2.203  0.00  0.00     0.112 C 
BRANCH  19  20
HETATM   20  C   UNK N   1      21.027  20.551   1.102  0.00  0.00     0.139 C 
HETATM   21  O   UNK N   1      20.696  21.723   1.046  0.00  0.00    -0.650 OA
BRANCH  20  22
HETATM   22  O   UNK N   1      20.575  19.680   0.178  0.00  0.00    -0.776 OA
HETATM   23  H   UNK N   1      20.484  18.763   0.345  0.00  0.00     0.167 HD
ENDBRANCH  20  22
ENDBRANCH  19  20
ENDBRANCH  18  19
ENDBRANCH  17  18
BRANCH  17  24
HETATM   24  C   UNK N   1      19.641  17.623   3.020  0.00  0.00     0.135 C 
HETATM   25  N   UNK N   1      19.304  16.376   3.149  0.00  0.00    -0.358 N 
ATOM     26  HN  UNK N   1      18.441  16.082   2.693  1.00  0.00     0.162 HD
BRANCH  25  27
HETATM   27  C   UNK N   1      20.039  15.355   3.885  0.00  0.00     0.181 C 
BRANCH  27  28
HETATM   28  C   UNK N   1      20.376  14.157   2.985  0.00  0.00     0.040 C 
BRANCH  28  29
HETATM   29  C   UNK N   1      20.411  14.420   1.470  0.00  0.00    -0.012 C 
HETATM   30  C   UNK N   1      20.192  13.172   0.601  0.00  0.00     0.005 C 
HETATM   31  C   UNK N   1      21.369  12.201   0.700  0.00  0.00     0.000 C 
HETATM   32  C   UNK N   1      22.661  12.898   0.295  0.00  0.00     0.000 C 
HETATM   33  C   UNK N   1      22.907  14.109   1.189  0.00  0.00     0.000 C 
HETATM   34  C   UNK N   1      21.734  15.089   1.085  0.00  0.00     0.005 C 
ENDBRANCH  28  29
ENDBRANCH  27  28
BRANCH  27  35
HETATM   35  C   UNK N   1      19.233  14.934   5.080  0.00  0.00     0.163 C 
HETATM   36  O   UNK N   1      18.246  14.230   4.939  0.00  0.00    -0.648 OA
BRANCH  35  37
HETATM   37  O   UNK N   1      19.604  15.323   6.314  0.00  0.00    -0.775 OA
HETATM   38  H   UNK N   1      20.174  16.013   6.589  0.00  0.00     0.167 HD
ENDBRANCH  35  37
ENDBRANCH  27  35
ENDBRANCH  25  27
BRANCH  24  39
HETATM   39  O   UNK N   1      18.829  18.433   2.312  0.00  0.00    -0.348 OA
HETATM   40  H   UNK N   1      18.265  19.159   2.129  0.00  0.00     0.219 HD
ENDBRANCH  24  39
ENDBRANCH  17  24
ENDBRANCH  15  17
BRANCH  14  41
HETATM   41  O   UNK N   1      22.036  17.230   6.991  0.00  0.00    -0.348 OA
HETATM   42  H   UNK N   1      21.534  17.107   7.773  0.00  0.00     0.219 HD
ENDBRANCH  14  41
ENDBRANCH   1  14
BRANCH   1  43
HETATM   43  N   UNK N   1      24.287  18.876   5.384  0.00  0.00    -0.342 N 
HETATM   44  C   UNK N   1      25.611  19.188   5.250  0.00  0.00     0.290 C 
HETATM   45  O   UNK N   1      25.956  20.322   5.554  0.00  0.00    -0.264 OA
HETATM   46  H   UNK N   1      23.707  19.610   5.693  0.00  0.00     0.163 HD
BRANCH  44  47
HETATM   47  C   UNK N   1      26.668  18.236   4.752  0.00  0.00     0.238 C 
HETATM   48  O   UNK N   1      26.570  17.702   3.659  0.00  0.00    -0.285 OA
BRANCH  47  49
HETATM   49  C   UNK N   1      27.868  17.879   5.602  0.00  0.00     0.166 C 
BRANCH  49  50
HETATM   50  C   UNK N   1      28.389  16.458   5.342  0.00  0.00     0.038 C 
BRANCH  50  51
HETATM   51  C   UNK N   1      29.874  16.254   5.045  0.00  0.00    -0.012 C 
HETATM   52  C   UNK N   1      30.169  15.198   3.983  0.00  0.00     0.005 C 
HETATM   53  C   UNK N   1      31.684  15.052   3.841  0.00  0.00     0.000 C 
HETATM   54  C   UNK N   1      32.301  16.381   3.410  0.00  0.00     0.000 C 
HETATM   55  C   UNK N   1      31.971  17.479   4.419  0.00  0.00     0.000 C 
HETATM   56  C   UNK N   1      30.461  17.595   4.610  0.00  0.00     0.005 C 
ENDBRANCH  50  51
ENDBRANCH  49  50
BRANCH  49  57
HETATM   57  N   UNK N   1      27.427  17.930   6.986  0.00  0.00    -0.339 N 
HETATM   58  C   UNK N   1      28.094  17.722   8.077  0.00  0.00     0.259 C 
ATOM     59  HN  UNK N   1      26.443  18.165   7.118  1.00  0.00     0.164 HD
BRANCH  58  60
HETATM   60  O   UNK N   1      27.482  17.967   9.250  0.00  0.00    -0.327 OA
HETATM   61  H   UNK N   1      26.700  18.343   9.604  0.00  0.00     0.221 HD
ENDBRANCH  58  60
BRANCH  58  62
HETATM   62  O   UNK N   1      29.384  17.284   8.109  0.00  0.00    -0.312 OA
BRANCH  62  63
HETATM   63  C   UNK N   1      30.441  17.943   8.698  0.00  0.00     0.218 C 
BRANCH  63  64
HETATM   64  C   UNK N   1      31.740  17.405   8.193  0.00  0.00    -0.034 A 
HETATM   65  C   UNK N   1      31.860  16.045   7.893  0.00  0.00     0.009 A 
HETATM   66  C   UNK N   1      33.073  15.534   7.423  0.00  0.00     0.001 A 
HETATM   67  C   UNK N   1      34.167  16.385   7.246  0.00  0.00     0.000 A 
HETATM   68  C   UNK N   1      34.049  17.746   7.541  0.00  0.00     0.001 A 
HETATM   69  C   UNK N   1      32.837  18.257   8.016  0.00  0.00     0.009 A 
ENDBRANCH  63  64
ENDBRANCH  62  63
ENDBRANCH  58  62
ENDBRANCH  49  57
ENDBRANCH  47  49
ENDBRANCH  44  47
ENDBRANCH   1  43
TORSDOF 28
ENDMDL
MODEL 4
REMARK VINA RESULT:      -6.8      1.917      3.016
REMARK  28 active torsions:
REMARK  status: ('A' for Active; 'I' for Inactive)
REMARK    1  A    between atoms: C_17  and  C_10 
REMARK    2  A    between atoms: C_20  and  C_10 
REMARK    3  A    between atoms: C_27  and  C_17 
REMARK    4  A    between atoms: C_19  and  C_18 
REMARK    5  A    between atoms: C_28  and  C_18 
REMARK    6  A    between atoms: C_31  and  C_19 
REMARK    7  A    between atoms: N_42  and  C_20 
REMARK    8  A    between atoms: C_24  and  C_21 
REMARK    9  A    between atoms: C_29  and  C_21 
REMARK   10  A    between atoms: C_25  and  C_22 
REMARK   11  A    between atoms: C_30  and  C_22 
REMARK   12  A    between atoms: C_26  and  C_23 
REMARK   13  A    between atoms: O_59  and  C_23 
REMARK   14  A    between atoms: C_33  and  C_27 
REMARK   15  A    between atoms: C_27  and  N_45 
REMARK   16  A    between atoms: C_34  and  C_28 
REMARK   17  A    between atoms: C_28  and  N_43 
REMARK   18  A    between atoms: C_32  and  C_29 
REMARK   19  A    between atoms: C_29  and  N_48 
REMARK   20  A    between atoms: C_36  and  C_30 
REMARK   21  A    between atoms: C_30  and  N_46 
REMARK   22  A    between atoms: O_51  and  C_31 
REMARK   23  A    between atoms: C_35  and  C_32 
REMARK   24  A    between atoms: C_33  and  O_53 
REMARK   25  A    between atoms: C_34  and  O_54 
REMARK       I    between atoms: N_45  and  C_35 
REMARK   26  A    between atoms: O_57  and  C_36 
REMARK       I    between atoms: N_41  and  C_37 
REMARK       I    between atoms: N_42  and  C_37 
REMARK   27  A    between atoms: C_38  and  O_58 
REMARK   28  A    between atoms: O_59  and  C_38 
ROOT
HETATM    1  C   UNK N   1      36.943  13.712   9.976  0.00  0.00     0.159 C 
ENDROOT
BRANCH   1   2
HETATM    2  C   UNK N   1      37.189  13.474   8.478  0.00  0.00     0.035 C 
BRANCH   2   3
HETATM    3  C   UNK N   1      36.832  12.079   7.989  0.00  0.00     0.023 C 
BRANCH   3   4
HETATM    4  C   UNK N   1      37.613  11.678   6.761  0.00  0.00     0.138 C 
BRANCH   4   5
HETATM    5  N   UNK N   1      38.915  12.280   6.854  0.00  0.00    -0.227 N 
HETATM    6  C   UNK N   1      40.085  11.494   6.993  0.00  0.00     0.665 C 
HETATM    7  N   UNK N   1      40.019  10.212   6.959  0.00  0.00    -0.235 N 
HETATM    8  N   UNK N   1      41.318  12.122   7.266  0.00  0.00    -0.235 N 
HETATM    9  H   UNK N   1      40.557   9.472   7.320  0.00  0.00     0.174 HD
ATOM     10  HN  UNK N   1      39.212   9.882   6.428  1.00  0.00     0.174 HD
HETATM   11  H   UNK N   1      41.398  13.021   7.659  0.00  0.00     0.174 HD
HETATM   12  H   UNK N   1      42.146  11.633   7.050  0.00  0.00     0.174 HD
HETATM   13  H   UNK N   1      38.996  13.261   6.819  0.00  0.00     0.177 HD
ENDBRANCH   4   5
ENDBRANCH   3   4
ENDBRANCH   2   3
ENDBRANCH   1   2
BRANCH   1  14
HETATM   14  C   UNK N   1      37.969  12.971  10.829  0.00  0.00     0.135 C 
HETATM   15  N   UNK N   1      37.707  11.931  11.560  0.00  0.00    -0.361 N 
ATOM     16  HN  UNK N   1      38.512  11.565  12.067  1.00  0.00     0.162 HD
BRANCH  15  17
HETATM   17  C   UNK N   1      36.472  11.186  11.793  0.00  0.00     0.158 C 
BRANCH  17  18
HETATM   18  C   UNK N   1      36.222  10.161  10.681  0.00  0.00     0.044 C 
BRANCH  18  19
HETATM   19  C   UNK N   1      37.119   8.941  10.762  0.00  0.00     0.112 C 
BRANCH  19  20
HETATM   20  C   UNK N   1      38.175   9.062   9.712  0.00  0.00     0.139 C 
HETATM   21  O   UNK N   1      38.034   8.503   8.639  0.00  0.00    -0.650 OA
BRANCH  20  22
HETATM   22  O   UNK N   1      39.290   9.779   9.955  0.00  0.00    -0.776 OA
HETATM   23  H   UNK N   1      40.086   9.662   9.475  0.00  0.00     0.167 HD
ENDBRANCH  20  22
ENDBRANCH  19  20
ENDBRANCH  18  19
ENDBRANCH  17  18
BRANCH  17  24
HETATM   24  C   UNK N   1      35.264  12.073  12.070  0.00  0.00     0.135 C 
HETATM   25  N   UNK N   1      35.157  12.807  13.135  0.00  0.00    -0.358 N 
ATOM     26  HN  UNK N   1      34.299  13.348  13.239  1.00  0.00     0.162 HD
BRANCH  25  27
HETATM   27  C   UNK N   1      36.147  12.935  14.197  0.00  0.00     0.181 C 
BRANCH  27  28
HETATM   28  C   UNK N   1      35.608  12.385  15.527  0.00  0.00     0.040 C 
BRANCH  28  29
HETATM   29  C   UNK N   1      36.528  11.425  16.300  0.00  0.00    -0.012 C 
HETATM   30  C   UNK N   1      37.155  10.315  15.443  0.00  0.00     0.005 C 
HETATM   31  C   UNK N   1      36.108   9.308  14.967  0.00  0.00     0.000 C 
HETATM   32  C   UNK N   1      35.384   8.699  16.161  0.00  0.00     0.000 C 
HETATM   33  C   UNK N   1      34.718   9.796  16.987  0.00  0.00     0.000 C 
HETATM   34  C   UNK N   1      35.766  10.801  17.473  0.00  0.00     0.005 C 
ENDBRANCH  28  29
ENDBRANCH  27  28
BRANCH  27  35
HETATM   35  C   UNK N   1      36.550  14.377  14.323  0.00  0.00     0.163 C 
HETATM   36  O   UNK N   1      37.046  14.789  15.359  0.00  0.00    -0.648 OA
BRANCH  35  37
HETATM   37  O   UNK N   1      36.373  15.218  13.288  0.00  0.00    -0.775 OA
HETATM   38  H   UNK N   1      36.663  16.101  13.164  0.00  0.00     0.167 HD
ENDBRANCH  35  37
ENDBRANCH  27  35
ENDBRANCH  25  27
BRANCH  24  39
HETATM   39  O   UNK N   1      34.251  12.088  11.181  0.00  0.00    -0.348 OA
HETATM   40  H   UNK N   1      33.782  11.909  10.389  0.00  0.00     0.219 HD
ENDBRANCH  24  39
ENDBRANCH  17  24
ENDBRANCH  15  17
BRANCH  14  41
HETATM   41  O   UNK N   1      39.253  13.381  10.780  0.00  0.00    -0.348 OA
HETATM   42  H   UNK N   1      40.075  13.521  10.351  0.00  0.00     0.219 HD
ENDBRANCH  14  41
ENDBRANCH   1  14
BRANCH   1  43
HETATM   43  N   UNK N   1      36.880  15.128  10.307  0.00  0.00    -0.342 N 
HETATM   44  C   UNK N   1      35.783  15.930  10.451  0.00  0.00     0.290 C 
HETATM   45  O   UNK N   1      35.977  17.111  10.705  0.00  0.00    -0.264 OA
HETATM   46  H   UNK N   1      37.749  15.569  10.449  0.00  0.00     0.163 HD
BRANCH  44  47
HETATM   47  C   UNK N   1      34.356  15.460  10.324  0.00  0.00     0.238 C 
HETATM   48  O   UNK N   1      33.788  14.913  11.255  0.00  0.00    -0.285 OA
BRANCH  47  49
HETATM   49  C   UNK N   1      33.591  15.616   9.028  0.00  0.00     0.166 C 
BRANCH  49  50
HETATM   50  C   UNK N   1      34.502  15.865   7.817  0.00  0.00     0.038 C 
BRANCH  50  51
HETATM   51  C   UNK N   1      34.278  15.054   6.541  0.00  0.00    -0.012 C 
HETATM   52  C   UNK N   1      35.535  14.829   5.704  0.00  0.00     0.005 C 
HETATM   53  C   UNK N   1      35.152  14.071   4.434  0.00  0.00     0.000 C 
HETATM   54  C   UNK N   1      34.543  12.718   4.794  0.00  0.00     0.000 C 
HETATM   55  C   UNK N   1      33.318  12.900   5.687  0.00  0.00     0.000 C 
HETATM   56  C   UNK N   1      33.677  13.706   6.932  0.00  0.00     0.005 C 
ENDBRANCH  50  51
ENDBRANCH  49  50
BRANCH  49  57
HETATM   57  N   UNK N   1      32.748  16.790   9.182  0.00  0.00    -0.339 N 
HETATM   58  C   UNK N   1      31.602  17.066   8.642  0.00  0.00     0.259 C 
ATOM     59  HN  UNK N   1      33.114  17.505   9.811  1.00  0.00     0.164 HD
BRANCH  58  60
HETATM   60  O   UNK N   1      30.956  18.171   9.058  0.00  0.00    -0.327 OA
HETATM   61  H   UNK N   1      30.104  18.562   9.067  0.00  0.00     0.221 HD
ENDBRANCH  58  60
BRANCH  58  62
HETATM   62  O   UNK N   1      31.005  16.296   7.690  0.00  0.00    -0.312 OA
BRANCH  62  63
HETATM   63  C   UNK N   1      30.322  16.767   6.589  0.00  0.00     0.218 C 
BRANCH  63  64
HETATM   64  C   UNK N   1      31.132  16.573   5.350  0.00  0.00    -0.034 A 
HETATM   65  C   UNK N   1      32.108  17.511   5.000  0.00  0.00     0.009 A 
HETATM   66  C   UNK N   1      32.867  17.337   3.841  0.00  0.00     0.001 A 
HETATM   67  C   UNK N   1      32.656  16.219   3.029  0.00  0.00     0.000 A 
HETATM   68  C   UNK N   1      31.684  15.276   3.377  0.00  0.00     0.001 A 
HETATM   69  C   UNK N   1      30.921  15.452   4.536  0.00  0.00     0.009 A 
ENDBRANCH  63  64
ENDBRANCH  62  63
ENDBRANCH  58  62
ENDBRANCH  49  57
ENDBRANCH  47  49
ENDBRANCH  44  47
ENDBRANCH   1  43
TORSDOF 28
ENDMDL
MODEL 5
REMARK VINA RESULT:      -6.8      2.626      4.102
REMARK  28 active torsions:
REMARK  status: ('A' for Active; 'I' for Inactive)
REMARK    1  A    between atoms: C_17  and  C_10 
REMARK    2  A    between atoms: C_20  and  C_10 
REMARK    3  A    between atoms: C_27  and  C_17 
REMARK    4  A    between atoms: C_19  and  C_18 
REMARK    5  A    between atoms: C_28  and  C_18 
REMARK    6  A    between atoms: C_31  and  C_19 
REMARK    7  A    between atoms: N_42  and  C_20 
REMARK    8  A    between atoms: C_24  and  C_21 
REMARK    9  A    between atoms: C_29  and  C_21 
REMARK   10  A    between atoms: C_25  and  C_22 
REMARK   11  A    between atoms: C_30  and  C_22 
REMARK   12  A    between atoms: C_26  and  C_23 
REMARK   13  A    between atoms: O_59  and  C_23 
REMARK   14  A    between atoms: C_33  and  C_27 
REMARK   15  A    between atoms: C_27  and  N_45 
REMARK   16  A    between atoms: C_34  and  C_28 
REMARK   17  A    between atoms: C_28  and  N_43 
REMARK   18  A    between atoms: C_32  and  C_29 
REMARK   19  A    between atoms: C_29  and  N_48 
REMARK   20  A    between atoms: C_36  and  C_30 
REMARK   21  A    between atoms: C_30  and  N_46 
REMARK   22  A    between atoms: O_51  and  C_31 
REMARK   23  A    between atoms: C_35  and  C_32 
REMARK   24  A    between atoms: C_33  and  O_53 
REMARK   25  A    between atoms: C_34  and  O_54 
REMARK       I    between atoms: N_45  and  C_35 
REMARK   26  A    between atoms: O_57  and  C_36 
REMARK       I    between atoms: N_41  and  C_37 
REMARK       I    between atoms: N_42  and  C_37 
REMARK   27  A    between atoms: C_38  and  O_58 
REMARK   28  A    between atoms: O_59  and  C_38 
ROOT
HETATM    1  C   UNK N   1      34.619  14.357   6.747  0.00  0.00     0.159 C 
ENDROOT
BRANCH   1   2
HETATM    2  C   UNK N   1      34.057  13.653   5.502  0.00  0.00     0.035 C 
BRANCH   2   3
HETATM    3  C   UNK N   1      34.437  14.299   4.180  0.00  0.00     0.023 C 
BRANCH   3   4
HETATM    4  C   UNK N   1      34.144  13.411   2.995  0.00  0.00     0.138 C 
BRANCH   4   5
HETATM    5  N   UNK N   1      34.341  14.191   1.803  0.00  0.00    -0.227 N 
HETATM    6  C   UNK N   1      35.440  13.956   0.940  0.00  0.00     0.665 C 
HETATM    7  N   UNK N   1      36.247  12.982   1.160  0.00  0.00    -0.235 N 
HETATM    8  N   UNK N   1      35.702  14.855  -0.113  0.00  0.00    -0.235 N 
HETATM    9  H   UNK N   1      37.189  12.789   0.947  0.00  0.00     0.174 HD
ATOM     10  HN  UNK N   1      35.804  12.224   1.680  1.00  0.00     0.174 HD
HETATM   11  H   UNK N   1      35.378  15.785  -0.132  0.00  0.00     0.174 HD
HETATM   12  H   UNK N   1      36.240  14.535  -0.874  0.00  0.00     0.174 HD
HETATM   13  H   UNK N   1      33.699  14.903   1.581  0.00  0.00     0.177 HD
ENDBRANCH   4   5
ENDBRANCH   3   4
ENDBRANCH   2   3
ENDBRANCH   1   2
BRANCH   1  14
HETATM   14  C   UNK N   1      35.874  13.654   7.258  0.00  0.00     0.135 C 
HETATM   15  N   UNK N   1      35.878  12.712   8.152  0.00  0.00    -0.361 N 
ATOM     16  HN  UNK N   1      36.807  12.357   8.378  1.00  0.00     0.162 HD
BRANCH  15  17
HETATM   17  C   UNK N   1      34.800  12.065   8.896  0.00  0.00     0.158 C 
BRANCH  17  18
HETATM   18  C   UNK N   1      34.075  11.026   8.034  0.00  0.00     0.044 C 
BRANCH  18  19
HETATM   19  C   UNK N   1      33.945   9.667   8.694  0.00  0.00     0.112 C 
BRANCH  19  20
HETATM   20  C   UNK N   1      32.495   9.395   8.930  0.00  0.00     0.139 C 
HETATM   21  O   UNK N   1      31.758  10.293   9.297  0.00  0.00    -0.650 OA
BRANCH  20  22
HETATM   22  O   UNK N   1      32.003   8.153   8.748  0.00  0.00    -0.776 OA
HETATM   23  H   UNK N   1      31.751   7.597   9.458  0.00  0.00     0.167 HD
ENDBRANCH  20  22
ENDBRANCH  19  20
ENDBRANCH  18  19
ENDBRANCH  17  18
BRANCH  17  24
HETATM   24  C   UNK N   1      33.851  13.044   9.576  0.00  0.00     0.135 C 
HETATM   25  N   UNK N   1      34.197  13.769  10.596  0.00  0.00    -0.358 N 
ATOM     26  HN  UNK N   1      33.482  14.377  10.994  1.00  0.00     0.162 HD
BRANCH  25  27
HETATM   27  C   UNK N   1      35.510  13.800  11.227  0.00  0.00     0.181 C 
BRANCH  27  28
HETATM   28  C   UNK N   1      35.399  13.612  12.748  0.00  0.00     0.040 C 
BRANCH  28  29
HETATM   29  C   UNK N   1      36.012  12.327  13.331  0.00  0.00    -0.012 C 
HETATM   30  C   UNK N   1      35.612  11.040  12.595  0.00  0.00     0.005 C 
HETATM   31  C   UNK N   1      34.133  10.710  12.797  0.00  0.00     0.000 C 
HETATM   32  C   UNK N   1      33.820  10.580  14.282  0.00  0.00     0.000 C 
HETATM   33  C   UNK N   1      34.171  11.876  15.007  0.00  0.00     0.000 C 
HETATM   34  C   UNK N   1      35.654  12.204  14.815  0.00  0.00     0.005 C 
ENDBRANCH  28  29
ENDBRANCH  27  28
BRANCH  27  35
HETATM   35  C   UNK N   1      36.192  15.093  10.882  0.00  0.00     0.163 C 
HETATM   36  O   UNK N   1      37.157  15.100  10.137  0.00  0.00    -0.648 OA
BRANCH  35  37
HETATM   37  O   UNK N   1      35.732  16.252  11.388  0.00  0.00    -0.775 OA
HETATM   38  H   UNK N   1      36.193  17.008  11.696  0.00  0.00     0.167 HD
ENDBRANCH  35  37
ENDBRANCH  27  35
ENDBRANCH  25  27
BRANCH  24  39
HETATM   39  O   UNK N   1      32.590  13.156   9.113  0.00  0.00    -0.348 OA
HETATM   40  H   UNK N   1      31.891  13.389   8.533  0.00  0.00     0.219 HD
ENDBRANCH  24  39
ENDBRANCH  17  24
ENDBRANCH  15  17
BRANCH  14  41
HETATM   41  O   UNK N   1      37.059  13.985   6.707  0.00  0.00    -0.348 OA
HETATM   42  H   UNK N   1      37.865  13.793   6.269  0.00  0.00     0.219 HD
ENDBRANCH  14  41
ENDBRANCH   1  14
BRANCH   1  43
HETATM   43  N   UNK N   1      34.844  15.778   6.523  0.00  0.00    -0.342 N 
HETATM   44  C   UNK N   1      34.267  16.849   7.147  0.00  0.00     0.290 C 
HETATM   45  O   UNK N   1      34.593  17.965   6.766  0.00  0.00    -0.264 OA
HETATM   46  H   UNK N   1      35.505  15.998   5.827  0.00  0.00     0.163 HD
BRANCH  44  47
HETATM   47  C   UNK N   1      33.265  16.748   8.268  0.00  0.00     0.238 C 
HETATM   48  O   UNK N   1      33.624  16.545   9.416  0.00  0.00    -0.285 OA
BRANCH  47  49
HETATM   49  C   UNK N   1      31.779  16.859   8.006  0.00  0.00     0.166 C 
BRANCH  49  50
HETATM   50  C   UNK N   1      31.454  17.465   6.633  0.00  0.00     0.038 C 
BRANCH  50  51
HETATM   51  C   UNK N   1      30.813  16.579   5.565  0.00  0.00    -0.012 C 
HETATM   52  C   UNK N   1      31.517  16.611   4.210  0.00  0.00     0.005 C 
HETATM   53  C   UNK N   1      30.734  15.741   3.227  0.00  0.00     0.000 C 
HETATM   54  C   UNK N   1      30.681  14.300   3.729  0.00  0.00     0.000 C 
HETATM   55  C   UNK N   1      30.039  14.237   5.114  0.00  0.00     0.000 C 
HETATM   56  C   UNK N   1      30.781  15.146   6.090  0.00  0.00     0.005 C 
ENDBRANCH  50  51
ENDBRANCH  49  50
BRANCH  49  57
HETATM   57  N   UNK N   1      31.246  17.762   9.013  0.00  0.00    -0.339 N 
HETATM   58  C   UNK N   1      30.018  18.084   9.272  0.00  0.00     0.259 C 
ATOM     59  HN  UNK N   1      31.946  18.211   9.604  1.00  0.00     0.164 HD
BRANCH  58  60
HETATM   60  O   UNK N   1      29.778  18.845  10.355  0.00  0.00    -0.327 OA
HETATM   61  H   UNK N   1      30.046  19.646  10.763  0.00  0.00     0.221 HD
ENDBRANCH  58  60
BRANCH  58  62
HETATM   62  O   UNK N   1      28.952  17.684   8.523  0.00  0.00    -0.312 OA
BRANCH  62  63
HETATM   63  C   UNK N   1      28.055  18.519   7.893  0.00  0.00     0.218 C 
BRANCH  63  64
HETATM   64  C   UNK N   1      27.800  18.055   6.497  0.00  0.00    -0.034 A 
HETATM   65  C   UNK N   1      27.268  16.781   6.272  0.00  0.00     0.009 A 
HETATM   66  C   UNK N   1      27.029  16.340   4.968  0.00  0.00     0.001 A 
HETATM   67  C   UNK N   1      27.317  17.175   3.885  0.00  0.00     0.000 A 
HETATM   68  C   UNK N   1      27.845  18.450   4.106  0.00  0.00     0.001 A 
HETATM   69  C   UNK N   1      28.088  18.891   5.411  0.00  0.00     0.009 A 
ENDBRANCH  63  64
ENDBRANCH  62  63
ENDBRANCH  58  62
ENDBRANCH  49  57
ENDBRANCH  47  49
ENDBRANCH  44  47
ENDBRANCH   1  43
TORSDOF 28
ENDMDL
MODEL 6
REMARK VINA RESULT:      -6.8      8.005     14.757
REMARK  28 active torsions:
REMARK  status: ('A' for Active; 'I' for Inactive)
REMARK    1  A    between atoms: C_17  and  C_10 
REMARK    2  A    between atoms: C_20  and  C_10 
REMARK    3  A    between atoms: C_27  and  C_17 
REMARK    4  A    between atoms: C_19  and  C_18 
REMARK    5  A    between atoms: C_28  and  C_18 
REMARK    6  A    between atoms: C_31  and  C_19 
REMARK    7  A    between atoms: N_42  and  C_20 
REMARK    8  A    between atoms: C_24  and  C_21 
REMARK    9  A    between atoms: C_29  and  C_21 
REMARK   10  A    between atoms: C_25  and  C_22 
REMARK   11  A    between atoms: C_30  and  C_22 
REMARK   12  A    between atoms: C_26  and  C_23 
REMARK   13  A    between atoms: O_59  and  C_23 
REMARK   14  A    between atoms: C_33  and  C_27 
REMARK   15  A    between atoms: C_27  and  N_45 
REMARK   16  A    between atoms: C_34  and  C_28 
REMARK   17  A    between atoms: C_28  and  N_43 
REMARK   18  A    between atoms: C_32  and  C_29 
REMARK   19  A    between atoms: C_29  and  N_48 
REMARK   20  A    between atoms: C_36  and  C_30 
REMARK   21  A    between atoms: C_30  and  N_46 
REMARK   22  A    between atoms: O_51  and  C_31 
REMARK   23  A    between atoms: C_35  and  C_32 
REMARK   24  A    between atoms: C_33  and  O_53 
REMARK   25  A    between atoms: C_34  and  O_54 
REMARK       I    between atoms: N_45  and  C_35 
REMARK   26  A    between atoms: O_57  and  C_36 
REMARK       I    between atoms: N_41  and  C_37 
REMARK       I    between atoms: N_42  and  C_37 
REMARK   27  A    between atoms: C_38  and  O_58 
REMARK   28  A    between atoms: O_59  and  C_38 
ROOT
HETATM    1  C   UNK N   1      23.315  17.878   5.162  0.00  0.00     0.159 C 
ENDROOT
BRANCH   1   2
HETATM    2  C   UNK N   1      24.145  18.961   4.456  0.00  0.00     0.035 C 
BRANCH   2   3
HETATM    3  C   UNK N   1      25.428  18.460   3.813  0.00  0.00     0.023 C 
BRANCH   3   4
HETATM    4  C   UNK N   1      26.653  19.173   4.332  0.00  0.00     0.138 C 
BRANCH   4   5
HETATM    5  N   UNK N   1      26.589  19.166   5.768  0.00  0.00    -0.227 N 
HETATM    6  C   UNK N   1      26.911  20.318   6.527  0.00  0.00     0.665 C 
HETATM    7  N   UNK N   1      27.192  21.427   5.945  0.00  0.00    -0.235 N 
HETATM    8  N   UNK N   1      27.015  20.220   7.930  0.00  0.00    -0.235 N 
HETATM    9  H   UNK N   1      27.721  22.225   6.173  0.00  0.00     0.174 HD
ATOM     10  HN  UNK N   1      26.763  21.498   5.022  1.00  0.00     0.174 HD
HETATM   11  H   UNK N   1      27.176  19.375   8.409  0.00  0.00     0.174 HD
HETATM   12  H   UNK N   1      26.922  21.044   8.461  0.00  0.00     0.174 HD
HETATM   13  H   UNK N   1      26.314  18.344   6.234  0.00  0.00     0.177 HD
ENDBRANCH   4   5
ENDBRANCH   3   4
ENDBRANCH   2   3
ENDBRANCH   1   2
BRANCH   1  14
HETATM   14  C   UNK N   1      21.872  18.332   5.365  0.00  0.00     0.135 C 
HETATM   15  N   UNK N   1      20.972  18.365   4.428  0.00  0.00    -0.361 N 
ATOM     16  HN  UNK N   1      20.060  18.698   4.740  1.00  0.00     0.162 HD
BRANCH  15  17
HETATM   17  C   UNK N   1      21.022  18.013   3.011  0.00  0.00     0.158 C 
BRANCH  17  18
HETATM   18  C   UNK N   1      21.526  19.186   2.164  0.00  0.00     0.044 C 
BRANCH  18  19
HETATM   19  C   UNK N   1      20.719  20.458   2.339  0.00  0.00     0.112 C 
BRANCH  19  20
HETATM   20  C   UNK N   1      20.724  21.200   1.042  0.00  0.00     0.139 C 
HETATM   21  O   UNK N   1      21.023  20.623   0.011  0.00  0.00    -0.650 OA
BRANCH  20  22
HETATM   22  O   UNK N   1      20.411  22.510   1.012  0.00  0.00    -0.776 OA
HETATM   23  H   UNK N   1      19.776  22.869   0.423  0.00  0.00     0.167 HD
ENDBRANCH  20  22
ENDBRANCH  19  20
ENDBRANCH  18  19
ENDBRANCH  17  18
BRANCH  17  24
HETATM   24  C   UNK N   1      19.726  17.409   2.484  0.00  0.00     0.135 C 
HETATM   25  N   UNK N   1      19.371  16.183   2.723  0.00  0.00    -0.358 N 
ATOM     26  HN  UNK N   1      18.496  15.867   2.305  1.00  0.00     0.162 HD
BRANCH  25  27
HETATM   27  C   UNK N   1      20.101  15.215   3.531  0.00  0.00     0.181 C 
BRANCH  27  28
HETATM   28  C   UNK N   1      20.277  13.886   2.782  0.00  0.00     0.040 C 
BRANCH  28  29
HETATM   29  C   UNK N   1      20.355  13.964   1.247  0.00  0.00    -0.012 C 
HETATM   30  C   UNK N   1      20.148  12.622   0.529  0.00  0.00     0.005 C 
HETATM   31  C   UNK N   1      21.313  11.663   0.777  0.00  0.00     0.000 C 
HETATM   32  C   UNK N   1      22.622  12.298   0.327  0.00  0.00     0.000 C 
HETATM   33  C   UNK N   1      22.855  13.607   1.076  0.00  0.00     0.000 C 
HETATM   34  C   UNK N   1      21.694  14.574   0.822  0.00  0.00     0.005 C 
ENDBRANCH  28  29
ENDBRANCH  27  28
BRANCH  27  35
HETATM   35  C   UNK N   1      19.378  15.018   4.834  0.00  0.00     0.163 C 
HETATM   36  O   UNK N   1      18.416  14.271   4.897  0.00  0.00    -0.648 OA
BRANCH  35  37
HETATM   37  O   UNK N   1      19.799  15.658   5.940  0.00  0.00    -0.775 OA
HETATM   38  H   UNK N   1      19.370  15.802   6.761  0.00  0.00     0.167 HD
ENDBRANCH  35  37
ENDBRANCH  27  35
ENDBRANCH  25  27
BRANCH  24  39
HETATM   39  O   UNK N   1      18.916  18.171   1.722  0.00  0.00    -0.348 OA
HETATM   40  H   UNK N   1      18.392  18.421   0.986  0.00  0.00     0.219 HD
ENDBRANCH  24  39
ENDBRANCH  17  24
ENDBRANCH  15  17
BRANCH  14  41
HETATM   41  O   UNK N   1      21.477  18.667   6.610  0.00  0.00    -0.348 OA
HETATM   42  H   UNK N   1      21.368  18.510   7.527  0.00  0.00     0.219 HD
ENDBRANCH  14  41
ENDBRANCH   1  14
BRANCH   1  43
HETATM   43  N   UNK N   1      23.391  16.593   4.483  0.00  0.00    -0.342 N 
HETATM   44  C   UNK N   1      24.061  15.461   4.854  0.00  0.00     0.290 C 
HETATM   45  O   UNK N   1      24.004  14.499   4.099  0.00  0.00    -0.264 OA
HETATM   46  H   UNK N   1      22.887  16.530   3.638  0.00  0.00     0.163 HD
BRANCH  44  47
HETATM   47  C   UNK N   1      24.857  15.317   6.125  0.00  0.00     0.238 C 
HETATM   48  O   UNK N   1      24.337  14.909   7.151  0.00  0.00    -0.285 OA
BRANCH  47  49
HETATM   49  C   UNK N   1      26.318  15.705   6.185  0.00  0.00     0.166 C 
BRANCH  49  50
HETATM   50  C   UNK N   1      27.265  14.539   5.864  0.00  0.00     0.038 C 
BRANCH  50  51
HETATM   51  C   UNK N   1      27.593  14.230   4.404  0.00  0.00    -0.012 C 
HETATM   52  C   UNK N   1      27.381  15.400   3.446  0.00  0.00     0.005 C 
HETATM   53  C   UNK N   1      27.678  14.931   2.022  0.00  0.00     0.000 C 
HETATM   54  C   UNK N   1      29.125  14.454   1.918  0.00  0.00     0.000 C 
HETATM   55  C   UNK N   1      29.391  13.324   2.910  0.00  0.00     0.000 C 
HETATM   56  C   UNK N   1      29.045  13.765   4.329  0.00  0.00     0.005 C 
ENDBRANCH  50  51
ENDBRANCH  49  50
BRANCH  49  57
HETATM   57  N   UNK N   1      26.584  16.111   7.556  0.00  0.00    -0.339 N 
HETATM   58  C   UNK N   1      27.510  16.886   8.027  0.00  0.00     0.259 C 
ATOM     59  HN  UNK N   1      25.944  15.728   8.252  1.00  0.00     0.164 HD
BRANCH  58  60
HETATM   60  O   UNK N   1      27.457  17.216   9.330  0.00  0.00    -0.327 OA
HETATM   61  H   UNK N   1      27.470  17.961   9.899  0.00  0.00     0.221 HD
ENDBRANCH  58  60
BRANCH  58  62
HETATM   62  O   UNK N   1      28.526  17.400   7.278  0.00  0.00    -0.312 OA
BRANCH  62  63
HETATM   63  C   UNK N   1      29.866  17.341   7.595  0.00  0.00     0.218 C 
BRANCH  63  64
HETATM   64  C   UNK N   1      30.691  17.226   6.356  0.00  0.00    -0.034 A 
HETATM   65  C   UNK N   1      30.071  17.232   5.102  0.00  0.00     0.009 A 
HETATM   66  C   UNK N   1      30.837  17.123   3.939  0.00  0.00     0.001 A 
HETATM   67  C   UNK N   1      32.228  17.013   4.026  0.00  0.00     0.000 A 
HETATM   68  C   UNK N   1      32.851  17.012   5.277  0.00  0.00     0.001 A 
HETATM   69  C   UNK N   1      32.085  17.117   6.442  0.00  0.00     0.009 A 
ENDBRANCH  63  64
ENDBRANCH  62  63
ENDBRANCH  58  62
ENDBRANCH  49  57
ENDBRANCH  47  49
ENDBRANCH  44  47
ENDBRANCH   1  43
TORSDOF 28
ENDMDL
MODEL 7
REMARK VINA RESULT:      -6.8     10.066     15.782
REMARK  28 active torsions:
REMARK  status: ('A' for Active; 'I' for Inactive)
REMARK    1  A    between atoms: C_17  and  C_10 
REMARK    2  A    between atoms: C_20  and  C_10 
REMARK    3  A    between atoms: C_27  and  C_17 
REMARK    4  A    between atoms: C_19  and  C_18 
REMARK    5  A    between atoms: C_28  and  C_18 
REMARK    6  A    between atoms: C_31  and  C_19 
REMARK    7  A    between atoms: N_42  and  C_20 
REMARK    8  A    between atoms: C_24  and  C_21 
REMARK    9  A    between atoms: C_29  and  C_21 
REMARK   10  A    between atoms: C_25  and  C_22 
REMARK   11  A    between atoms: C_30  and  C_22 
REMARK   12  A    between atoms: C_26  and  C_23 
REMARK   13  A    between atoms: O_59  and  C_23 
REMARK   14  A    between atoms: C_33  and  C_27 
REMARK   15  A    between atoms: C_27  and  N_45 
REMARK   16  A    between atoms: C_34  and  C_28 
REMARK   17  A    between atoms: C_28  and  N_43 
REMARK   18  A    between atoms: C_32  and  C_29 
REMARK   19  A    between atoms: C_29  and  N_48 
REMARK   20  A    between atoms: C_36  and  C_30 
REMARK   21  A    between atoms: C_30  and  N_46 
REMARK   22  A    between atoms: O_51  and  C_31 
REMARK   23  A    between atoms: C_35  and  C_32 
REMARK   24  A    between atoms: C_33  and  O_53 
REMARK   25  A    between atoms: C_34  and  O_54 
REMARK       I    between atoms: N_45  and  C_35 
REMARK   26  A    between atoms: O_57  and  C_36 
REMARK       I    between atoms: N_41  and  C_37 
REMARK       I    between atoms: N_42  and  C_37 
REMARK   27  A    between atoms: C_38  and  O_58 
REMARK   28  A    between atoms: O_59  and  C_38 
ROOT
HETATM    1  C   UNK N   1      23.430  17.484   5.144  0.00  0.00     0.159 C 
ENDROOT
BRANCH   1   2
HETATM    2  C   UNK N   1      24.042  18.797   4.630  0.00  0.00     0.035 C 
BRANCH   2   3
HETATM    3  C   UNK N   1      25.417  18.652   3.998  0.00  0.00     0.023 C 
BRANCH   3   4
HETATM    4  C   UNK N   1      26.510  19.264   4.841  0.00  0.00     0.138 C 
BRANCH   4   5
HETATM    5  N   UNK N   1      25.901  19.792   6.032  0.00  0.00    -0.227 N 
HETATM    6  C   UNK N   1      26.476  20.878   6.736  0.00  0.00     0.665 C 
HETATM    7  N   UNK N   1      27.518  21.474   6.281  0.00  0.00    -0.235 N 
HETATM    8  N   UNK N   1      25.955  21.247   7.993  0.00  0.00    -0.235 N 
HETATM    9  H   UNK N   1      28.259  21.990   6.673  0.00  0.00     0.174 HD
ATOM     10  HN  UNK N   1      27.598  21.392   5.267  1.00  0.00     0.174 HD
HETATM   11  H   UNK N   1      25.424  20.644   8.563  0.00  0.00     0.174 HD
HETATM   12  H   UNK N   1      26.131  22.159   8.319  0.00  0.00     0.174 HD
HETATM   13  H   UNK N   1      25.065  19.391   6.364  0.00  0.00     0.177 HD
ENDBRANCH   4   5
ENDBRANCH   3   4
ENDBRANCH   2   3
ENDBRANCH   1   2
BRANCH   1  14
HETATM   14  C   UNK N   1      22.040  17.716   5.731  0.00  0.00     0.135 C 
HETATM   15  N   UNK N   1      21.006  18.098   5.045  0.00  0.00    -0.361 N 
ATOM     16  HN  UNK N   1      20.156  18.205   5.599  1.00  0.00     0.162 HD
BRANCH  15  17
HETATM   17  C   UNK N   1      20.831  18.402   3.627  0.00  0.00     0.158 C 
BRANCH  17  18
HETATM   18  C   UNK N   1      20.918  19.910   3.367  0.00  0.00     0.044 C 
BRANCH  18  19
HETATM   19  C   UNK N   1      21.829  20.279   2.212  0.00  0.00     0.112 C 
BRANCH  19  20
HETATM   20  C   UNK N   1      20.979  20.662   1.044  0.00  0.00     0.139 C 
HETATM   21  O   UNK N   1      20.623  21.819   0.904  0.00  0.00    -0.650 OA
BRANCH  20  22
HETATM   22  O   UNK N   1      20.594  19.727   0.153  0.00  0.00    -0.776 OA
HETATM   23  H   UNK N   1      19.873  19.148   0.302  0.00  0.00     0.167 HD
ENDBRANCH  20  22
ENDBRANCH  19  20
ENDBRANCH  18  19
ENDBRANCH  17  18
BRANCH  17  24
HETATM   24  C   UNK N   1      19.594  17.760   3.011  0.00  0.00     0.135 C 
HETATM   25  N   UNK N   1      19.296  16.506   3.172  0.00  0.00    -0.358 N 
ATOM     26  HN  UNK N   1      18.459  16.167   2.699  1.00  0.00     0.162 HD
BRANCH  25  27
HETATM   27  C   UNK N   1      20.041  15.537   3.965  0.00  0.00     0.181 C 
BRANCH  27  28
HETATM   28  C   UNK N   1      20.485  14.343   3.108  0.00  0.00     0.040 C 
BRANCH  28  29
HETATM   29  C   UNK N   1      20.137  14.400   1.611  0.00  0.00    -0.012 C 
HETATM   30  C   UNK N   1      18.906  13.574   1.210  0.00  0.00     0.005 C 
HETATM   31  C   UNK N   1      19.167  12.073   1.335  0.00  0.00     0.000 C 
HETATM   32  C   UNK N   1      20.362  11.674   0.480  0.00  0.00     0.000 C 
HETATM   33  C   UNK N   1      21.600  12.457   0.909  0.00  0.00     0.000 C 
HETATM   34  C   UNK N   1      21.344  13.961   0.776  0.00  0.00     0.005 C 
ENDBRANCH  28  29
ENDBRANCH  27  28
BRANCH  27  35
HETATM   35  C   UNK N   1      19.193  15.095   5.124  0.00  0.00     0.163 C 
HETATM   36  O   UNK N   1      19.402  15.535   6.242  0.00  0.00    -0.648 OA
BRANCH  35  37
HETATM   37  O   UNK N   1      18.192  14.217   4.930  0.00  0.00    -0.775 OA
HETATM   38  H   UNK N   1      18.206  13.283   4.856  0.00  0.00     0.167 HD
ENDBRANCH  35  37
ENDBRANCH  27  35
ENDBRANCH  25  27
BRANCH  24  39
HETATM   39  O   UNK N   1      18.778  18.517   2.250  0.00  0.00    -0.348 OA
HETATM   40  H   UNK N   1      18.370  19.289   1.911  0.00  0.00     0.219 HD
ENDBRANCH  24  39
ENDBRANCH  17  24
ENDBRANCH  15  17
BRANCH  14  41
HETATM   41  O   UNK N   1      21.848  17.450   7.039  0.00  0.00    -0.348 OA
HETATM   42  H   UNK N   1      21.763  16.878   7.777  0.00  0.00     0.219 HD
ENDBRANCH  14  41
ENDBRANCH   1  14
BRANCH   1  43
HETATM   43  N   UNK N   1      23.425  16.442   4.128  0.00  0.00    -0.342 N 
HETATM   44  C   UNK N   1      24.181  15.305   4.058  0.00  0.00     0.290 C 
HETATM   45  O   UNK N   1      24.023  14.583   3.083  0.00  0.00    -0.264 OA
HETATM   46  H   UNK N   1      22.787  16.573   3.390  0.00  0.00     0.163 HD
BRANCH  44  47
HETATM   47  C   UNK N   1      25.187  14.881   5.097  0.00  0.00     0.238 C 
HETATM   48  O   UNK N   1      26.220  15.508   5.265  0.00  0.00    -0.285 OA
BRANCH  47  49
HETATM   49  C   UNK N   1      24.970  13.646   5.943  0.00  0.00     0.166 C 
BRANCH  49  50
HETATM   50  C   UNK N   1      25.167  13.902   7.444  0.00  0.00     0.038 C 
BRANCH  50  51
HETATM   51  C   UNK N   1      24.415  13.032   8.450  0.00  0.00    -0.012 C 
HETATM   52  C   UNK N   1      24.959  13.094   9.875  0.00  0.00     0.005 C 
HETATM   53  C   UNK N   1      24.162  12.129  10.751  0.00  0.00     0.000 C 
HETATM   54  C   UNK N   1      22.687  12.527  10.762  0.00  0.00     0.000 C 
HETATM   55  C   UNK N   1      22.124  12.537   9.342  0.00  0.00     0.000 C 
HETATM   56  C   UNK N   1      22.948  13.456   8.445  0.00  0.00     0.005 C 
ENDBRANCH  50  51
ENDBRANCH  49  50
BRANCH  49  57
HETATM   57  N   UNK N   1      25.978  12.681   5.535  0.00  0.00    -0.339 N 
HETATM   58  C   UNK N   1      25.835  11.501   5.018  0.00  0.00     0.259 C 
ATOM     59  HN  UNK N   1      26.943  12.977   5.678  1.00  0.00     0.164 HD
BRANCH  58  60
HETATM   60  O   UNK N   1      26.940  10.856   4.599  0.00  0.00    -0.327 OA
HETATM   61  H   UNK N   1      27.232  10.011   4.315  0.00  0.00     0.221 HD
ENDBRANCH  58  60
BRANCH  58  62
HETATM   62  O   UNK N   1      24.633  10.880   4.858  0.00  0.00    -0.312 OA
BRANCH  62  63
HETATM   63  C   UNK N   1      23.759  11.081   3.812  0.00  0.00     0.218 C 
BRANCH  63  64
HETATM   64  C   UNK N   1      22.346  10.994   4.288  0.00  0.00    -0.034 A 
HETATM   65  C   UNK N   1      21.910  11.821   5.328  0.00  0.00     0.009 A 
HETATM   66  C   UNK N   1      20.590  11.743   5.780  0.00  0.00     0.001 A 
HETATM   67  C   UNK N   1      19.700  10.843   5.188  0.00  0.00     0.000 A 
HETATM   68  C   UNK N   1      20.132  10.018   4.145  0.00  0.00     0.001 A 
HETATM   69  C   UNK N   1      21.454  10.092   3.695  0.00  0.00     0.009 A 
ENDBRANCH  63  64
ENDBRANCH  62  63
ENDBRANCH  58  62
ENDBRANCH  49  57
ENDBRANCH  47  49
ENDBRANCH  44  47
ENDBRANCH   1  43
TORSDOF 28
ENDMDL
MODEL 8
REMARK VINA RESULT:      -6.7      2.380      4.311
REMARK  28 active torsions:
REMARK  status: ('A' for Active; 'I' for Inactive)
REMARK    1  A    between atoms: C_17  and  C_10 
REMARK    2  A    between atoms: C_20  and  C_10 
REMARK    3  A    between atoms: C_27  and  C_17 
REMARK    4  A    between atoms: C_19  and  C_18 
REMARK    5  A    between atoms: C_28  and  C_18 
REMARK    6  A    between atoms: C_31  and  C_19 
REMARK    7  A    between atoms: N_42  and  C_20 
REMARK    8  A    between atoms: C_24  and  C_21 
REMARK    9  A    between atoms: C_29  and  C_21 
REMARK   10  A    between atoms: C_25  and  C_22 
REMARK   11  A    between atoms: C_30  and  C_22 
REMARK   12  A    between atoms: C_26  and  C_23 
REMARK   13  A    between atoms: O_59  and  C_23 
REMARK   14  A    between atoms: C_33  and  C_27 
REMARK   15  A    between atoms: C_27  and  N_45 
REMARK   16  A    between atoms: C_34  and  C_28 
REMARK   17  A    between atoms: C_28  and  N_43 
REMARK   18  A    between atoms: C_32  and  C_29 
REMARK   19  A    between atoms: C_29  and  N_48 
REMARK   20  A    between atoms: C_36  and  C_30 
REMARK   21  A    between atoms: C_30  and  N_46 
REMARK   22  A    between atoms: O_51  and  C_31 
REMARK   23  A    between atoms: C_35  and  C_32 
REMARK   24  A    between atoms: C_33  and  O_53 
REMARK   25  A    between atoms: C_34  and  O_54 
REMARK       I    between atoms: N_45  and  C_35 
REMARK   26  A    between atoms: O_57  and  C_36 
REMARK       I    between atoms: N_41  and  C_37 
REMARK       I    between atoms: N_42  and  C_37 
REMARK   27  A    between atoms: C_38  and  O_58 
REMARK   28  A    between atoms: O_59  and  C_38 
ROOT
HETATM    1  C   UNK N   1      35.059  15.032   6.816  0.00  0.00     0.159 C 
ENDROOT
BRANCH   1   2
HETATM    2  C   UNK N   1      34.517  15.331   5.410  0.00  0.00     0.035 C 
BRANCH   2   3
HETATM    3  C   UNK N   1      33.557  14.287   4.863  0.00  0.00     0.023 C 
BRANCH   3   4
HETATM    4  C   UNK N   1      34.268  13.170   4.136  0.00  0.00     0.138 C 
BRANCH   4   5
HETATM    5  N   UNK N   1      34.273  12.020   4.999  0.00  0.00    -0.227 N 
HETATM    6  C   UNK N   1      35.463  11.295   5.254  0.00  0.00     0.665 C 
HETATM    7  N   UNK N   1      36.587  11.696   4.783  0.00  0.00    -0.235 N 
HETATM    8  N   UNK N   1      35.396  10.071   5.952  0.00  0.00    -0.235 N 
HETATM    9  H   UNK N   1      37.440  11.268   4.540  0.00  0.00     0.174 HD
ATOM     10  HN  UNK N   1      36.600  12.703   4.621  1.00  0.00     0.174 HD
HETATM   11  H   UNK N   1      34.579   9.526   6.023  0.00  0.00     0.174 HD
HETATM   12  H   UNK N   1      36.213   9.743   6.394  0.00  0.00     0.174 HD
HETATM   13  H   UNK N   1      33.433  11.731   5.422  0.00  0.00     0.177 HD
ENDBRANCH   4   5
ENDBRANCH   3   4
ENDBRANCH   2   3
ENDBRANCH   1   2
BRANCH   1  14
HETATM   14  C   UNK N   1      36.489  14.499   6.755  0.00  0.00     0.135 C 
HETATM   15  N   UNK N   1      37.020  13.711   7.641  0.00  0.00    -0.361 N 
ATOM     16  HN  UNK N   1      37.987  13.456   7.443  1.00  0.00     0.162 HD
BRANCH  15  17
HETATM   17  C   UNK N   1      36.490  13.122   8.868  0.00  0.00     0.158 C 
BRANCH  17  18
HETATM   18  C   UNK N   1      37.172  13.709  10.107  0.00  0.00     0.044 C 
BRANCH  18  19
HETATM   19  C   UNK N   1      36.649  15.077  10.503  0.00  0.00     0.112 C 
BRANCH  19  20
HETATM   20  C   UNK N   1      35.815  14.925  11.733  0.00  0.00     0.139 C 
HETATM   21  O   UNK N   1      34.614  14.742  11.636  0.00  0.00    -0.650 OA
BRANCH  20  22
HETATM   22  O   UNK N   1      36.387  15.002  12.951  0.00  0.00    -0.776 OA
HETATM   23  H   UNK N   1      36.588  15.816  13.368  0.00  0.00     0.167 HD
ENDBRANCH  20  22
ENDBRANCH  19  20
ENDBRANCH  18  19
ENDBRANCH  17  18
BRANCH  17  24
HETATM   24  C   UNK N   1      36.476  11.598   8.859  0.00  0.00     0.135 C 
HETATM   25  N   UNK N   1      35.521  10.898   9.392  0.00  0.00    -0.358 N 
ATOM     26  HN  UNK N   1      35.616   9.884   9.354  1.00  0.00     0.162 HD
BRANCH  25  27
HETATM   27  C   UNK N   1      34.325  11.422  10.039  0.00  0.00     0.181 C 
BRANCH  27  28
HETATM   28  C   UNK N   1      34.168  10.855  11.458  0.00  0.00     0.040 C 
BRANCH  28  29
HETATM   29  C   UNK N   1      35.211  11.299  12.498  0.00  0.00    -0.012 C 
HETATM   30  C   UNK N   1      36.175  10.191  12.946  0.00  0.00     0.005 C 
HETATM   31  C   UNK N   1      35.461   9.118  13.769  0.00  0.00     0.000 C 
HETATM   32  C   UNK N   1      34.790   9.746  14.983  0.00  0.00     0.000 C 
HETATM   33  C   UNK N   1      33.794  10.813  14.539  0.00  0.00     0.000 C 
HETATM   34  C   UNK N   1      34.508  11.895  13.722  0.00  0.00     0.005 C 
ENDBRANCH  28  29
ENDBRANCH  27  28
BRANCH  27  35
HETATM   35  C   UNK N   1      33.128  11.108   9.188  0.00  0.00     0.163 C 
HETATM   36  O   UNK N   1      33.192  11.212   7.974  0.00  0.00    -0.648 OA
BRANCH  35  37
HETATM   37  O   UNK N   1      31.981  10.701   9.762  0.00  0.00    -0.775 OA
HETATM   38  H   UNK N   1      31.176  10.413   9.379  0.00  0.00     0.167 HD
ENDBRANCH  35  37
ENDBRANCH  27  35
ENDBRANCH  25  27
BRANCH  24  39
HETATM   39  O   UNK N   1      37.505  10.941   8.288  0.00  0.00    -0.348 OA
HETATM   40  H   UNK N   1      38.013  10.534   7.614  0.00  0.00     0.219 HD
ENDBRANCH  24  39
ENDBRANCH  17  24
ENDBRANCH  15  17
BRANCH  14  41
HETATM   41  O   UNK N   1      37.241  14.814   5.681  0.00  0.00    -0.348 OA
HETATM   42  H   UNK N   1      37.428  14.834   4.763  0.00  0.00     0.219 HD
ENDBRANCH  14  41
ENDBRANCH   1  14
BRANCH   1  43
HETATM   43  N   UNK N   1      34.943  16.176   7.708  0.00  0.00    -0.342 N 
HETATM   44  C   UNK N   1      33.879  16.566   8.473  0.00  0.00     0.290 C 
HETATM   45  O   UNK N   1      34.003  17.592   9.129  0.00  0.00    -0.264 OA
HETATM   46  H   UNK N   1      35.742  16.748   7.770  0.00  0.00     0.163 HD
BRANCH  44  47
HETATM   47  C   UNK N   1      32.573  15.819   8.567  0.00  0.00     0.238 C 
HETATM   48  O   UNK N   1      32.534  14.670   8.975  0.00  0.00    -0.285 OA
BRANCH  47  49
HETATM   49  C   UNK N   1      31.273  16.453   8.125  0.00  0.00     0.166 C 
BRANCH  49  50
HETATM   50  C   UNK N   1      31.386  17.184   6.778  0.00  0.00     0.038 C 
BRANCH  50  51
HETATM   51  C   UNK N   1      30.572  16.677   5.589  0.00  0.00    -0.012 C 
HETATM   52  C   UNK N   1      31.226  16.910   4.228  0.00  0.00     0.005 C 
HETATM   53  C   UNK N   1      30.277  16.421   3.135  0.00  0.00     0.000 C 
HETATM   54  C   UNK N   1      30.000  14.929   3.309  0.00  0.00     0.000 C 
HETATM   55  C   UNK N   1      29.404  14.650   4.687  0.00  0.00     0.000 C 
HETATM   56  C   UNK N   1      30.318  15.184   5.785  0.00  0.00     0.005 C 
ENDBRANCH  50  51
ENDBRANCH  49  50
BRANCH  49  57
HETATM   57  N   UNK N   1      30.933  17.448   9.128  0.00  0.00    -0.339 N 
HETATM   58  C   UNK N   1      29.824  18.093   9.316  0.00  0.00     0.259 C 
ATOM     59  HN  UNK N   1      31.682  17.674   9.783  1.00  0.00     0.164 HD
BRANCH  58  60
HETATM   60  O   UNK N   1      29.720  18.869  10.410  0.00  0.00    -0.327 OA
HETATM   61  H   UNK N   1      29.994  19.699  10.748  0.00  0.00     0.221 HD
ENDBRANCH  58  60
BRANCH  58  62
HETATM   62  O   UNK N   1      28.750  18.019   8.480  0.00  0.00    -0.312 OA
BRANCH  62  63
HETATM   63  C   UNK N   1      28.218  19.068   7.764  0.00  0.00     0.218 C 
BRANCH  63  64
HETATM   64  C   UNK N   1      27.770  18.606   6.416  0.00  0.00    -0.034 A 
HETATM   65  C   UNK N   1      27.973  19.421   5.298  0.00  0.00     0.009 A 
HETATM   66  C   UNK N   1      27.555  18.997   4.034  0.00  0.00     0.001 A 
HETATM   67  C   UNK N   1      26.937  17.752   3.884  0.00  0.00     0.000 A 
HETATM   68  C   UNK N   1      26.736  16.933   4.999  0.00  0.00     0.001 A 
HETATM   69  C   UNK N   1      27.151  17.359   6.265  0.00  0.00     0.009 A 
ENDBRANCH  63  64
ENDBRANCH  62  63
ENDBRANCH  58  62
ENDBRANCH  49  57
ENDBRANCH  47  49
ENDBRANCH  44  47
ENDBRANCH   1  43
TORSDOF 28
ENDMDL
MODEL 9
REMARK VINA RESULT:      -6.7      1.785      2.362
REMARK  28 active torsions:
REMARK  status: ('A' for Active; 'I' for Inactive)
REMARK    1  A    between atoms: C_17  and  C_10 
REMARK    2  A    between atoms: C_20  and  C_10 
REMARK    3  A    between atoms: C_27  and  C_17 
REMARK    4  A    between atoms: C_19  and  C_18 
REMARK    5  A    between atoms: C_28  and  C_18 
REMARK    6  A    between atoms: C_31  and  C_19 
REMARK    7  A    between atoms: N_42  and  C_20 
REMARK    8  A    between atoms: C_24  and  C_21 
REMARK    9  A    between atoms: C_29  and  C_21 
REMARK   10  A    between atoms: C_25  and  C_22 
REMARK   11  A    between atoms: C_30  and  C_22 
REMARK   12  A    between atoms: C_26  and  C_23 
REMARK   13  A    between atoms: O_59  and  C_23 
REMARK   14  A    between atoms: C_33  and  C_27 
REMARK   15  A    between atoms: C_27  and  N_45 
REMARK   16  A    between atoms: C_34  and  C_28 
REMARK   17  A    between atoms: C_28  and  N_43 
REMARK   18  A    between atoms: C_32  and  C_29 
REMARK   19  A    between atoms: C_29  and  N_48 
REMARK   20  A    between atoms: C_36  and  C_30 
REMARK   21  A    between atoms: C_30  and  N_46 
REMARK   22  A    between atoms: O_51  and  C_31 
REMARK   23  A    between atoms: C_35  and  C_32 
REMARK   24  A    between atoms: C_33  and  O_53 
REMARK   25  A    between atoms: C_34  and  O_54 
REMARK       I    between atoms: N_45  and  C_35 
REMARK   26  A    between atoms: O_57  and  C_36 
REMARK       I    between atoms: N_41  and  C_37 
REMARK       I    between atoms: N_42  and  C_37 
REMARK   27  A    between atoms: C_38  and  O_58 
REMARK   28  A    between atoms: O_59  and  C_38 
ROOT
HETATM    1  C   UNK N   1      36.255  14.482   9.613  0.00  0.00     0.159 C 
ENDROOT
BRANCH   1   2
HETATM    2  C   UNK N   1      36.420  14.153   8.121  0.00  0.00     0.035 C 
BRANCH   2   3
HETATM    3  C   UNK N   1      36.286  12.678   7.777  0.00  0.00     0.023 C 
BRANCH   3   4
HETATM    4  C   UNK N   1      37.589  12.071   7.316  0.00  0.00     0.138 C 
BRANCH   4   5
HETATM    5  N   UNK N   1      37.887  10.963   8.182  0.00  0.00    -0.227 N 
HETATM    6  C   UNK N   1      39.062  10.938   8.972  0.00  0.00     0.665 C 
HETATM    7  N   UNK N   1      39.856  11.946   8.995  0.00  0.00    -0.235 N 
HETATM    8  N   UNK N   1      39.411   9.760   9.664  0.00  0.00    -0.235 N 
HETATM    9  H   UNK N   1      40.816  12.080   9.170  0.00  0.00     0.174 HD
ATOM     10  HN  UNK N   1      39.376  12.820   8.778  1.00  0.00     0.174 HD
HETATM   11  H   UNK N   1      39.080   8.865   9.422  0.00  0.00     0.174 HD
HETATM   12  H   UNK N   1      40.020   9.837  10.435  0.00  0.00     0.174 HD
HETATM   13  H   UNK N   1      37.259  10.205   8.229  0.00  0.00     0.177 HD
ENDBRANCH   4   5
ENDBRANCH   3   4
ENDBRANCH   2   3
ENDBRANCH   1   2
BRANCH   1  14
HETATM   14  C   UNK N   1      37.534  14.178  10.390  0.00  0.00     0.135 C 
HETATM   15  N   UNK N   1      37.602  13.378  11.410  0.00  0.00    -0.361 N 
ATOM     16  HN  UNK N   1      38.537  13.293  11.810  1.00  0.00     0.162 HD
BRANCH  15  17
HETATM   17  C   UNK N   1      36.591  12.575  12.093  0.00  0.00     0.158 C 
BRANCH  17  18
HETATM   18  C   UNK N   1      35.990  11.522  11.156  0.00  0.00     0.044 C 
BRANCH  18  19
HETATM   19  C   UNK N   1      35.105  10.511  11.861  0.00  0.00     0.112 C 
BRANCH  19  20
HETATM   20  C   UNK N   1      33.811  10.421  11.118  0.00  0.00     0.139 C 
HETATM   21  O   UNK N   1      33.162   9.390  11.148  0.00  0.00    -0.650 OA
BRANCH  20  22
HETATM   22  O   UNK N   1      33.367  11.475  10.405  0.00  0.00    -0.776 OA
HETATM   23  H   UNK N   1      33.080  11.403   9.516  0.00  0.00     0.167 HD
ENDBRANCH  20  22
ENDBRANCH  19  20
ENDBRANCH  18  19
ENDBRANCH  17  18
BRANCH  17  24
HETATM   24  C   UNK N   1      35.536  13.403  12.815  0.00  0.00     0.135 C 
HETATM   25  N   UNK N   1      35.644  13.752  14.062  0.00  0.00    -0.358 N 
ATOM     26  HN  UNK N   1      34.872  14.287  14.459  1.00  0.00     0.162 HD
BRANCH  25  27
HETATM   27  C   UNK N   1      36.761  13.453  14.947  0.00  0.00     0.181 C 
BRANCH  27  28
HETATM   28  C   UNK N   1      36.577  12.092  15.635  0.00  0.00     0.040 C 
BRANCH  28  29
HETATM   29  C   UNK N   1      35.180  11.791  16.206  0.00  0.00    -0.012 C 
HETATM   30  C   UNK N   1      35.159  11.485  17.711  0.00  0.00     0.005 C 
HETATM   31  C   UNK N   1      35.837  10.152  18.027  0.00  0.00     0.000 C 
HETATM   32  C   UNK N   1      35.162   9.024  17.257  0.00  0.00     0.000 C 
HETATM   33  C   UNK N   1      35.226   9.301  15.757  0.00  0.00     0.000 C 
HETATM   34  C   UNK N   1      34.539  10.632  15.437  0.00  0.00     0.005 C 
ENDBRANCH  28  29
ENDBRANCH  27  28
BRANCH  27  35
HETATM   35  C   UNK N   1      36.902  14.561  15.953  0.00  0.00     0.163 C 
HETATM   36  O   UNK N   1      37.721  15.448  15.781  0.00  0.00    -0.648 OA
BRANCH  35  37
HETATM   37  O   UNK N   1      36.114  14.583  17.044  0.00  0.00    -0.775 OA
HETATM   38  H   UNK N   1      36.072  14.001  17.777  0.00  0.00     0.167 HD
ENDBRANCH  35  37
ENDBRANCH  27  35
ENDBRANCH  25  27
BRANCH  24  39
HETATM   39  O   UNK N   1      34.432  13.782  12.141  0.00  0.00    -0.348 OA
HETATM   40  H   UNK N   1      33.647  13.698  11.635  0.00  0.00     0.219 HD
ENDBRANCH  24  39
ENDBRANCH  17  24
ENDBRANCH  15  17
BRANCH  14  41
HETATM   41  O   UNK N   1      38.687  14.726   9.957  0.00  0.00    -0.348 OA
HETATM   42  H   UNK N   1      39.344  14.902   9.313  0.00  0.00     0.219 HD
ENDBRANCH  14  41
ENDBRANCH   1  14
BRANCH   1  43
HETATM   43  N   UNK N   1      35.798  15.847   9.831  0.00  0.00    -0.342 N 
HETATM   44  C   UNK N   1      34.547  16.372   9.667  0.00  0.00     0.290 C 
HETATM   45  O   UNK N   1      34.404  17.568   9.884  0.00  0.00    -0.264 OA
HETATM   46  H   UNK N   1      36.486  16.480  10.140  0.00  0.00     0.163 HD
BRANCH  44  47
HETATM   47  C   UNK N   1      33.336  15.580   9.244  0.00  0.00     0.238 C 
HETATM   48  O   UNK N   1      33.202  14.412   9.571  0.00  0.00    -0.285 OA
BRANCH  47  49
HETATM   49  C   UNK N   1      32.263  16.192   8.371  0.00  0.00     0.166 C 
BRANCH  49  50
HETATM   50  C   UNK N   1      32.828  16.901   7.130  0.00  0.00     0.038 C 
BRANCH  50  51
HETATM   51  C   UNK N   1      32.127  16.713   5.786  0.00  0.00    -0.012 C 
HETATM   52  C   UNK N   1      32.891  17.273   4.588  0.00  0.00     0.005 C 
HETATM   53  C   UNK N   1      32.046  17.080   3.330  0.00  0.00     0.000 C 
HETATM   54  C   UNK N   1      31.779  15.594   3.101  0.00  0.00     0.000 C 
HETATM   55  C   UNK N   1      31.070  14.983   4.308  0.00  0.00     0.000 C 
HETATM   56  C   UNK N   1      31.879  15.220   5.581  0.00  0.00     0.005 C 
ENDBRANCH  50  51
ENDBRANCH  49  50
BRANCH  49  57
HETATM   57  N   UNK N   1      31.596  17.202   9.177  0.00  0.00    -0.339 N 
HETATM   58  C   UNK N   1      30.371  17.621   9.135  0.00  0.00     0.259 C 
ATOM     59  HN  UNK N   1      32.183  17.647   9.883  1.00  0.00     0.164 HD
BRANCH  58  60
HETATM   60  O   UNK N   1      29.961  18.476  10.089  0.00  0.00    -0.327 OA
HETATM   61  H   UNK N   1      29.862  19.393  10.259  0.00  0.00     0.221 HD
ENDBRANCH  58  60
BRANCH  58  62
HETATM   62  O   UNK N   1      29.467  17.236   8.190  0.00  0.00    -0.312 OA
BRANCH  62  63
HETATM   63  C   UNK N   1      28.737  18.084   7.386  0.00  0.00     0.218 C 
BRANCH  63  64
HETATM   64  C   UNK N   1      28.381  17.408   6.102  0.00  0.00    -0.034 A 
HETATM   65  C   UNK N   1      28.701  18.015   4.884  0.00  0.00     0.009 A 
HETATM   66  C   UNK N   1      28.369  17.390   3.679  0.00  0.00     0.001 A 
HETATM   67  C   UNK N   1      27.721  16.151   3.690  0.00  0.00     0.000 A 
HETATM   68  C   UNK N   1      27.404  15.540   4.907  0.00  0.00     0.001 A 
HETATM   69  C   UNK N   1      27.732  16.167   6.113  0.00  0.00     0.009 A 
ENDBRANCH  63  64
ENDBRANCH  62  63
ENDBRANCH  58  62
ENDBRANCH  49  57
ENDBRANCH  47  49
ENDBRANCH  44  47
ENDBRANCH   1  43
TORSDOF 28
ENDMDL
