REMARK  9 active torsions:
REMARK  status: ('A' for Active; 'I' for Inactive)
REMARK    1  A    between atoms: C_3  and  C_1 
REMARK    2  A    between atoms: O_22  and  C_1 
REMARK    3  A    between atoms: C_7  and  C_4 
REMARK    4  A    between atoms: C_5  and  O_14 
REMARK    5  A    between atoms: C_6  and  O_15 
REMARK       I    between atoms: N_10  and  C_7 
REMARK    6  A    between atoms: O_17  and  C_8 
REMARK    7  A    between atoms: C_9  and  N_13 
REMARK    8  A    between atoms: P_24  and  O_20 
REMARK    9  A    between atoms: P_24  and  O_22 
ROOT
HETATM    1  C   UNK N   1      -0.987  -0.156   0.133  0.00  0.00     0.180 C 
HETATM    2  C   UNK N   1       0.180  -1.149   0.026  0.00  0.00     0.182 C 
HETATM    3  C   UNK N   1       1.390  -0.218   0.070  0.00  0.00     0.198 C 
HETATM    4  C   UNK N   1       0.761   1.122   0.432  0.00  0.00     0.262 C 
HETATM    5  O   UNK N   1      -0.481   1.108  -0.231  0.00  0.00    -0.353 OA
ENDROOT
BRANCH   4   6
HETATM    6  N   UNK N   1       1.553   2.291   0.037  0.00  0.00    -0.292 N 
HETATM    7  C   UNK N   1       2.816   2.335  -0.446  0.00  0.00     0.188 A 
HETATM    8  N   UNK N   1       3.211   3.614  -0.672  0.00  0.00    -0.344 N 
HETATM    9  C   UNK N   1       2.157   4.382  -0.324  0.00  0.00     0.153 A 
ATOM     10  HN  UNK N   1       4.113   3.928  -1.029  1.00  0.00     0.167 HD
HETATM   11  C   UNK N   1       1.145   3.566   0.111  0.00  0.00     0.178 A 
BRANCH   9  12
HETATM   12  C   UNK N   1       2.130   5.853  -0.412  0.00  0.00     0.270 C 
HETATM   13  N   UNK N   1       3.224   6.526  -0.821  0.00  0.00    -0.365 N 
HETATM   14  H   UNK N   1       4.049   6.079  -1.120  0.00  0.00     0.159 HD
HETATM   15  H   UNK N   1       3.196   7.510  -0.821  0.00  0.00     0.159 HD
HETATM   16  O   UNK N   1       1.119   6.469  -0.115  0.00  0.00    -0.266 OA
ENDBRANCH   9  12
BRANCH  11  17
HETATM   17  O   UNK N   1      -0.069   3.954   0.540  0.00  0.00    -0.344 OA
ATOM     18  HO  UNK N   1      -0.771   3.388   0.841  1.00  0.00     0.219 HD
ENDBRANCH  11  17
ENDBRANCH   4   6
BRANCH   3  19
HETATM   19  O   UNK N   1       2.367  -0.625   0.982  0.00  0.00    -0.388 OA
HETATM   20  H   UNK N   1       2.461  -1.354   1.615  0.00  0.00     0.210 HD
ENDBRANCH   3  19
BRANCH   2  21
HETATM   21  O   UNK N   1       0.169  -1.834  -1.195  0.00  0.00    -0.390 OA
HETATM   22  H   UNK N   1      -0.246  -2.064  -2.041  0.00  0.00     0.210 HD
ENDBRANCH   2  21
BRANCH   1  23
HETATM   23  C   UNK N   1      -2.236  -0.515  -0.660  0.00  0.00     0.216 C 
BRANCH  23  24
HETATM   24  O   UNK N   1      -3.288   0.309  -0.231  0.00  0.00    -0.287 OA
BRANCH  24  25
HETATM   25  P   UNK N   1      -4.766  -0.582  -0.486  0.00  0.00     0.406 P 
HETATM   26  O   UNK N   1      -6.236  -0.355   0.409  0.00  0.00    -0.624 OA
HETATM   27  O   UNK N   1      -4.363  -1.327   0.818  0.00  0.00    -0.624 OA
BRANCH  25  28
HETATM   28  O   UNK N   1      -5.033   1.055   0.032  0.00  0.00    -0.300 OA
HETATM   29  H   UNK N   1      -4.316   1.641   0.321  0.00  0.00     0.223 HD
ENDBRANCH  25  28
ENDBRANCH  24  25
ENDBRANCH  23  24
ENDBRANCH   1  23
TORSDOF 9
