MODEL 1
REMARK VINA RESULT:      -6.5      0.000      0.000
REMARK  8 active torsions:
REMARK  status: ('A' for Active; 'I' for Inactive)
REMARK    1  A    between atoms: C_8  and  C_5 
REMARK    2  A    between atoms: O_14  and  C_5 
REMARK    3  A    between atoms: N_13  and  C_6 
REMARK    4  A    between atoms: O_20  and  C_7 
REMARK    5  A    between atoms: C_9  and  O_15 
REMARK    6  A    between atoms: C_10  and  O_16 
REMARK    7  A    between atoms: C_11  and  O_17 
REMARK    8  A    between atoms: C_12  and  O_20 
ROOT
HETATM    1  C   UNK N   1      34.796  13.907  11.113  0.00  0.00     0.179 C 
HETATM    2  C   UNK N   1      36.307  14.066  10.818  0.00  0.00     0.180 C 
HETATM    3  C   UNK N   1      37.072  12.949  11.536  0.00  0.00     0.183 C 
HETATM    4  C   UNK N   1      36.711  12.941  13.025  0.00  0.00     0.205 C 
HETATM    5  C   UNK N   1      35.170  12.813  13.151  0.00  0.00     0.298 C 
HETATM    6  O   UNK N   1      34.571  13.929  12.510  0.00  0.00    -0.348 OA
ENDROOT
BRANCH   5   7
HETATM    7  O   UNK N   1      34.663  12.781  14.446  0.00  0.00    -0.315 OA
BRANCH   7   8
HETATM    8  C   UNK N   1      34.800  11.893  15.468  0.00  0.00     0.105 A 
HETATM    9  C   UNK N   1      34.458  10.540  15.319  0.00  0.00     0.039 A 
HETATM   10  C   UNK N   1      34.589   9.642  16.375  0.00  0.00     0.003 A 
HETATM   11  C   UNK N   1      35.061  10.085  17.607  0.00  0.00     0.003 A 
HETATM   12  C   UNK N   1      35.393  11.428  17.783  0.00  0.00     0.039 A 
HETATM   13  C   UNK N   1      35.268  12.349  16.728  0.00  0.00     0.136 A 
BRANCH  13  14
HETATM   14  N   UNK N   1      35.623  13.719  16.951  0.00  0.00    -0.113 N 
HETATM   15  O   UNK N   1      36.449  14.257  16.278  0.00  0.00    -0.532 OA
HETATM   16  O   UNK N   1      35.094  14.335  17.829  0.00  0.00    -0.532 OA
ENDBRANCH  13  14
ENDBRANCH   7   8
ENDBRANCH   5   7
BRANCH   4  17
HETATM   17  O   UNK N   1      37.139  14.127  13.635  0.00  0.00    -0.388 OA
HETATM   18  H   UNK N   1      37.355  14.806  14.294  0.00  0.00     0.210 HD
ENDBRANCH   4  17
BRANCH   3  19
HETATM   19  O   UNK N   1      38.450  13.113  11.371  0.00  0.00    -0.390 OA
HETATM   20  H   UNK N   1      39.189  12.696  11.842  0.00  0.00     0.210 HD
ENDBRANCH   3  19
BRANCH   1  21
HETATM   21  C   UNK N   1      33.990  15.054  10.510  0.00  0.00     0.198 C 
BRANCH  21  22
HETATM   22  O   UNK N   1      32.679  15.055  10.987  0.00  0.00    -0.398 OA
HETATM   23  H   UNK N   1      32.023  15.706  10.696  0.00  0.00     0.209 HD
ENDBRANCH  21  22
ENDBRANCH   1  21
BRANCH   2  24
HETATM   24  O   UNK N   1      36.556  13.998   9.446  0.00  0.00    -0.390 OA
HETATM   25  H   UNK N   1      35.822  13.986   8.810  0.00  0.00     0.210 HD
ENDBRANCH   2  24
TORSDOF 8
ENDMDL
MODEL 2
REMARK VINA RESULT:      -6.4      6.574      9.005
REMARK  8 active torsions:
REMARK  status: ('A' for Active; 'I' for Inactive)
REMARK    1  A    between atoms: C_8  and  C_5 
REMARK    2  A    between atoms: O_14  and  C_5 
REMARK    3  A    between atoms: N_13  and  C_6 
REMARK    4  A    between atoms: O_20  and  C_7 
REMARK    5  A    between atoms: C_9  and  O_15 
REMARK    6  A    between atoms: C_10  and  O_16 
REMARK    7  A    between atoms: C_11  and  O_17 
REMARK    8  A    between atoms: C_12  and  O_20 
ROOT
HETATM    1  C   UNK N   1      29.299  17.276   8.197  0.00  0.00     0.179 C 
HETATM    2  C   UNK N   1      28.646  17.309   6.794  0.00  0.00     0.180 C 
HETATM    3  C   UNK N   1      29.212  16.157   5.957  0.00  0.00     0.183 C 
HETATM    4  C   UNK N   1      30.744  16.221   5.949  0.00  0.00     0.205 C 
HETATM    5  C   UNK N   1      31.238  16.217   7.419  0.00  0.00     0.298 C 
HETATM    6  O   UNK N   1      30.707  17.357   8.077  0.00  0.00    -0.348 OA
ENDROOT
BRANCH   5   7
HETATM    7  O   UNK N   1      32.617  16.262   7.601  0.00  0.00    -0.315 OA
BRANCH   7   8
HETATM    8  C   UNK N   1      33.407  16.131   8.701  0.00  0.00     0.105 A 
HETATM    9  C   UNK N   1      33.214  15.094   9.627  0.00  0.00     0.039 A 
HETATM   10  C   UNK N   1      34.018  14.976  10.757  0.00  0.00     0.003 A 
HETATM   11  C   UNK N   1      35.031  15.903  10.986  0.00  0.00     0.003 A 
HETATM   12  C   UNK N   1      35.232  16.951  10.089  0.00  0.00     0.039 A 
HETATM   13  C   UNK N   1      34.430  17.084   8.941  0.00  0.00     0.136 A 
BRANCH  13  14
HETATM   14  N   UNK N   1      34.672  18.174   8.044  0.00  0.00    -0.113 N 
HETATM   15  O   UNK N   1      34.493  18.055   6.870  0.00  0.00    -0.532 OA
HETATM   16  O   UNK N   1      35.069  19.219   8.469  0.00  0.00    -0.532 OA
ENDBRANCH  13  14
ENDBRANCH   7   8
ENDBRANCH   5   7
BRANCH   4  17
HETATM   17  O   UNK N   1      31.178  17.387   5.306  0.00  0.00    -0.388 OA
HETATM   18  H   UNK N   1      31.722  18.130   4.999  0.00  0.00     0.210 HD
ENDBRANCH   4  17
BRANCH   3  19
HETATM   19  O   UNK N   1      28.717  16.209   4.652  0.00  0.00    -0.390 OA
HETATM   20  H   UNK N   1      27.987  16.730   4.282  0.00  0.00     0.210 HD
ENDBRANCH   3  19
BRANCH   1  21
HETATM   21  C   UNK N   1      28.853  18.465   9.044  0.00  0.00     0.198 C 
BRANCH  21  22
HETATM   22  O   UNK N   1      27.511  18.349   9.407  0.00  0.00    -0.398 OA
HETATM   23  H   UNK N   1      27.101  18.930  10.066  0.00  0.00     0.209 HD
ENDBRANCH  21  22
ENDBRANCH   1  21
BRANCH   2  24
HETATM   24  O   UNK N   1      27.258  17.182   6.889  0.00  0.00    -0.390 OA
HETATM   25  H   UNK N   1      26.829  17.076   7.753  0.00  0.00     0.210 HD
ENDBRANCH   2  24
TORSDOF 8
ENDMDL
MODEL 3
REMARK VINA RESULT:      -6.4      6.169     10.323
REMARK  8 active torsions:
REMARK  status: ('A' for Active; 'I' for Inactive)
REMARK    1  A    between atoms: C_8  and  C_5 
REMARK    2  A    between atoms: O_14  and  C_5 
REMARK    3  A    between atoms: N_13  and  C_6 
REMARK    4  A    between atoms: O_20  and  C_7 
REMARK    5  A    between atoms: C_9  and  O_15 
REMARK    6  A    between atoms: C_10  and  O_16 
REMARK    7  A    between atoms: C_11  and  O_17 
REMARK    8  A    between atoms: C_12  and  O_20 
ROOT
HETATM    1  C   UNK N   1      33.704  16.017   9.486  0.00  0.00     0.179 C 
HETATM    2  C   UNK N   1      34.870  17.012   9.272  0.00  0.00     0.180 C 
HETATM    3  C   UNK N   1      34.316  18.300   8.654  0.00  0.00     0.183 C 
HETATM    4  C   UNK N   1      33.519  17.971   7.387  0.00  0.00     0.205 C 
HETATM    5  C   UNK N   1      32.420  16.942   7.759  0.00  0.00     0.298 C 
HETATM    6  O   UNK N   1      33.048  15.770   8.257  0.00  0.00    -0.348 OA
ENDROOT
BRANCH   5   7
HETATM    7  O   UNK N   1      31.588  16.534   6.720  0.00  0.00    -0.315 OA
BRANCH   7   8
HETATM    8  C   UNK N   1      30.407  17.013   6.242  0.00  0.00     0.105 A 
HETATM    9  C   UNK N   1      29.283  17.160   7.069  0.00  0.00     0.039 A 
HETATM   10  C   UNK N   1      28.076  17.637   6.568  0.00  0.00     0.003 A 
HETATM   11  C   UNK N   1      27.968  17.971   5.221  0.00  0.00     0.003 A 
HETATM   12  C   UNK N   1      29.067  17.819   4.376  0.00  0.00     0.039 A 
HETATM   13  C   UNK N   1      30.295  17.340   4.866  0.00  0.00     0.136 A 
BRANCH  13  14
HETATM   14  N   UNK N   1      31.400  17.201   3.964  0.00  0.00    -0.113 N 
HETATM   15  O   UNK N   1      32.362  17.900   4.060  0.00  0.00    -0.532 OA
HETATM   16  O   UNK N   1      31.360  16.381   3.095  0.00  0.00    -0.532 OA
ENDBRANCH  13  14
ENDBRANCH   7   8
ENDBRANCH   5   7
BRANCH   4  17
HETATM   17  O   UNK N   1      34.363  17.430   6.409  0.00  0.00    -0.388 OA
HETATM   18  H   UNK N   1      34.697  17.015   5.598  0.00  0.00     0.210 HD
ENDBRANCH   4  17
BRANCH   3  19
HETATM   19  O   UNK N   1      35.353  19.188   8.358  0.00  0.00    -0.390 OA
HETATM   20  H   UNK N   1      35.532  20.076   8.706  0.00  0.00     0.210 HD
ENDBRANCH   3  19
BRANCH   1  21
HETATM   21  C   UNK N   1      34.209  14.673  10.003  0.00  0.00     0.198 C 
BRANCH  21  22
HETATM   22  O   UNK N   1      33.983  14.542  11.373  0.00  0.00    -0.398 OA
HETATM   23  H   UNK N   1      34.211  13.736  11.860  0.00  0.00     0.209 HD
ENDBRANCH  21  22
ENDBRANCH   1  21
BRANCH   2  24
HETATM   24  O   UNK N   1      35.501  17.306  10.483  0.00  0.00    -0.390 OA
HETATM   25  H   UNK N   1      35.446  18.196  10.866  0.00  0.00     0.210 HD
ENDBRANCH   2  24
TORSDOF 8
ENDMDL
MODEL 4
REMARK VINA RESULT:      -6.3      5.388      8.707
REMARK  8 active torsions:
REMARK  status: ('A' for Active; 'I' for Inactive)
REMARK    1  A    between atoms: C_8  and  C_5 
REMARK    2  A    between atoms: O_14  and  C_5 
REMARK    3  A    between atoms: N_13  and  C_6 
REMARK    4  A    between atoms: O_20  and  C_7 
REMARK    5  A    between atoms: C_9  and  O_15 
REMARK    6  A    between atoms: C_10  and  O_16 
REMARK    7  A    between atoms: C_11  and  O_17 
REMARK    8  A    between atoms: C_12  and  O_20 
ROOT
HETATM    1  C   UNK N   1      34.908  15.877   9.819  0.00  0.00     0.179 C 
HETATM    2  C   UNK N   1      34.481  14.458  10.265  0.00  0.00     0.180 C 
HETATM    3  C   UNK N   1      33.484  13.897   9.245  0.00  0.00     0.183 C 
HETATM    4  C   UNK N   1      32.325  14.881   9.052  0.00  0.00     0.205 C 
HETATM    5  C   UNK N   1      32.917  16.256   8.645  0.00  0.00     0.298 C 
HETATM    6  O   UNK N   1      33.769  16.707   9.688  0.00  0.00    -0.348 OA
ENDROOT
BRANCH   5   7
HETATM    7  O   UNK N   1      31.997  17.275   8.418  0.00  0.00    -0.315 OA
BRANCH   7   8
HETATM    8  C   UNK N   1      30.867  17.345   7.664  0.00  0.00     0.105 A 
HETATM    9  C   UNK N   1      30.902  17.196   6.269  0.00  0.00     0.039 A 
HETATM   10  C   UNK N   1      29.742  17.283   5.504  0.00  0.00     0.003 A 
HETATM   11  C   UNK N   1      28.520  17.529   6.124  0.00  0.00     0.003 A 
HETATM   12  C   UNK N   1      28.462  17.696   7.507  0.00  0.00     0.039 A 
HETATM   13  C   UNK N   1      29.624  17.610   8.295  0.00  0.00     0.136 A 
BRANCH  13  14
HETATM   14  N   UNK N   1      29.519  17.785   9.713  0.00  0.00    -0.113 N 
HETATM   15  O   UNK N   1      29.669  18.859  10.212  0.00  0.00    -0.532 OA
HETATM   16  O   UNK N   1      29.289  16.844  10.414  0.00  0.00    -0.532 OA
ENDBRANCH  13  14
ENDBRANCH   7   8
ENDBRANCH   5   7
BRANCH   4  17
HETATM   17  O   UNK N   1      31.596  15.012  10.240  0.00  0.00    -0.388 OA
HETATM   18  H   UNK N   1      30.945  14.884  10.949  0.00  0.00     0.210 HD
ENDBRANCH   4  17
BRANCH   3  19
HETATM   19  O   UNK N   1      33.002  12.654   9.662  0.00  0.00    -0.390 OA
HETATM   20  H   UNK N   1      32.603  12.391  10.507  0.00  0.00     0.210 HD
ENDBRANCH   3  19
BRANCH   1  21
HETATM   21  C   UNK N   1      35.821  16.531  10.853  0.00  0.00     0.198 C 
BRANCH  21  22
HETATM   22  O   UNK N   1      37.114  16.011  10.785  0.00  0.00    -0.398 OA
HETATM   23  H   UNK N   1      37.333  15.126  11.114  0.00  0.00     0.209 HD
ENDBRANCH  21  22
ENDBRANCH   1  21
BRANCH   2  24
HETATM   24  O   UNK N   1      35.587  13.610  10.355  0.00  0.00    -0.390 OA
HETATM   25  H   UNK N   1      36.172  13.641  11.129  0.00  0.00     0.210 HD
ENDBRANCH   2  24
TORSDOF 8
ENDMDL
MODEL 5
REMARK VINA RESULT:      -6.3      6.472     10.048
REMARK  8 active torsions:
REMARK  status: ('A' for Active; 'I' for Inactive)
REMARK    1  A    between atoms: C_8  and  C_5 
REMARK    2  A    between atoms: O_14  and  C_5 
REMARK    3  A    between atoms: N_13  and  C_6 
REMARK    4  A    between atoms: O_20  and  C_7 
REMARK    5  A    between atoms: C_9  and  O_15 
REMARK    6  A    between atoms: C_10  and  O_16 
REMARK    7  A    between atoms: C_11  and  O_17 
REMARK    8  A    between atoms: C_12  and  O_20 
ROOT
HETATM    1  C   UNK N   1      32.945  16.100   8.886  0.00  0.00     0.179 C 
HETATM    2  C   UNK N   1      34.243  16.931   9.030  0.00  0.00     0.180 C 
HETATM    3  C   UNK N   1      34.060  18.267   8.302  0.00  0.00     0.183 C 
HETATM    4  C   UNK N   1      33.620  18.018   6.855  0.00  0.00     0.205 C 
HETATM    5  C   UNK N   1      32.336  17.147   6.881  0.00  0.00     0.298 C 
HETATM    6  O   UNK N   1      32.639  15.914   7.517  0.00  0.00    -0.348 OA
ENDROOT
BRANCH   5   7
HETATM    7  O   UNK N   1      31.789  16.828   5.642  0.00  0.00    -0.315 OA
BRANCH   7   8
HETATM    8  C   UNK N   1      31.248  15.685   5.140  0.00  0.00     0.105 A 
HETATM    9  C   UNK N   1      30.008  15.200   5.582  0.00  0.00     0.039 A 
HETATM   10  C   UNK N   1      29.470  14.022   5.072  0.00  0.00     0.003 A 
HETATM   11  C   UNK N   1      30.170  13.300   4.111  0.00  0.00     0.003 A 
HETATM   12  C   UNK N   1      31.412  13.753   3.667  0.00  0.00     0.039 A 
HETATM   13  C   UNK N   1      31.970  14.942   4.170  0.00  0.00     0.136 A 
BRANCH  13  14
HETATM   14  N   UNK N   1      33.247  15.373   3.685  0.00  0.00    -0.113 N 
HETATM   15  O   UNK N   1      34.244  15.164   4.307  0.00  0.00    -0.532 OA
HETATM   16  O   UNK N   1      33.322  15.961   2.646  0.00  0.00    -0.532 OA
ENDBRANCH  13  14
ENDBRANCH   7   8
ENDBRANCH   5   7
BRANCH   4  17
HETATM   17  O   UNK N   1      34.629  17.352   6.148  0.00  0.00    -0.388 OA
HETATM   18  H   UNK N   1      35.156  16.953   5.438  0.00  0.00     0.210 HD
ENDBRANCH   4  17
BRANCH   3  19
HETATM   19  O   UNK N   1      35.244  19.007   8.329  0.00  0.00    -0.390 OA
HETATM   20  H   UNK N   1      35.429  19.901   7.998  0.00  0.00     0.210 HD
ENDBRANCH   3  19
BRANCH   1  21
HETATM   21  C   UNK N   1      33.104  14.713   9.502  0.00  0.00     0.198 C 
BRANCH  21  22
HETATM   22  O   UNK N   1      33.063  14.772  10.896  0.00  0.00    -0.398 OA
HETATM   23  H   UNK N   1      32.246  14.967  11.381  0.00  0.00     0.209 HD
ENDBRANCH  21  22
ENDBRANCH   1  21
BRANCH   2  24
HETATM   24  O   UNK N   1      34.537  17.166  10.375  0.00  0.00    -0.390 OA
HETATM   25  H   UNK N   1      35.399  16.915  10.745  0.00  0.00     0.210 HD
ENDBRANCH   2  24
TORSDOF 8
ENDMDL
MODEL 6
REMARK VINA RESULT:      -6.3      6.078      9.810
REMARK  8 active torsions:
REMARK  status: ('A' for Active; 'I' for Inactive)
REMARK    1  A    between atoms: C_8  and  C_5 
REMARK    2  A    between atoms: O_14  and  C_5 
REMARK    3  A    between atoms: N_13  and  C_6 
REMARK    4  A    between atoms: O_20  and  C_7 
REMARK    5  A    between atoms: C_9  and  O_15 
REMARK    6  A    between atoms: C_10  and  O_16 
REMARK    7  A    between atoms: C_11  and  O_17 
REMARK    8  A    between atoms: C_12  and  O_20 
ROOT
HETATM    1  C   UNK N   1      34.586  17.144   8.416  0.00  0.00     0.179 C 
HETATM    2  C   UNK N   1      34.141  16.769   9.850  0.00  0.00     0.180 C 
HETATM    3  C   UNK N   1      33.971  15.248   9.935  0.00  0.00     0.183 C 
HETATM    4  C   UNK N   1      33.027  14.765   8.829  0.00  0.00     0.205 C 
HETATM    5  C   UNK N   1      33.588  15.249   7.466  0.00  0.00     0.298 C 
HETATM    6  O   UNK N   1      33.640  16.668   7.476  0.00  0.00    -0.348 OA
ENDROOT
BRANCH   5   7
HETATM    7  O   UNK N   1      32.854  14.889   6.340  0.00  0.00    -0.315 OA
BRANCH   7   8
HETATM    8  C   UNK N   1      32.586  15.531   5.170  0.00  0.00     0.105 A 
HETATM    9  C   UNK N   1      33.538  15.617   4.143  0.00  0.00     0.039 A 
HETATM   10  C   UNK N   1      33.260  16.288   2.955  0.00  0.00     0.003 A 
HETATM   11  C   UNK N   1      32.020  16.893   2.775  0.00  0.00     0.003 A 
HETATM   12  C   UNK N   1      31.063  16.834   3.788  0.00  0.00     0.039 A 
HETATM   13  C   UNK N   1      31.326  16.159   4.993  0.00  0.00     0.136 A 
BRANCH  13  14
HETATM   14  N   UNK N   1      30.314  16.120   6.007  0.00  0.00    -0.113 N 
HETATM   15  O   UNK N   1      29.419  15.332   5.951  0.00  0.00    -0.532 OA
HETATM   16  O   UNK N   1      30.356  16.891   6.920  0.00  0.00    -0.532 OA
ENDBRANCH  13  14
ENDBRANCH   7   8
ENDBRANCH   5   7
BRANCH   4  17
HETATM   17  O   UNK N   1      31.742  15.288   9.024  0.00  0.00    -0.388 OA
HETATM   18  H   UNK N   1      30.838  15.432   9.346  0.00  0.00     0.210 HD
ENDBRANCH   4  17
BRANCH   3  19
HETATM   19  O   UNK N   1      33.479  14.879  11.189  0.00  0.00    -0.390 OA
HETATM   20  H   UNK N   1      33.181  14.013  11.512  0.00  0.00     0.210 HD
ENDBRANCH   3  19
BRANCH   1  21
HETATM   21  C   UNK N   1      34.670  18.657   8.239  0.00  0.00     0.198 C 
BRANCH  21  22
HETATM   22  O   UNK N   1      35.687  19.201   9.024  0.00  0.00    -0.398 OA
HETATM   23  H   UNK N   1      36.522  19.514   8.643  0.00  0.00     0.209 HD
ENDBRANCH  21  22
ENDBRANCH   1  21
BRANCH   2  24
HETATM   24  O   UNK N   1      35.086  17.189  10.789  0.00  0.00    -0.390 OA
HETATM   25  H   UNK N   1      35.603  16.541  11.293  0.00  0.00     0.210 HD
ENDBRANCH   2  24
TORSDOF 8
ENDMDL
MODEL 7
REMARK VINA RESULT:      -6.2      5.588      9.722
REMARK  8 active torsions:
REMARK  status: ('A' for Active; 'I' for Inactive)
REMARK    1  A    between atoms: C_8  and  C_5 
REMARK    2  A    between atoms: O_14  and  C_5 
REMARK    3  A    between atoms: N_13  and  C_6 
REMARK    4  A    between atoms: O_20  and  C_7 
REMARK    5  A    between atoms: C_9  and  O_15 
REMARK    6  A    between atoms: C_10  and  O_16 
REMARK    7  A    between atoms: C_11  and  O_17 
REMARK    8  A    between atoms: C_12  and  O_20 
ROOT
HETATM    1  C   UNK N   1      33.539  16.006   9.760  0.00  0.00     0.179 C 
HETATM    2  C   UNK N   1      34.667  16.853   9.124  0.00  0.00     0.180 C 
HETATM    3  C   UNK N   1      34.064  18.156   8.586  0.00  0.00     0.183 C 
HETATM    4  C   UNK N   1      32.896  17.842   7.645  0.00  0.00     0.205 C 
HETATM    5  C   UNK N   1      31.876  16.962   8.415  0.00  0.00     0.298 C 
HETATM    6  O   UNK N   1      32.522  15.760   8.806  0.00  0.00    -0.348 OA
ENDROOT
BRANCH   5   7
HETATM    7  O   UNK N   1      30.737  16.586   7.708  0.00  0.00    -0.315 OA
BRANCH   7   8
HETATM    8  C   UNK N   1      29.841  17.290   6.964  0.00  0.00     0.105 A 
HETATM    9  C   UNK N   1      29.947  17.372   5.567  0.00  0.00     0.039 A 
HETATM   10  C   UNK N   1      29.033  18.106   4.816  0.00  0.00     0.003 A 
HETATM   11  C   UNK N   1      27.995  18.779   5.453  0.00  0.00     0.003 A 
HETATM   12  C   UNK N   1      27.878  18.725   6.842  0.00  0.00     0.039 A 
HETATM   13  C   UNK N   1      28.791  17.987   7.616  0.00  0.00     0.136 A 
BRANCH  13  14
HETATM   14  N   UNK N   1      28.633  17.955   9.040  0.00  0.00    -0.113 N 
HETATM   15  O   UNK N   1      27.869  17.198   9.556  0.00  0.00    -0.532 OA
HETATM   16  O   UNK N   1      29.266  18.703   9.726  0.00  0.00    -0.532 OA
ENDBRANCH  13  14
ENDBRANCH   7   8
ENDBRANCH   5   7
BRANCH   4  17
HETATM   17  O   UNK N   1      33.354  17.156   6.513  0.00  0.00    -0.388 OA
HETATM   18  H   UNK N   1      33.474  16.492   5.816  0.00  0.00     0.210 HD
ENDBRANCH   4  17
BRANCH   3  19
HETATM   19  O   UNK N   1      35.036  18.907   7.919  0.00  0.00    -0.390 OA
HETATM   20  H   UNK N   1      34.954  19.483   7.142  0.00  0.00     0.210 HD
ENDBRANCH   3  19
BRANCH   1  21
HETATM   21  C   UNK N   1      34.060  14.647  10.221  0.00  0.00     0.198 C 
BRANCH  21  22
HETATM   22  O   UNK N   1      33.871  14.473  11.592  0.00  0.00    -0.398 OA
HETATM   23  H   UNK N   1      34.108  15.157  12.237  0.00  0.00     0.209 HD
ENDBRANCH  21  22
ENDBRANCH   1  21
BRANCH   2  24
HETATM   24  O   UNK N   1      35.658  17.148  10.063  0.00  0.00    -0.390 OA
HETATM   25  H   UNK N   1      35.841  18.066  10.317  0.00  0.00     0.210 HD
ENDBRANCH   2  24
TORSDOF 8
ENDMDL
MODEL 8
REMARK VINA RESULT:      -6.2     22.896     24.819
REMARK  8 active torsions:
REMARK  status: ('A' for Active; 'I' for Inactive)
REMARK    1  A    between atoms: C_8  and  C_5 
REMARK    2  A    between atoms: O_14  and  C_5 
REMARK    3  A    between atoms: N_13  and  C_6 
REMARK    4  A    between atoms: O_20  and  C_7 
REMARK    5  A    between atoms: C_9  and  O_15 
REMARK    6  A    between atoms: C_10  and  O_16 
REMARK    7  A    between atoms: C_11  and  O_17 
REMARK    8  A    between atoms: C_12  and  O_20 
ROOT
HETATM    1  C   UNK N   1      27.957  22.313  -7.429  0.00  0.00     0.179 C 
HETATM    2  C   UNK N   1      27.173  21.391  -8.394  0.00  0.00     0.180 C 
HETATM    3  C   UNK N   1      25.954  22.153  -8.926  0.00  0.00     0.183 C 
HETATM    4  C   UNK N   1      25.129  22.701  -7.757  0.00  0.00     0.205 C 
HETATM    5  C   UNK N   1      26.060  23.569  -6.869  0.00  0.00     0.298 C 
HETATM    6  O   UNK N   1      27.111  22.748  -6.381  0.00  0.00    -0.348 OA
ENDROOT
BRANCH   5   7
HETATM    7  O   UNK N   1      25.469  24.158  -5.756  0.00  0.00    -0.315 OA
BRANCH   7   8
HETATM    8  C   UNK N   1      25.583  25.394  -5.197  0.00  0.00     0.105 A 
HETATM    9  C   UNK N   1      24.903  26.504  -5.720  0.00  0.00     0.039 A 
HETATM   10  C   UNK N   1      25.037  27.767  -5.150  0.00  0.00     0.003 A 
HETATM   11  C   UNK N   1      25.865  27.944  -4.045  0.00  0.00     0.003 A 
HETATM   12  C   UNK N   1      26.564  26.858  -3.518  0.00  0.00     0.039 A 
HETATM   13  C   UNK N   1      26.438  25.575  -4.080  0.00  0.00     0.136 A 
BRANCH  13  14
HETATM   14  N   UNK N   1      27.172  24.487  -3.505  0.00  0.00    -0.113 N 
HETATM   15  O   UNK N   1      26.683  23.791  -2.668  0.00  0.00    -0.532 OA
HETATM   16  O   UNK N   1      28.294  24.272  -3.859  0.00  0.00    -0.532 OA
ENDBRANCH  13  14
ENDBRANCH   7   8
ENDBRANCH   5   7
BRANCH   4  17
HETATM   17  O   UNK N   1      24.599  21.649  -7.000  0.00  0.00    -0.388 OA
HETATM   18  H   UNK N   1      24.367  20.764  -6.676  0.00  0.00     0.210 HD
ENDBRANCH   4  17
BRANCH   3  19
HETATM   19  O   UNK N   1      25.168  21.322  -9.728  0.00  0.00    -0.390 OA
HETATM   20  H   UNK N   1      25.431  20.668 -10.394  0.00  0.00     0.210 HD
ENDBRANCH   3  19
BRANCH   1  21
HETATM   21  C   UNK N   1      29.125  21.573  -6.783  0.00  0.00     0.198 C 
BRANCH  21  22
HETATM   22  O   UNK N   1      29.449  22.126  -5.544  0.00  0.00    -0.398 OA
HETATM   23  H   UNK N   1      28.788  22.257  -4.848  0.00  0.00     0.209 HD
ENDBRANCH  21  22
ENDBRANCH   1  21
BRANCH   2  24
HETATM   24  O   UNK N   1      27.978  20.989  -9.462  0.00  0.00    -0.390 OA
HETATM   25  H   UNK N   1      28.664  21.578  -9.813  0.00  0.00     0.210 HD
ENDBRANCH   2  24
TORSDOF 8
ENDMDL
MODEL 9
REMARK VINA RESULT:      -6.2      4.230      8.033
REMARK  8 active torsions:
REMARK  status: ('A' for Active; 'I' for Inactive)
REMARK    1  A    between atoms: C_8  and  C_5 
REMARK    2  A    between atoms: O_14  and  C_5 
REMARK    3  A    between atoms: N_13  and  C_6 
REMARK    4  A    between atoms: O_20  and  C_7 
REMARK    5  A    between atoms: C_9  and  O_15 
REMARK    6  A    between atoms: C_10  and  O_16 
REMARK    7  A    between atoms: C_11  and  O_17 
REMARK    8  A    between atoms: C_12  and  O_20 
ROOT
HETATM    1  C   UNK N   1      34.446  13.304  10.393  0.00  0.00     0.179 C 
HETATM    2  C   UNK N   1      35.285  13.533  11.673  0.00  0.00     0.180 C 
HETATM    3  C   UNK N   1      35.442  15.040  11.900  0.00  0.00     0.183 C 
HETATM    4  C   UNK N   1      36.009  15.702  10.639  0.00  0.00     0.205 C 
HETATM    5  C   UNK N   1      35.082  15.350   9.446  0.00  0.00     0.298 C 
HETATM    6  O   UNK N   1      35.064  13.939   9.289  0.00  0.00    -0.348 OA
ENDROOT
BRANCH   5   7
HETATM    7  O   UNK N   1      35.446  15.880   8.212  0.00  0.00    -0.315 OA
BRANCH   7   8
HETATM    8  C   UNK N   1      34.740  16.149   7.080  0.00  0.00     0.105 A 
HETATM    9  C   UNK N   1      34.712  15.254   5.999  0.00  0.00     0.039 A 
HETATM   10  C   UNK N   1      33.998  15.544   4.840  0.00  0.00     0.003 A 
HETATM   11  C   UNK N   1      33.301  16.744   4.738  0.00  0.00     0.003 A 
HETATM   12  C   UNK N   1      33.326  17.656   5.793  0.00  0.00     0.039 A 
HETATM   13  C   UNK N   1      34.040  17.379   6.972  0.00  0.00     0.136 A 
BRANCH  13  14
HETATM   14  N   UNK N   1      34.038  18.342   8.033  0.00  0.00    -0.113 N 
HETATM   15  O   UNK N   1      34.977  19.056   8.217  0.00  0.00    -0.532 OA
HETATM   16  O   UNK N   1      33.088  18.431   8.754  0.00  0.00    -0.532 OA
ENDBRANCH  13  14
ENDBRANCH   7   8
ENDBRANCH   5   7
BRANCH   4  17
HETATM   17  O   UNK N   1      37.305  15.234  10.386  0.00  0.00    -0.388 OA
HETATM   18  H   UNK N   1      38.224  14.942  10.495  0.00  0.00     0.210 HD
ENDBRANCH   4  17
BRANCH   3  19
HETATM   19  O   UNK N   1      36.273  15.288  12.995  0.00  0.00    -0.390 OA
HETATM   20  H   UNK N   1      36.966  14.735  13.390  0.00  0.00     0.210 HD
ENDBRANCH   3  19
BRANCH   1  21
HETATM   21  C   UNK N   1      34.343  11.819  10.056  0.00  0.00     0.198 C 
BRANCH  21  22
HETATM   22  O   UNK N   1      33.585  11.137  11.007  0.00  0.00    -0.398 OA
HETATM   23  H   UNK N   1      32.628  11.011  10.912  0.00  0.00     0.209 HD
ENDBRANCH  21  22
ENDBRANCH   1  21
BRANCH   2  24
HETATM   24  O   UNK N   1      34.666  12.953  12.783  0.00  0.00    -0.390 OA
HETATM   25  H   UNK N   1      33.700  12.874  12.825  0.00  0.00     0.210 HD
ENDBRANCH   2  24
TORSDOF 8
ENDMDL
