MODEL 1
REMARK VINA RESULT:      -6.7      0.000      0.000
REMARK  12 active torsions:
REMARK  status: ('A' for Active; 'I' for Inactive)
REMARK    1  A    between atoms: C_4  and  C_2 
REMARK    2  A    between atoms: O_27  and  C_2 
REMARK    3  A    between atoms: C_6  and  O_19 
REMARK    4  A    between atoms: C_7  and  O_20 
REMARK    5  A    between atoms: O_21  and  C_9 
REMARK    6  A    between atoms: C_10  and  N_18 
REMARK    7  A    between atoms: P_30  and  O_22 
REMARK    8  A    between atoms: P_30  and  O_23 
REMARK    9  A    between atoms: P_31  and  O_25 
REMARK   10  A    between atoms: P_31  and  O_27 
REMARK   11  A    between atoms: P_30  and  O_29 
REMARK   12  A    between atoms: P_31  and  O_29 
ROOT
HETATM    1  C   UNK N   1      34.529  16.951   8.777  0.00  0.00     0.180 C 
HETATM    2  C   UNK N   1      34.349  15.651   8.014  0.00  0.00     0.182 C 
HETATM    3  C   UNK N   1      33.701  16.170   6.768  0.00  0.00     0.198 C 
HETATM    4  C   UNK N   1      32.768  17.242   7.363  0.00  0.00     0.258 C 
HETATM    5  O   UNK N   1      33.321  17.658   8.610  0.00  0.00    -0.354 OA
ENDROOT
BRANCH   4   6
HETATM    6  N   UNK N   1      31.390  16.800   7.546  0.00  0.00    -0.319 N 
HETATM    7  C   UNK N   1      30.686  17.096   8.800  0.00  0.00     0.253 A 
HETATM    8  N   UNK N   1      29.346  17.453   8.359  0.00  0.00    -0.362 N 
HETATM    9  C   UNK N   1      28.308  17.941   9.227  0.00  0.00     0.152 C 
HETATM   10  C   UNK N   1      29.270  17.360   6.967  0.00  0.00     0.128 A 
HETATM   11  C   UNK N   1      30.458  16.952   6.490  0.00  0.00     0.153 A 
HETATM   12  C   UNK N   1      28.236  17.679   6.093  0.00  0.00     0.186 A 
HETATM   13  N   UNK N   1      30.694  16.850   5.159  0.00  0.00    -0.174 N 
HETATM   14  C   UNK N   1      29.681  17.130   4.285  0.00  0.00     0.679 A 
HETATM   15  H   UNK N   1      31.581  16.580   4.827  0.00  0.00     0.186 HD
HETATM   16  N   UNK N   1      29.877  17.023   3.027  0.00  0.00    -0.234 N 
HETATM   17  N   UNK N   1      28.461  17.547   4.754  0.00  0.00    -0.168 N 
HETATM   18  H   UNK N   1      30.762  16.759   2.686  0.00  0.00     0.174 HD
ATOM     19  HN  UNK N   1      29.115  17.212   2.375  1.00  0.00     0.174 HD
ATOM     20  HN  UNK N   1      27.714  17.762   4.093  1.00  0.00     0.186 HD
BRANCH  12  21
HETATM   21  O   UNK N   1      27.053  18.132   6.542  0.00  0.00    -0.344 OA
HETATM   22  H   UNK N   1      26.792  19.015   6.368  0.00  0.00     0.219 HD
ENDBRANCH  12  21
ENDBRANCH   4   6
BRANCH   3  23
HETATM   23  O   UNK N   1      34.661  16.805   5.971  0.00  0.00    -0.388 OA
HETATM   24  H   UNK N   1      35.487  16.715   5.470  0.00  0.00     0.210 HD
ENDBRANCH   3  23
BRANCH   2  25
HETATM   25  O   UNK N   1      35.558  14.995   7.762  0.00  0.00    -0.390 OA
HETATM   26  H   UNK N   1      36.092  15.234   6.989  0.00  0.00     0.210 HD
ENDBRANCH   2  25
BRANCH   1  27
HETATM   27  C   UNK N   1      34.810  16.704  10.256  0.00  0.00     0.215 C 
BRANCH  27  28
HETATM   28  O   UNK N   1      36.085  16.156  10.430  0.00  0.00    -0.294 OA
BRANCH  28  29
HETATM   29  P   UNK N   1      35.860  14.615  11.214  0.00  0.00     0.401 P 
HETATM   30  O   UNK N   1      34.433  14.619  11.823  0.00  0.00    -0.631 OA
BRANCH  29  31
HETATM   31  O   UNK N   1      36.915  14.453  12.587  0.00  0.00    -0.307 OA
HETATM   32  H   UNK N   1      37.760  14.930  12.609  0.00  0.00     0.222 HD
ENDBRANCH  29  31
BRANCH  29  33
HETATM   33  O   UNK N   1      36.035  13.188  10.164  0.00  0.00    -0.195 OA
BRANCH  33  34
HETATM   34  P   UNK N   1      37.698  12.596   9.903  0.00  0.00     0.399 P 
HETATM   35  O   UNK N   1      37.507  12.030  11.334  0.00  0.00    -0.631 OA
BRANCH  34  36
HETATM   36  O   UNK N   1      38.903  13.347  10.902  0.00  0.00    -0.307 OA
HETATM   37  H   UNK N   1      39.763  13.150  11.304  0.00  0.00     0.222 HD
ENDBRANCH  34  36
BRANCH  34  38
HETATM   38  O   UNK N   1      37.878  14.301   9.632  0.00  0.00    -0.307 OA
HETATM   39  H   UNK N   1      38.383  15.086   9.370  0.00  0.00     0.222 HD
ENDBRANCH  34  38
ENDBRANCH  33  34
ENDBRANCH  29  33
ENDBRANCH  28  29
ENDBRANCH  27  28
ENDBRANCH   1  27
TORSDOF 12
ENDMDL
MODEL 2
REMARK VINA RESULT:      -6.7      1.308      2.214
REMARK  12 active torsions:
REMARK  status: ('A' for Active; 'I' for Inactive)
REMARK    1  A    between atoms: C_4  and  C_2 
REMARK    2  A    between atoms: O_27  and  C_2 
REMARK    3  A    between atoms: C_6  and  O_19 
REMARK    4  A    between atoms: C_7  and  O_20 
REMARK    5  A    between atoms: O_21  and  C_9 
REMARK    6  A    between atoms: C_10  and  N_18 
REMARK    7  A    between atoms: P_30  and  O_22 
REMARK    8  A    between atoms: P_30  and  O_23 
REMARK    9  A    between atoms: P_31  and  O_25 
REMARK   10  A    between atoms: P_31  and  O_27 
REMARK   11  A    between atoms: P_30  and  O_29 
REMARK   12  A    between atoms: P_31  and  O_29 
ROOT
HETATM    1  C   UNK N   1      34.743  16.764   8.999  0.00  0.00     0.180 C 
HETATM    2  C   UNK N   1      34.531  15.395   8.377  0.00  0.00     0.182 C 
HETATM    3  C   UNK N   1      33.969  15.798   7.049  0.00  0.00     0.198 C 
HETATM    4  C   UNK N   1      33.066  16.973   7.472  0.00  0.00     0.258 C 
HETATM    5  O   UNK N   1      33.581  17.502   8.692  0.00  0.00    -0.354 OA
ENDROOT
BRANCH   4   6
HETATM    6  N   UNK N   1      31.661  16.618   7.632  0.00  0.00    -0.319 N 
HETATM    7  C   UNK N   1      30.967  16.917   8.891  0.00  0.00     0.253 A 
HETATM    8  N   UNK N   1      29.659  17.379   8.455  0.00  0.00    -0.362 N 
HETATM    9  C   UNK N   1      28.649  17.905   9.335  0.00  0.00     0.152 C 
HETATM   10  C   UNK N   1      29.588  17.339   7.061  0.00  0.00     0.128 A 
HETATM   11  C   UNK N   1      30.749  16.869   6.576  0.00  0.00     0.153 A 
HETATM   12  C   UNK N   1      28.584  17.757   6.193  0.00  0.00     0.186 A 
HETATM   13  N   UNK N   1      30.989  16.798   5.244  0.00  0.00    -0.174 N 
HETATM   14  C   UNK N   1      30.003  17.176   4.374  0.00  0.00     0.679 A 
HETATM   15  H   UNK N   1      31.858  16.480   4.907  0.00  0.00     0.186 HD
HETATM   16  N   UNK N   1      30.202  17.100   3.115  0.00  0.00    -0.234 N 
HETATM   17  N   UNK N   1      28.811  17.658   4.851  0.00  0.00    -0.168 N 
HETATM   18  H   UNK N   1      31.070  16.789   2.770  0.00  0.00     0.174 HD
ATOM     19  HN  UNK N   1      29.459  17.362   2.465  1.00  0.00     0.174 HD
ATOM     20  HN  UNK N   1      28.085  17.946   4.194  1.00  0.00     0.186 HD
BRANCH  12  21
HETATM   21  O   UNK N   1      27.430  18.272   6.651  0.00  0.00    -0.344 OA
HETATM   22  H   UNK N   1      27.267  19.193   6.580  0.00  0.00     0.219 HD
ENDBRANCH  12  21
ENDBRANCH   4   6
BRANCH   3  23
HETATM   23  O   UNK N   1      34.997  16.293   6.237  0.00  0.00    -0.388 OA
HETATM   24  H   UNK N   1      35.907  16.180   5.922  0.00  0.00     0.210 HD
ENDBRANCH   3  23
BRANCH   2  25
HETATM   25  O   UNK N   1      35.716  14.659   8.263  0.00  0.00    -0.390 OA
HETATM   26  H   UNK N   1      36.513  14.940   8.738  0.00  0.00     0.210 HD
ENDBRANCH   2  25
BRANCH   1  27
HETATM   27  C   UNK N   1      34.941  16.674  10.508  0.00  0.00     0.215 C 
BRANCH  27  28
HETATM   28  O   UNK N   1      36.184  16.105  10.808  0.00  0.00    -0.294 OA
BRANCH  28  29
HETATM   29  P   UNK N   1      35.865  14.720  11.819  0.00  0.00     0.401 P 
HETATM   30  O   UNK N   1      36.567  13.505  11.157  0.00  0.00    -0.631 OA
BRANCH  29  31
HETATM   31  O   UNK N   1      34.175  14.307  11.798  0.00  0.00    -0.307 OA
HETATM   32  H   UNK N   1      33.581  14.661  12.478  0.00  0.00     0.222 HD
ENDBRANCH  29  31
BRANCH  29  33
HETATM   33  O   UNK N   1      36.418  14.859  13.505  0.00  0.00    -0.195 OA
BRANCH  33  34
HETATM   34  P   UNK N   1      36.483  13.344  14.444  0.00  0.00     0.399 P 
HETATM   35  O   UNK N   1      34.943  13.523  14.463  0.00  0.00    -0.631 OA
BRANCH  34  36
HETATM   36  O   UNK N   1      36.019  13.500  16.110  0.00  0.00    -0.307 OA
HETATM   37  H   UNK N   1      35.448  14.043  16.674  0.00  0.00     0.222 HD
ENDBRANCH  34  36
BRANCH  34  38
HETATM   38  O   UNK N   1      37.517  14.385  15.372  0.00  0.00    -0.307 OA
HETATM   39  H   UNK N   1      37.918  15.243  15.580  0.00  0.00     0.222 HD
ENDBRANCH  34  38
ENDBRANCH  33  34
ENDBRANCH  29  33
ENDBRANCH  28  29
ENDBRANCH  27  28
ENDBRANCH   1  27
TORSDOF 12
ENDMDL
MODEL 3
REMARK VINA RESULT:      -6.7      9.337     12.534
REMARK  12 active torsions:
REMARK  status: ('A' for Active; 'I' for Inactive)
REMARK    1  A    between atoms: C_4  and  C_2 
REMARK    2  A    between atoms: O_27  and  C_2 
REMARK    3  A    between atoms: C_6  and  O_19 
REMARK    4  A    between atoms: C_7  and  O_20 
REMARK    5  A    between atoms: O_21  and  C_9 
REMARK    6  A    between atoms: C_10  and  N_18 
REMARK    7  A    between atoms: P_30  and  O_22 
REMARK    8  A    between atoms: P_30  and  O_23 
REMARK    9  A    between atoms: P_31  and  O_25 
REMARK   10  A    between atoms: P_31  and  O_27 
REMARK   11  A    between atoms: P_30  and  O_29 
REMARK   12  A    between atoms: P_31  and  O_29 
ROOT
HETATM    1  C   UNK N   1      21.176  19.596   3.083  0.00  0.00     0.180 C 
HETATM    2  C   UNK N   1      20.719  19.026   1.753  0.00  0.00     0.182 C 
HETATM    3  C   UNK N   1      19.583  18.167   2.215  0.00  0.00     0.198 C 
HETATM    4  C   UNK N   1      20.176  17.597   3.518  0.00  0.00     0.258 C 
HETATM    5  O   UNK N   1      21.168  18.509   3.983  0.00  0.00    -0.354 OA
ENDROOT
BRANCH   4   6
HETATM    6  N   UNK N   1      20.746  16.262   3.380  0.00  0.00    -0.319 N 
HETATM    7  C   UNK N   1      20.475  15.469   2.174  0.00  0.00     0.253 A 
HETATM    8  N   UNK N   1      21.756  14.843   1.887  0.00  0.00    -0.362 N 
HETATM    9  C   UNK N   1      22.029  14.051   0.717  0.00  0.00     0.152 C 
HETATM   10  C   UNK N   1      22.691  15.224   2.851  0.00  0.00     0.128 A 
HETATM   11  C   UNK N   1      22.097  16.034   3.743  0.00  0.00     0.153 A 
HETATM   12  C   UNK N   1      24.053  14.953   2.950  0.00  0.00     0.186 A 
HETATM   13  N   UNK N   1      22.792  16.619   4.749  0.00  0.00    -0.174 N 
HETATM   14  C   UNK N   1      24.125  16.341   4.880  0.00  0.00     0.679 A 
HETATM   15  H   UNK N   1      22.345  17.235   5.374  0.00  0.00     0.186 HD
HETATM   16  N   UNK N   1      24.794  16.868   5.832  0.00  0.00    -0.234 N 
HETATM   17  N   UNK N   1      24.749  15.516   3.980  0.00  0.00    -0.168 N 
HETATM   18  H   UNK N   1      24.356  17.490   6.458  0.00  0.00     0.174 HD
ATOM     19  HN  UNK N   1      25.784  16.645   5.943  1.00  0.00     0.174 HD
ATOM     20  HN  UNK N   1      25.745  15.322   4.081  1.00  0.00     0.186 HD
BRANCH  12  21
HETATM   21  O   UNK N   1      24.682  14.182   2.046  0.00  0.00    -0.344 OA
HETATM   22  H   UNK N   1      24.663  13.249   2.133  0.00  0.00     0.219 HD
ENDBRANCH  12  21
ENDBRANCH   4   6
BRANCH   3  23
HETATM   23  O   UNK N   1      18.487  18.976   2.539  0.00  0.00    -0.388 OA
HETATM   24  H   UNK N   1      18.133  19.668   3.119  0.00  0.00     0.210 HD
ENDBRANCH   3  23
BRANCH   2  25
HETATM   25  O   UNK N   1      20.317  20.013   0.847  0.00  0.00    -0.390 OA
HETATM   26  H   UNK N   1      20.227  19.803  -0.096  0.00  0.00     0.210 HD
ENDBRANCH   2  25
BRANCH   1  27
HETATM   27  C   UNK N   1      22.570  20.206   2.988  0.00  0.00     0.215 C 
BRANCH  27  28
HETATM   28  O   UNK N   1      23.411  19.668   3.968  0.00  0.00    -0.294 OA
BRANCH  28  29
HETATM   29  P   UNK N   1      25.046  19.972   3.442  0.00  0.00     0.401 P 
HETATM   30  O   UNK N   1      24.961  20.529   1.996  0.00  0.00    -0.631 OA
BRANCH  29  31
HETATM   31  O   UNK N   1      25.937  18.488   3.282  0.00  0.00    -0.307 OA
HETATM   32  H   UNK N   1      26.076  17.920   4.056  0.00  0.00     0.222 HD
ENDBRANCH  29  31
BRANCH  29  33
HETATM   33  O   UNK N   1      25.974  21.113   4.445  0.00  0.00    -0.195 OA
BRANCH  33  34
HETATM   34  P   UNK N   1      26.835  20.418   5.844  0.00  0.00     0.399 P 
HETATM   35  O   UNK N   1      27.870  20.024   4.758  0.00  0.00    -0.631 OA
BRANCH  34  36
HETATM   36  O   UNK N   1      26.931  18.684   5.851  0.00  0.00    -0.307 OA
HETATM   37  H   UNK N   1      26.523  17.916   5.424  0.00  0.00     0.222 HD
ENDBRANCH  34  36
BRANCH  34  38
HETATM   38  O   UNK N   1      25.295  19.624   5.941  0.00  0.00    -0.307 OA
HETATM   39  H   UNK N   1      24.679  18.902   5.741  0.00  0.00     0.222 HD
ENDBRANCH  34  38
ENDBRANCH  33  34
ENDBRANCH  29  33
ENDBRANCH  28  29
ENDBRANCH  27  28
ENDBRANCH   1  27
TORSDOF 12
ENDMDL
MODEL 4
REMARK VINA RESULT:      -6.7      4.340      6.564
REMARK  12 active torsions:
REMARK  status: ('A' for Active; 'I' for Inactive)
REMARK    1  A    between atoms: C_4  and  C_2 
REMARK    2  A    between atoms: O_27  and  C_2 
REMARK    3  A    between atoms: C_6  and  O_19 
REMARK    4  A    between atoms: C_7  and  O_20 
REMARK    5  A    between atoms: O_21  and  C_9 
REMARK    6  A    between atoms: C_10  and  N_18 
REMARK    7  A    between atoms: P_30  and  O_22 
REMARK    8  A    between atoms: P_30  and  O_23 
REMARK    9  A    between atoms: P_31  and  O_25 
REMARK   10  A    between atoms: P_31  and  O_27 
REMARK   11  A    between atoms: P_30  and  O_29 
REMARK   12  A    between atoms: P_31  and  O_29 
ROOT
HETATM    1  C   UNK N   1      34.462  10.871   9.153  0.00  0.00     0.180 C 
HETATM    2  C   UNK N   1      33.232  11.759   9.141  0.00  0.00     0.182 C 
HETATM    3  C   UNK N   1      33.285  12.257   7.730  0.00  0.00     0.198 C 
HETATM    4  C   UNK N   1      34.802  12.465   7.564  0.00  0.00     0.258 C 
HETATM    5  O   UNK N   1      35.465  11.605   8.487  0.00  0.00    -0.354 OA
ENDROOT
BRANCH   4   6
HETATM    6  N   UNK N   1      35.240  13.842   7.756  0.00  0.00    -0.319 N 
HETATM    7  C   UNK N   1      34.410  14.951   7.268  0.00  0.00     0.253 A 
HETATM    8  N   UNK N   1      34.505  15.938   8.332  0.00  0.00    -0.362 N 
HETATM    9  C   UNK N   1      33.759  17.168   8.368  0.00  0.00     0.152 C 
HETATM   10  C   UNK N   1      35.332  15.455   9.348  0.00  0.00     0.128 A 
HETATM   11  C   UNK N   1      35.786  14.239   9.003  0.00  0.00     0.153 A 
HETATM   12  C   UNK N   1      35.652  15.995  10.590  0.00  0.00     0.186 A 
HETATM   13  N   UNK N   1      36.550  13.498   9.843  0.00  0.00    -0.174 N 
HETATM   14  C   UNK N   1      36.900  14.024  11.055  0.00  0.00     0.679 A 
HETATM   15  H   UNK N   1      36.847  12.595   9.584  0.00  0.00     0.186 HD
HETATM   16  N   UNK N   1      37.635  13.350  11.853  0.00  0.00    -0.234 N 
HETATM   17  N   UNK N   1      36.447  15.265  11.425  0.00  0.00    -0.168 N 
HETATM   18  H   UNK N   1      37.932  12.445  11.606  0.00  0.00     0.174 HD
ATOM     19  HN  UNK N   1      37.914  13.751  12.750  1.00  0.00     0.174 HD
ATOM     20  HN  UNK N   1      36.707  15.646  12.335  1.00  0.00     0.186 HD
BRANCH  12  21
HETATM   21  O   UNK N   1      35.175  17.190  10.979  0.00  0.00    -0.344 OA
HETATM   22  H   UNK N   1      35.575  17.644  11.695  0.00  0.00     0.219 HD
ENDBRANCH  12  21
ENDBRANCH   4   6
BRANCH   3  23
HETATM   23  O   UNK N   1      32.875  11.238   6.860  0.00  0.00    -0.388 OA
HETATM   24  H   UNK N   1      32.733  10.965   5.940  0.00  0.00     0.210 HD
ENDBRANCH   3  23
BRANCH   2  25
HETATM   25  O   UNK N   1      32.053  11.062   9.426  0.00  0.00    -0.390 OA
HETATM   26  H   UNK N   1      31.271  11.173   8.862  0.00  0.00     0.210 HD
ENDBRANCH   2  25
BRANCH   1  27
HETATM   27  C   UNK N   1      34.898  10.528  10.574  0.00  0.00     0.215 C 
BRANCH  27  28
HETATM   28  O   UNK N   1      34.495  11.527  11.467  0.00  0.00    -0.294 OA
BRANCH  28  29
HETATM   29  P   UNK N   1      34.804  10.915  13.070  0.00  0.00     0.401 P 
HETATM   30  O   UNK N   1      35.066   9.391  12.931  0.00  0.00    -0.631 OA
BRANCH  29  31
HETATM   31  O   UNK N   1      33.380  11.019  14.064  0.00  0.00    -0.307 OA
HETATM   32  H   UNK N   1      32.763  11.759  13.950  0.00  0.00     0.222 HD
ENDBRANCH  29  31
BRANCH  29  33
HETATM   33  O   UNK N   1      36.176  11.661  13.924  0.00  0.00    -0.195 OA
BRANCH  33  34
HETATM   34  P   UNK N   1      35.795  13.055  14.969  0.00  0.00     0.399 P 
HETATM   35  O   UNK N   1      34.976  13.505  13.732  0.00  0.00    -0.631 OA
BRANCH  34  36
HETATM   36  O   UNK N   1      36.473  14.565  14.444  0.00  0.00    -0.307 OA
HETATM   37  H   UNK N   1      36.700  15.032  13.626  0.00  0.00     0.222 HD
ENDBRANCH  34  36
BRANCH  34  38
HETATM   38  O   UNK N   1      37.530  13.084  14.953  0.00  0.00    -0.307 OA
HETATM   39  H   UNK N   1      38.403  12.810  15.275  0.00  0.00     0.222 HD
ENDBRANCH  34  38
ENDBRANCH  33  34
ENDBRANCH  29  33
ENDBRANCH  28  29
ENDBRANCH  27  28
ENDBRANCH   1  27
TORSDOF 12
ENDMDL
MODEL 5
REMARK VINA RESULT:      -6.6     12.625     14.924
REMARK  12 active torsions:
REMARK  status: ('A' for Active; 'I' for Inactive)
REMARK    1  A    between atoms: C_4  and  C_2 
REMARK    2  A    between atoms: O_27  and  C_2 
REMARK    3  A    between atoms: C_6  and  O_19 
REMARK    4  A    between atoms: C_7  and  O_20 
REMARK    5  A    between atoms: O_21  and  C_9 
REMARK    6  A    between atoms: C_10  and  N_18 
REMARK    7  A    between atoms: P_30  and  O_22 
REMARK    8  A    between atoms: P_30  and  O_23 
REMARK    9  A    between atoms: P_31  and  O_25 
REMARK   10  A    between atoms: P_31  and  O_27 
REMARK   11  A    between atoms: P_30  and  O_29 
REMARK   12  A    between atoms: P_31  and  O_29 
ROOT
HETATM    1  C   UNK N   1      40.796  22.452   0.768  0.00  0.00     0.180 C 
HETATM    2  C   UNK N   1      41.496  21.499  -0.184  0.00  0.00     0.182 C 
HETATM    3  C   UNK N   1      40.838  20.212   0.206  0.00  0.00     0.198 C 
HETATM    4  C   UNK N   1      40.760  20.391   1.735  0.00  0.00     0.258 C 
HETATM    5  O   UNK N   1      40.767  21.789   2.012  0.00  0.00    -0.354 OA
ENDROOT
BRANCH   4   6
HETATM    6  N   UNK N   1      41.831  19.727   2.469  0.00  0.00    -0.319 N 
HETATM    7  C   UNK N   1      42.534  18.586   1.869  0.00  0.00     0.253 A 
HETATM    8  N   UNK N   1      43.923  18.814   2.236  0.00  0.00    -0.362 N 
HETATM    9  C   UNK N   1      45.027  18.014   1.774  0.00  0.00     0.152 C 
HETATM   10  C   UNK N   1      44.022  19.980   2.998  0.00  0.00     0.128 A 
HETATM   11  C   UNK N   1      42.796  20.504   3.159  0.00  0.00     0.153 A 
HETATM   12  C   UNK N   1      45.138  20.643   3.499  0.00  0.00     0.186 A 
HETATM   13  N   UNK N   1      42.603  21.686   3.794  0.00  0.00    -0.174 N 
HETATM   14  C   UNK N   1      43.684  22.337   4.320  0.00  0.00     0.679 A 
HETATM   15  H   UNK N   1      41.699  22.070   3.875  0.00  0.00     0.186 HD
HETATM   16  N   UNK N   1      43.523  23.443   4.939  0.00  0.00    -0.234 N 
HETATM   17  N   UNK N   1      44.944  21.817   4.166  0.00  0.00    -0.168 N 
HETATM   18  H   UNK N   1      42.623  23.837   5.019  0.00  0.00     0.174 HD
ATOM     19  HN  UNK N   1      44.326  23.919   5.350  1.00  0.00     0.174 HD
ATOM     20  HN  UNK N   1      45.746  22.315   4.555  1.00  0.00     0.186 HD
BRANCH  12  21
HETATM   21  O   UNK N   1      46.380  20.164   3.314  0.00  0.00    -0.344 OA
HETATM   22  H   UNK N   1      47.072  20.742   3.057  0.00  0.00     0.219 HD
ENDBRANCH  12  21
ENDBRANCH   4   6
BRANCH   3  23
HETATM   23  O   UNK N   1      39.536  20.178  -0.308  0.00  0.00    -0.388 OA
HETATM   24  H   UNK N   1      38.957  19.894  -1.032  0.00  0.00     0.210 HD
ENDBRANCH   3  23
BRANCH   2  25
HETATM   25  O   UNK N   1      41.292  21.825  -1.529  0.00  0.00    -0.390 OA
HETATM   26  H   UNK N   1      42.021  21.758  -2.165  0.00  0.00     0.210 HD
ENDBRANCH   2  25
BRANCH   1  27
HETATM   27  C   UNK N   1      41.534  23.781   0.882  0.00  0.00     0.215 C 
BRANCH  27  28
HETATM   28  O   UNK N   1      42.647  23.656   1.720  0.00  0.00    -0.294 OA
BRANCH  28  29
HETATM   29  P   UNK N   1      44.048  24.007   0.742  0.00  0.00     0.401 P 
HETATM   30  O   UNK N   1      43.636  23.782  -0.738  0.00  0.00    -0.631 OA
BRANCH  29  31
HETATM   31  O   UNK N   1      45.312  22.846   1.020  0.00  0.00    -0.307 OA
HETATM   32  H   UNK N   1      46.233  23.073   0.815  0.00  0.00     0.222 HD
ENDBRANCH  29  31
BRANCH  29  33
HETATM   33  O   UNK N   1      44.708  25.651   0.913  0.00  0.00    -0.195 OA
BRANCH  33  34
HETATM   34  P   UNK N   1      46.023  25.857   2.101  0.00  0.00     0.399 P 
HETATM   35  O   UNK N   1      46.837  25.078   1.037  0.00  0.00    -0.631 OA
BRANCH  34  36
HETATM   36  O   UNK N   1      46.556  24.388   2.858  0.00  0.00    -0.307 OA
HETATM   37  H   UNK N   1      46.255  23.737   3.509  0.00  0.00     0.222 HD
ENDBRANCH  34  36
BRANCH  34  38
HETATM   38  O   UNK N   1      44.803  25.067   3.049  0.00  0.00    -0.307 OA
HETATM   39  H   UNK N   1      44.127  24.388   3.196  0.00  0.00     0.222 HD
ENDBRANCH  34  38
ENDBRANCH  33  34
ENDBRANCH  29  33
ENDBRANCH  28  29
ENDBRANCH  27  28
ENDBRANCH   1  27
TORSDOF 12
ENDMDL
MODEL 6
REMARK VINA RESULT:      -6.6      2.548      4.059
REMARK  12 active torsions:
REMARK  status: ('A' for Active; 'I' for Inactive)
REMARK    1  A    between atoms: C_4  and  C_2 
REMARK    2  A    between atoms: O_27  and  C_2 
REMARK    3  A    between atoms: C_6  and  O_19 
REMARK    4  A    between atoms: C_7  and  O_20 
REMARK    5  A    between atoms: O_21  and  C_9 
REMARK    6  A    between atoms: C_10  and  N_18 
REMARK    7  A    between atoms: P_30  and  O_22 
REMARK    8  A    between atoms: P_30  and  O_23 
REMARK    9  A    between atoms: P_31  and  O_25 
REMARK   10  A    between atoms: P_31  and  O_27 
REMARK   11  A    between atoms: P_30  and  O_29 
REMARK   12  A    between atoms: P_31  and  O_29 
ROOT
HETATM    1  C   UNK N   1      32.989  14.057   5.356  0.00  0.00     0.180 C 
HETATM    2  C   UNK N   1      31.528  13.649   5.365  0.00  0.00     0.182 C 
HETATM    3  C   UNK N   1      31.008  14.521   4.264  0.00  0.00     0.198 C 
HETATM    4  C   UNK N   1      31.797  15.816   4.537  0.00  0.00     0.258 C 
HETATM    5  O   UNK N   1      32.989  15.462   5.235  0.00  0.00    -0.354 OA
ENDROOT
BRANCH   4   6
HETATM    6  N   UNK N   1      31.054  16.821   5.288  0.00  0.00    -0.319 N 
HETATM    7  C   UNK N   1      29.601  16.687   5.453  0.00  0.00     0.253 A 
HETATM    8  N   UNK N   1      29.380  17.091   6.833  0.00  0.00    -0.362 N 
HETATM    9  C   UNK N   1      28.111  17.015   7.508  0.00  0.00     0.152 C 
HETATM   10  C   UNK N   1      30.597  17.445   7.420  0.00  0.00     0.128 A 
HETATM   11  C   UNK N   1      31.576  17.314   6.510  0.00  0.00     0.153 A 
HETATM   12  C   UNK N   1      30.900  17.809   8.728  0.00  0.00     0.186 A 
HETATM   13  N   UNK N   1      32.878  17.516   6.830  0.00  0.00    -0.174 N 
HETATM   14  C   UNK N   1      33.193  17.904   8.103  0.00  0.00     0.679 A 
HETATM   15  H   UNK N   1      33.585  17.384   6.157  0.00  0.00     0.186 HD
HETATM   16  N   UNK N   1      34.412  18.118   8.420  0.00  0.00    -0.234 N 
HETATM   17  N   UNK N   1      32.206  18.044   9.045  0.00  0.00    -0.168 N 
HETATM   18  H   UNK N   1      35.126  17.983   7.755  0.00  0.00     0.174 HD
ATOM     19  HN  UNK N   1      34.646  18.428   9.363  1.00  0.00     0.174 HD
ATOM     20  HN  UNK N   1      32.452  18.326   9.994  1.00  0.00     0.186 HD
BRANCH  12  21
HETATM   21  O   UNK N   1      29.945  17.905   9.669  0.00  0.00    -0.344 OA
HETATM   22  H   UNK N   1      29.124  18.308   9.464  0.00  0.00     0.219 HD
ENDBRANCH  12  21
ENDBRANCH   4   6
BRANCH   3  23
HETATM   23  O   UNK N   1      31.412  14.003   3.027  0.00  0.00    -0.388 OA
HETATM   24  H   UNK N   1      31.996  14.100   2.259  0.00  0.00     0.210 HD
ENDBRANCH   3  23
BRANCH   2  25
HETATM   25  O   UNK N   1      31.341  12.286   5.110  0.00  0.00    -0.390 OA
HETATM   26  H   UNK N   1      31.737  11.877   4.326  0.00  0.00     0.210 HD
ENDBRANCH   2  25
BRANCH   1  27
HETATM   27  C   UNK N   1      33.705  13.626   6.631  0.00  0.00     0.215 C 
BRANCH  27  28
HETATM   28  O   UNK N   1      33.764  14.684   7.544  0.00  0.00    -0.294 OA
BRANCH  28  29
HETATM   29  P   UNK N   1      33.435  14.003   9.116  0.00  0.00     0.401 P 
HETATM   30  O   UNK N   1      32.552  12.747   8.890  0.00  0.00    -0.631 OA
BRANCH  29  31
HETATM   31  O   UNK N   1      32.437  15.068  10.062  0.00  0.00    -0.307 OA
HETATM   32  H   UNK N   1      31.895  15.742   9.623  0.00  0.00     0.222 HD
ENDBRANCH  29  31
BRANCH  29  33
HETATM   33  O   UNK N   1      34.868  13.539  10.064  0.00  0.00    -0.195 OA
BRANCH  33  34
HETATM   34  P   UNK N   1      35.640  14.833  11.019  0.00  0.00     0.399 P 
HETATM   35  O   UNK N   1      34.401  14.628  11.927  0.00  0.00    -0.631 OA
BRANCH  34  36
HETATM   36  O   UNK N   1      34.777  16.340  11.033  0.00  0.00    -0.307 OA
HETATM   37  H   UNK N   1      34.925  17.278  11.226  0.00  0.00     0.222 HD
ENDBRANCH  34  36
BRANCH  34  38
HETATM   38  O   UNK N   1      35.492  15.578   9.458  0.00  0.00    -0.307 OA
HETATM   39  H   UNK N   1      35.083  16.190   8.827  0.00  0.00     0.222 HD
ENDBRANCH  34  38
ENDBRANCH  33  34
ENDBRANCH  29  33
ENDBRANCH  28  29
ENDBRANCH  27  28
ENDBRANCH   1  27
TORSDOF 12
ENDMDL
MODEL 7
REMARK VINA RESULT:      -6.4      5.167      7.626
REMARK  12 active torsions:
REMARK  status: ('A' for Active; 'I' for Inactive)
REMARK    1  A    between atoms: C_4  and  C_2 
REMARK    2  A    between atoms: O_27  and  C_2 
REMARK    3  A    between atoms: C_6  and  O_19 
REMARK    4  A    between atoms: C_7  and  O_20 
REMARK    5  A    between atoms: O_21  and  C_9 
REMARK    6  A    between atoms: C_10  and  N_18 
REMARK    7  A    between atoms: P_30  and  O_22 
REMARK    8  A    between atoms: P_30  and  O_23 
REMARK    9  A    between atoms: P_31  and  O_25 
REMARK   10  A    between atoms: P_31  and  O_27 
REMARK   11  A    between atoms: P_30  and  O_29 
REMARK   12  A    between atoms: P_31  and  O_29 
ROOT
HETATM    1  C   UNK N   1      35.308  13.254   7.716  0.00  0.00     0.180 C 
HETATM    2  C   UNK N   1      36.446  12.400   8.244  0.00  0.00     0.182 C 
HETATM    3  C   UNK N   1      35.676  11.210   8.725  0.00  0.00     0.198 C 
HETATM    4  C   UNK N   1      34.439  11.903   9.329  0.00  0.00     0.258 C 
HETATM    5  O   UNK N   1      34.287  13.166   8.684  0.00  0.00    -0.354 OA
ENDROOT
BRANCH   4   6
HETATM    6  N   UNK N   1      34.501  12.081  10.775  0.00  0.00    -0.319 N 
HETATM    7  C   UNK N   1      35.072  11.024  11.620  0.00  0.00     0.253 A 
HETATM    8  N   UNK N   1      35.845  11.762  12.607  0.00  0.00    -0.362 N 
HETATM    9  C   UNK N   1      36.694  11.151  13.595  0.00  0.00     0.152 C 
HETATM   10  C   UNK N   1      35.724  13.133  12.369  0.00  0.00     0.128 A 
HETATM   11  C   UNK N   1      34.916  13.325  11.313  0.00  0.00     0.153 A 
HETATM   12  C   UNK N   1      36.339  14.217  12.986  0.00  0.00     0.186 A 
HETATM   13  N   UNK N   1      34.683  14.561  10.808  0.00  0.00    -0.174 N 
HETATM   14  C   UNK N   1      35.255  15.642  11.420  0.00  0.00     0.679 A 
HETATM   15  H   UNK N   1      34.113  14.679  10.014  0.00  0.00     0.186 HD
HETATM   16  N   UNK N   1      35.034  16.818  10.972  0.00  0.00    -0.234 N 
HETATM   17  N   UNK N   1      36.082  15.466  12.500  0.00  0.00    -0.168 N 
HETATM   18  H   UNK N   1      34.470  16.944  10.175  0.00  0.00     0.174 HD
ATOM     19  HN  UNK N   1      35.443  17.627  11.440  1.00  0.00     0.174 HD
ATOM     20  HN  UNK N   1      36.510  16.278  12.944  1.00  0.00     0.186 HD
BRANCH  12  21
HETATM   21  O   UNK N   1      37.186  14.050  14.016  0.00  0.00    -0.344 OA
HETATM   22  H   UNK N   1      37.024  14.484  14.831  0.00  0.00     0.219 HD
ENDBRANCH  12  21
ENDBRANCH   4   6
BRANCH   3  23
HETATM   23  O   UNK N   1      35.267  10.443   7.626  0.00  0.00    -0.388 OA
HETATM   24  H   UNK N   1      34.641  10.348   6.891  0.00  0.00     0.210 HD
ENDBRANCH   3  23
BRANCH   2  25
HETATM   25  O   UNK N   1      37.386  12.075   7.260  0.00  0.00    -0.390 OA
HETATM   26  H   UNK N   1      38.140  11.504   7.474  0.00  0.00     0.210 HD
ENDBRANCH   2  25
BRANCH   1  27
HETATM   27  C   UNK N   1      35.735  14.704   7.514  0.00  0.00     0.215 C 
BRANCH  27  28
HETATM   28  O   UNK N   1      34.851  15.573   8.163  0.00  0.00    -0.294 OA
BRANCH  28  29
HETATM   29  P   UNK N   1      34.188  16.616   6.933  0.00  0.00     0.401 P 
HETATM   30  O   UNK N   1      34.877  16.236   5.596  0.00  0.00    -0.631 OA
BRANCH  29  31
HETATM   31  O   UNK N   1      34.648  18.271   7.202  0.00  0.00    -0.307 OA
HETATM   32  H   UNK N   1      33.977  18.928   7.446  0.00  0.00     0.222 HD
ENDBRANCH  29  31
BRANCH  29  33
HETATM   33  O   UNK N   1      32.423  16.521   6.719  0.00  0.00    -0.195 OA
BRANCH  33  34
HETATM   34  P   UNK N   1      31.445  16.487   8.211  0.00  0.00     0.399 P 
HETATM   35  O   UNK N   1      32.337  17.699   8.586  0.00  0.00    -0.631 OA
BRANCH  34  36
HETATM   36  O   UNK N   1      32.319  16.041   9.644  0.00  0.00    -0.307 OA
HETATM   37  H   UNK N   1      32.447  15.278  10.227  0.00  0.00     0.222 HD
ENDBRANCH  34  36
BRANCH  34  38
HETATM   38  O   UNK N   1      32.094  14.878   8.171  0.00  0.00    -0.307 OA
HETATM   39  H   UNK N   1      32.014  13.912   8.198  0.00  0.00     0.222 HD
ENDBRANCH  34  38
ENDBRANCH  33  34
ENDBRANCH  29  33
ENDBRANCH  28  29
ENDBRANCH  27  28
ENDBRANCH   1  27
TORSDOF 12
ENDMDL
MODEL 8
REMARK VINA RESULT:      -6.4      5.161      8.812
REMARK  12 active torsions:
REMARK  status: ('A' for Active; 'I' for Inactive)
REMARK    1  A    between atoms: C_4  and  C_2 
REMARK    2  A    between atoms: O_27  and  C_2 
REMARK    3  A    between atoms: C_6  and  O_19 
REMARK    4  A    between atoms: C_7  and  O_20 
REMARK    5  A    between atoms: O_21  and  C_9 
REMARK    6  A    between atoms: C_10  and  N_18 
REMARK    7  A    between atoms: P_30  and  O_22 
REMARK    8  A    between atoms: P_30  and  O_23 
REMARK    9  A    between atoms: P_31  and  O_25 
REMARK   10  A    between atoms: P_31  and  O_27 
REMARK   11  A    between atoms: P_30  and  O_29 
REMARK   12  A    between atoms: P_31  and  O_29 
ROOT
HETATM    1  C   UNK N   1      35.315  15.642   8.513  0.00  0.00     0.180 C 
HETATM    2  C   UNK N   1      34.234  16.093   9.477  0.00  0.00     0.182 C 
HETATM    3  C   UNK N   1      35.053  16.284  10.716  0.00  0.00     0.198 C 
HETATM    4  C   UNK N   1      36.007  15.078  10.608  0.00  0.00     0.258 C 
HETATM    5  O   UNK N   1      36.101  14.717   9.232  0.00  0.00    -0.354 OA
ENDROOT
BRANCH   4   6
HETATM    6  N   UNK N   1      35.604  13.925  11.404  0.00  0.00    -0.319 N 
HETATM    7  C   UNK N   1      35.522  12.597  10.783  0.00  0.00     0.253 A 
HETATM    8  N   UNK N   1      36.072  11.714  11.800  0.00  0.00    -0.362 N 
HETATM    9  C   UNK N   1      36.312  10.308  11.610  0.00  0.00     0.152 C 
HETATM   10  C   UNK N   1      36.430  12.459  12.925  0.00  0.00     0.128 A 
HETATM   11  C   UNK N   1      36.133  13.751  12.708  0.00  0.00     0.153 A 
HETATM   12  C   UNK N   1      37.066  12.075  14.101  0.00  0.00     0.186 A 
HETATM   13  N   UNK N   1      36.448  14.716  13.606  0.00  0.00    -0.174 N 
HETATM   14  C   UNK N   1      37.045  14.354  14.782  0.00  0.00     0.679 A 
HETATM   15  H   UNK N   1      36.251  15.662  13.415  0.00  0.00     0.186 HD
HETATM   16  N   UNK N   1      37.334  15.245  15.650  0.00  0.00    -0.234 N 
HETATM   17  N   UNK N   1      37.356  13.040  15.022  0.00  0.00    -0.168 N 
HETATM   18  H   UNK N   1      37.145  16.194  15.465  0.00  0.00     0.174 HD
ATOM     19  HN  UNK N   1      37.761  14.974  16.536  1.00  0.00     0.174 HD
ATOM     20  HN  UNK N   1      37.809  12.781  15.898  1.00  0.00     0.186 HD
BRANCH  12  21
HETATM   21  O   UNK N   1      37.414  10.796  14.325  0.00  0.00    -0.344 OA
HETATM   22  H   UNK N   1      37.482  10.197  13.607  0.00  0.00     0.219 HD
ENDBRANCH  12  21
ENDBRANCH   4   6
BRANCH   3  23
HETATM   23  O   UNK N   1      35.804  17.460  10.603  0.00  0.00    -0.388 OA
HETATM   24  H   UNK N   1      36.211  18.211  11.064  0.00  0.00     0.210 HD
ENDBRANCH   3  23
BRANCH   2  25
HETATM   25  O   UNK N   1      33.592  17.267   9.067  0.00  0.00    -0.390 OA
HETATM   26  H   UNK N   1      33.920  18.131   9.360  0.00  0.00     0.210 HD
ENDBRANCH   2  25
BRANCH   1  27
HETATM   27  C   UNK N   1      34.725  14.993   7.266  0.00  0.00     0.215 C 
BRANCH  27  28
HETATM   28  O   UNK N   1      33.376  15.333   7.125  0.00  0.00    -0.294 OA
BRANCH  28  29
HETATM   29  P   UNK N   1      33.282  16.451   5.790  0.00  0.00     0.401 P 
HETATM   30  O   UNK N   1      33.979  15.773   4.581  0.00  0.00    -0.631 OA
BRANCH  29  31
HETATM   31  O   UNK N   1      34.236  17.873   6.097  0.00  0.00    -0.307 OA
HETATM   32  H   UNK N   1      34.217  18.614   5.471  0.00  0.00     0.222 HD
ENDBRANCH  29  31
BRANCH  29  33
HETATM   33  O   UNK N   1      31.637  16.936   5.311  0.00  0.00    -0.195 OA
BRANCH  33  34
HETATM   34  P   UNK N   1      30.410  16.960   6.605  0.00  0.00     0.399 P 
HETATM   35  O   UNK N   1      31.451  17.875   7.301  0.00  0.00    -0.631 OA
BRANCH  34  36
HETATM   36  O   UNK N   1      30.882  16.157   8.070  0.00  0.00    -0.307 OA
HETATM   37  H   UNK N   1      31.082  16.359   8.996  0.00  0.00     0.222 HD
ENDBRANCH  34  36
BRANCH  34  38
HETATM   38  O   UNK N   1      30.699  15.259   6.417  0.00  0.00    -0.307 OA
HETATM   39  H   UNK N   1      31.262  14.470   6.435  0.00  0.00     0.222 HD
ENDBRANCH  34  38
ENDBRANCH  33  34
ENDBRANCH  29  33
ENDBRANCH  28  29
ENDBRANCH  27  28
ENDBRANCH   1  27
TORSDOF 12
ENDMDL
MODEL 9
REMARK VINA RESULT:      -6.3      4.691      7.377
REMARK  12 active torsions:
REMARK  status: ('A' for Active; 'I' for Inactive)
REMARK    1  A    between atoms: C_4  and  C_2 
REMARK    2  A    between atoms: O_27  and  C_2 
REMARK    3  A    between atoms: C_6  and  O_19 
REMARK    4  A    between atoms: C_7  and  O_20 
REMARK    5  A    between atoms: O_21  and  C_9 
REMARK    6  A    between atoms: C_10  and  N_18 
REMARK    7  A    between atoms: P_30  and  O_22 
REMARK    8  A    between atoms: P_30  and  O_23 
REMARK    9  A    between atoms: P_31  and  O_25 
REMARK   10  A    between atoms: P_31  and  O_27 
REMARK   11  A    between atoms: P_30  and  O_29 
REMARK   12  A    between atoms: P_31  and  O_29 
ROOT
HETATM    1  C   UNK N   1      34.688  15.087  11.318  0.00  0.00     0.180 C 
HETATM    2  C   UNK N   1      34.886  15.912  10.059  0.00  0.00     0.182 C 
HETATM    3  C   UNK N   1      33.894  15.248   9.155  0.00  0.00     0.198 C 
HETATM    4  C   UNK N   1      34.094  13.773   9.555  0.00  0.00     0.258 C 
HETATM    5  O   UNK N   1      34.610  13.748  10.884  0.00  0.00    -0.354 OA
ENDROOT
BRANCH   4   6
HETATM    6  N   UNK N   1      34.969  13.025   8.661  0.00  0.00    -0.319 N 
HETATM    7  C   UNK N   1      35.330  13.583   7.352  0.00  0.00     0.253 A 
HETATM    8  N   UNK N   1      36.739  13.245   7.218  0.00  0.00    -0.362 N 
HETATM    9  C   UNK N   1      37.580  13.685   6.137  0.00  0.00     0.152 C 
HETATM   10  C   UNK N   1      37.161  12.537   8.345  0.00  0.00     0.128 A 
HETATM   11  C   UNK N   1      36.121  12.383   9.181  0.00  0.00     0.153 A 
HETATM   12  C   UNK N   1      38.424  12.080   8.708  0.00  0.00     0.186 A 
HETATM   13  N   UNK N   1      36.263  11.798  10.396  0.00  0.00    -0.174 N 
HETATM   14  C   UNK N   1      37.490  11.316  10.757  0.00  0.00     0.679 A 
HETATM   15  H   UNK N   1      35.495  11.723  11.008  0.00  0.00     0.186 HD
HETATM   16  N   UNK N   1      37.642  10.745  11.890  0.00  0.00    -0.234 N 
HETATM   17  N   UNK N   1      38.564  11.463   9.917  0.00  0.00    -0.168 N 
HETATM   18  H   UNK N   1      36.881  10.670  12.511  0.00  0.00     0.174 HD
ATOM     19  HN  UNK N   1      38.552  10.366  12.152  1.00  0.00     0.174 HD
ATOM     20  HN  UNK N   1      39.478  11.108  10.199  1.00  0.00     0.186 HD
BRANCH  12  21
HETATM   21  O   UNK N   1      39.491  12.261   7.909  0.00  0.00    -0.344 OA
HETATM   22  H   UNK N   1      39.699  11.623   7.254  0.00  0.00     0.219 HD
ENDBRANCH  12  21
ENDBRANCH   4   6
BRANCH   3  23
HETATM   23  O   UNK N   1      32.599  15.639   9.516  0.00  0.00    -0.388 OA
HETATM   24  H   UNK N   1      31.674  15.735   9.240  0.00  0.00     0.210 HD
ENDBRANCH   3  23
BRANCH   2  25
HETATM   25  O   UNK N   1      34.620  17.272  10.250  0.00  0.00    -0.390 OA
HETATM   26  H   UNK N   1      35.265  17.837  10.703  0.00  0.00     0.210 HD
ENDBRANCH   2  25
BRANCH   1  27
HETATM   27  C   UNK N   1      35.839  15.270  12.301  0.00  0.00     0.215 C 
BRANCH  27  28
HETATM   28  O   UNK N   1      36.539  14.070  12.467  0.00  0.00    -0.294 OA
BRANCH  28  29
HETATM   29  P   UNK N   1      36.424  13.657  14.157  0.00  0.00     0.401 P 
HETATM   30  O   UNK N   1      36.938  14.882  14.959  0.00  0.00    -0.631 OA
BRANCH  29  31
HETATM   31  O   UNK N   1      37.531  12.379  14.565  0.00  0.00    -0.307 OA
HETATM   32  H   UNK N   1      37.510  11.984  15.451  0.00  0.00     0.222 HD
ENDBRANCH  29  31
BRANCH  29  33
HETATM   33  O   UNK N   1      34.794  13.233  14.733  0.00  0.00    -0.195 OA
BRANCH  33  34
HETATM   34  P   UNK N   1      34.336  11.513  14.619  0.00  0.00     0.399 P 
HETATM   35  O   UNK N   1      35.290  11.385  15.835  0.00  0.00    -0.631 OA
BRANCH  34  36
HETATM   36  O   UNK N   1      35.621  10.449  14.137  0.00  0.00    -0.307 OA
HETATM   37  H   UNK N   1      36.528  10.219  14.389  0.00  0.00     0.222 HD
ENDBRANCH  34  36
BRANCH  34  38
HETATM   38  O   UNK N   1      34.954  11.825  13.027  0.00  0.00    -0.307 OA
HETATM   39  H   UNK N   1      35.565  12.247  12.404  0.00  0.00     0.222 HD
ENDBRANCH  34  38
ENDBRANCH  33  34
ENDBRANCH  29  33
ENDBRANCH  28  29
ENDBRANCH  27  28
ENDBRANCH   1  27
TORSDOF 12
ENDMDL
