REMARK  4 active torsions:
REMARK  status: ('A' for Active; 'I' for Inactive)
REMARK    1  A    between atoms: C_7  and  C_8 
REMARK    2  A    between atoms: C_8  and  C_11 
REMARK    3  A    between atoms: C_14  and  C_18 
REMARK    4  A    between atoms: C_18  and  O_19 
ROOT
HETATM    1  C   UNK N   1      -1.369  -2.525  -0.180  0.00  0.00     0.049 C 
HETATM    2  C   UNK N   1      -0.246  -1.551  -0.153  0.00  0.00    -0.054 A 
HETATM    3  C   UNK N   1       1.018  -2.110  -0.041  0.00  0.00     0.015 A 
HETATM    4  C   UNK N   1       2.166  -1.325   0.040  0.00  0.00    -0.043 A 
HETATM    5  C   UNK N   1       2.043   0.084  -0.014  0.00  0.00    -0.043 A 
HETATM    6  C   UNK N   1       0.760   0.657  -0.106  0.00  0.00     0.017 A 
HETATM    7  C   UNK N   1      -0.402  -0.132  -0.189  0.00  0.00    -0.037 A 
HETATM    8  C   UNK N   1       3.267   0.985  -0.003  0.00  0.00    -0.020 C 
HETATM    9  C   UNK N   1       3.174   2.015  -1.116  0.00  0.00     0.020 C 
HETATM   10  C   UNK N   1       3.352   1.718   1.326  0.00  0.00     0.020 C 
HETATM   11  C   UNK N   1       4.558   0.206  -0.264  0.00  0.00     0.015 C 
HETATM   12  C   UNK N   1       4.622  -1.046   0.584  0.00  0.00     0.015 C 
HETATM   13  C   UNK N   1       3.506  -2.020   0.214  0.00  0.00    -0.020 C 
HETATM   14  C   UNK N   1       3.859  -2.770  -1.061  0.00  0.00     0.020 C 
HETATM   15  C   UNK N   1       3.430  -3.023   1.354  0.00  0.00     0.020 C 
ENDROOT
BRANCH   7  16
HETATM   16  C   UNK N   1      -1.764   0.571  -0.302  0.00  0.00     0.030 A 
HETATM   17  C   UNK N   1      -1.779   1.620  -1.407  0.00  0.00     0.022 A 
HETATM   18  C   UNK N   1      -1.877   2.049   0.041  0.00  0.00     0.022 A 
BRANCH  16  19
HETATM   19  C   UNK N   1      -3.029  -0.230  -0.322  0.00  0.00     0.022 A 
HETATM   20  C   UNK N   1      -3.397  -0.925  -1.484  0.00  0.00     0.027 A 
HETATM   21  C   UNK N   1      -4.424  -1.863  -1.423  0.00  0.00     0.022 A 
HETATM   22  C   UNK N   1      -5.075  -2.102  -0.210  0.00  0.00     0.053 A 
HETATM   23  C   UNK N   1      -4.721  -1.344   0.913  0.00  0.00     0.106 A 
HETATM   24  N   UNK N   1      -3.711  -0.435   0.837  0.00  0.00    -0.367 N 
ATOM     25  HN  UNK N   1      -3.461   0.103   1.666  1.00  0.00     0.165 HD
BRANCH  22  26
HETATM   26  C   UNK N   1      -6.072  -3.182  -0.096  0.00  0.00     0.177 C 
HETATM   27  O   UNK N   1      -6.321  -3.894  -1.058  0.00  0.00    -0.646 OA
BRANCH  26  28
HETATM   28  O   UNK N   1      -6.674  -3.427   1.083  0.00  0.00    -0.773 OA
HETATM   29  H   UNK N   1      -7.031  -3.150   1.904  0.00  0.00     0.167 HD
ENDBRANCH  26  28
ENDBRANCH  22  26
ENDBRANCH  16  19
ENDBRANCH   7  16
TORSDOF 4
