MODEL 1
REMARK VINA RESULT:      -7.7      0.000      0.000
REMARK  19 active torsions:
REMARK  status: ('A' for Active; 'I' for Inactive)
REMARK    1  A    between atoms: C_25  and  C_17 
REMARK    2  A    between atoms: O_39  and  C_17 
REMARK    3  A    between atoms: C_21  and  C_18 
REMARK    4  A    between atoms: O_46  and  C_18 
REMARK    5  A    between atoms: C_22  and  C_19 
REMARK    6  A    between atoms: O_47  and  C_19 
REMARK    7  A    between atoms: C_24  and  N_35 
REMARK    8  A    between atoms: C_28  and  N_37 
REMARK    9  A    between atoms: C_30  and  C_29 
REMARK   10  A    between atoms: C_31  and  C_29 
REMARK   11  A    between atoms: C_29  and  O_41 
REMARK   12  A    between atoms: C_32  and  C_30 
REMARK   13  A    between atoms: C_30  and  O_42 
REMARK   14  A    between atoms: C_33  and  C_31 
REMARK   15  A    between atoms: C_31  and  O_46 
REMARK   16  A    between atoms: C_34  and  C_32 
REMARK   17  A    between atoms: C_32  and  O_47 
REMARK   18  A    between atoms: C_33  and  O_43 
REMARK   19  A    between atoms: C_34  and  O_44 
ROOT
HETATM    1  C   UNK N   1      38.439   8.195  12.846  0.00  0.00     0.001 A 
HETATM    2  C   UNK N   1      37.973   9.310  13.567  0.00  0.00     0.001 A 
HETATM    3  C   UNK N   1      38.601   8.271  11.454  0.00  0.00     0.008 A 
HETATM    4  C   UNK N   1      37.671  10.504  12.898  0.00  0.00     0.010 A 
HETATM    5  C   UNK N   1      38.367   9.737   9.357  0.00  0.00     0.073 C 
HETATM    6  C   UNK N   1      38.317   9.477  10.815  0.00  0.00    -0.047 A 
HETATM    7  C   UNK N   1      37.874  10.567  11.518  0.00  0.00    -0.027 A 
HETATM    8  C   UNK N   1      38.294  11.275   9.337  0.00  0.00     0.149 C 
HETATM    9  C   UNK N   1      37.543  11.697  10.628  0.00  0.00     0.146 C 
HETATM   10  O   UNK N   1      39.609  11.746   9.409  0.00  0.00    -0.393 OA
HETATM   11  H   UNK N   1      40.508  12.105   9.352  0.00  0.00     0.210 HD
ENDROOT
BRANCH   9  12
HETATM   12  N   UNK N   1      36.109  11.663  10.388  0.00  0.00    -0.361 N 
HETATM   13  C   UNK N   1      35.282  12.607  10.665  0.00  0.00     0.144 C 
ATOM     14  HN  UNK N   1      35.727  10.818   9.963  1.00  0.00     0.162 HD
BRANCH  13  15
HETATM   15  C   UNK N   1      35.705  13.903  11.361  0.00  0.00     0.227 C 
BRANCH  15  16
HETATM   16  C   UNK N   1      35.601  15.137  10.425  0.00  0.00     0.186 C 
BRANCH  16  17
HETATM   17  C   UNK N   1      34.246  15.886  10.551  0.00  0.00     0.186 C 
BRANCH  17  18
HETATM   18  C   UNK N   1      33.659  16.411   9.202  0.00  0.00     0.227 C 
BRANCH  18  19
HETATM   19  C   UNK N   1      32.455  15.572   8.773  0.00  0.00     0.144 C 
HETATM   20  N   UNK N   1      31.264  16.056   8.615  0.00  0.00    -0.365 N 
ATOM     21  HN  UNK N   1      30.526  15.388   8.394  1.00  0.00     0.161 HD
BRANCH  20  22
HETATM   22  C   UNK N   1      30.871  17.446   8.717  0.00  0.00     0.109 C 
HETATM   23  C   UNK N   1      30.262  17.898   7.426  0.00  0.00     0.061 C 
HETATM   24  C   UNK N   1      28.910  17.204   7.494  0.00  0.00     0.147 C 
HETATM   25  O   UNK N   1      28.532  17.126   8.851  0.00  0.00    -0.382 OA
HETATM   26  C   UNK N   1      29.653  17.539   9.600  0.00  0.00     0.193 C 
BRANCH  24  27
HETATM   27  C   UNK N   1      27.857  17.963   6.704  0.00  0.00     0.196 C 
BRANCH  27  28
HETATM   28  O   UNK N   1      27.552  19.170   7.334  0.00  0.00    -0.398 OA
HETATM   29  H   UNK N   1      27.545  19.998   6.829  0.00  0.00     0.209 HD
ENDBRANCH  27  28
ENDBRANCH  24  27
ENDBRANCH  20  22
BRANCH  19  30
HETATM   30  O   UNK N   1      32.628  14.257   8.544  0.00  0.00    -0.348 OA
HETATM   31  H   UNK N   1      32.655  13.343   8.741  0.00  0.00     0.219 HD
ENDBRANCH  19  30
ENDBRANCH  18  19
BRANCH  18  32
HETATM   32  O   UNK N   1      34.607  16.379   8.152  0.00  0.00    -0.370 OA
BRANCH  32  33
HETATM   33  C   UNK N   1      34.355  17.443   7.266  0.00  0.00     0.207 C 
BRANCH  33  34
HETATM   34  C   UNK N   1      33.958  16.902   5.936  0.00  0.00    -0.035 A 
HETATM   35  C   UNK N   1      33.156  17.665   5.080  0.00  0.00     0.009 A 
HETATM   36  C   UNK N   1      32.797  17.164   3.824  0.00  0.00     0.001 A 
HETATM   37  C   UNK N   1      33.238  15.897   3.426  0.00  0.00     0.000 A 
HETATM   38  C   UNK N   1      34.034  15.132   4.283  0.00  0.00     0.001 A 
HETATM   39  C   UNK N   1      34.396  15.635   5.536  0.00  0.00     0.009 A 
ENDBRANCH  33  34
ENDBRANCH  32  33
ENDBRANCH  18  32
ENDBRANCH  17  18
BRANCH  17  40
HETATM   40  O   UNK N   1      33.289  15.062  11.149  0.00  0.00    -0.390 OA
HETATM   41  H   UNK N   1      33.488  14.348  11.774  0.00  0.00     0.210 HD
ENDBRANCH  17  40
ENDBRANCH  16  17
BRANCH  16  42
HETATM   42  O   UNK N   1      36.640  16.023  10.730  0.00  0.00    -0.390 OA
HETATM   43  H   UNK N   1      37.475  15.745  11.139  0.00  0.00     0.210 HD
ENDBRANCH  16  42
ENDBRANCH  15  16
BRANCH  15  44
HETATM   44  O   UNK N   1      35.002  14.062  12.589  0.00  0.00    -0.370 OA
BRANCH  44  45
HETATM   45  C   UNK N   1      35.883  13.816  13.667  0.00  0.00     0.207 C 
BRANCH  45  46
HETATM   46  C   UNK N   1      35.429  12.658  14.489  0.00  0.00    -0.035 A 
HETATM   47  C   UNK N   1      34.386  11.842  14.034  0.00  0.00     0.009 A 
HETATM   48  C   UNK N   1      33.973  10.742  14.794  0.00  0.00     0.001 A 
HETATM   49  C   UNK N   1      34.614  10.448  16.002  0.00  0.00     0.000 A 
HETATM   50  C   UNK N   1      35.663  11.257  16.451  0.00  0.00     0.001 A 
HETATM   51  C   UNK N   1      36.069  12.361  15.696  0.00  0.00     0.009 A 
ENDBRANCH  45  46
ENDBRANCH  44  45
ENDBRANCH  15  44
ENDBRANCH  13  15
BRANCH  13  52
HETATM   52  O   UNK N   1      33.984  12.445  10.324  0.00  0.00    -0.348 OA
HETATM   53  H   UNK N   1      33.114  12.097  10.289  0.00  0.00     0.219 HD
ENDBRANCH  13  52
ENDBRANCH   9  12
TORSDOF 19
ENDMDL
MODEL 2
REMARK VINA RESULT:      -7.6      1.762      4.242
REMARK  19 active torsions:
REMARK  status: ('A' for Active; 'I' for Inactive)
REMARK    1  A    between atoms: C_25  and  C_17 
REMARK    2  A    between atoms: O_39  and  C_17 
REMARK    3  A    between atoms: C_21  and  C_18 
REMARK    4  A    between atoms: O_46  and  C_18 
REMARK    5  A    between atoms: C_22  and  C_19 
REMARK    6  A    between atoms: O_47  and  C_19 
REMARK    7  A    between atoms: C_24  and  N_35 
REMARK    8  A    between atoms: C_28  and  N_37 
REMARK    9  A    between atoms: C_30  and  C_29 
REMARK   10  A    between atoms: C_31  and  C_29 
REMARK   11  A    between atoms: C_29  and  O_41 
REMARK   12  A    between atoms: C_32  and  C_30 
REMARK   13  A    between atoms: C_30  and  O_42 
REMARK   14  A    between atoms: C_33  and  C_31 
REMARK   15  A    between atoms: C_31  and  O_46 
REMARK   16  A    between atoms: C_34  and  C_32 
REMARK   17  A    between atoms: C_32  and  O_47 
REMARK   18  A    between atoms: C_33  and  O_43 
REMARK   19  A    between atoms: C_34  and  O_44 
ROOT
HETATM    1  C   UNK N   1      37.493   9.095  14.618  0.00  0.00     0.001 A 
HETATM    2  C   UNK N   1      37.078   8.967  13.280  0.00  0.00     0.001 A 
HETATM    3  C   UNK N   1      37.500  10.356  15.237  0.00  0.00     0.008 A 
HETATM    4  C   UNK N   1      36.666  10.096  12.558  0.00  0.00     0.010 A 
HETATM    5  C   UNK N   1      37.056  12.870  14.959  0.00  0.00     0.073 C 
HETATM    6  C   UNK N   1      37.064  11.460  14.506  0.00  0.00    -0.047 A 
HETATM    7  C   UNK N   1      36.649  11.333  13.207  0.00  0.00    -0.027 A 
HETATM    8  C   UNK N   1      36.170  13.514  13.876  0.00  0.00     0.149 C 
HETATM    9  C   UNK N   1      36.329  12.641  12.602  0.00  0.00     0.146 C 
HETATM   10  O   UNK N   1      34.848  13.422  14.322  0.00  0.00    -0.393 OA
HETATM   11  H   UNK N   1      33.935  13.469  14.645  0.00  0.00     0.210 HD
ENDROOT
BRANCH   9  12
HETATM   12  N   UNK N   1      37.497  13.079  11.856  0.00  0.00    -0.361 N 
HETATM   13  C   UNK N   1      37.477  13.748  10.758  0.00  0.00     0.144 C 
ATOM     14  HN  UNK N   1      38.412  12.835  12.235  1.00  0.00     0.162 HD
BRANCH  13  15
HETATM   15  C   UNK N   1      36.177  14.128  10.043  0.00  0.00     0.227 C 
BRANCH  15  16
HETATM   16  C   UNK N   1      35.923  15.659  10.054  0.00  0.00     0.186 C 
BRANCH  16  17
HETATM   17  C   UNK N   1      34.454  16.032  10.397  0.00  0.00     0.186 C 
BRANCH  17  18
HETATM   18  C   UNK N   1      33.561  16.378   9.163  0.00  0.00     0.227 C 
BRANCH  18  19
HETATM   19  C   UNK N   1      32.221  15.646   9.243  0.00  0.00     0.144 C 
HETATM   20  N   UNK N   1      31.075  16.235   9.116  0.00  0.00    -0.365 N 
ATOM     21  HN  UNK N   1      30.247  15.657   9.257  1.00  0.00     0.161 HD
BRANCH  20  22
HETATM   22  C   UNK N   1      30.844  17.628   8.793  0.00  0.00     0.109 C 
HETATM   23  C   UNK N   1      30.221  17.739   7.437  0.00  0.00     0.061 C 
HETATM   24  C   UNK N   1      28.806  17.269   7.737  0.00  0.00     0.147 C 
HETATM   25  O   UNK N   1      28.495  17.652   9.058  0.00  0.00    -0.382 OA
HETATM   26  C   UNK N   1      29.693  18.132   9.625  0.00  0.00     0.193 C 
BRANCH  24  27
HETATM   27  C   UNK N   1      27.803  17.876   6.771  0.00  0.00     0.196 C 
BRANCH  27  28
HETATM   28  O   UNK N   1      27.369  19.119   7.235  0.00  0.00    -0.398 OA
HETATM   29  H   UNK N   1      27.611  19.930   6.763  0.00  0.00     0.209 HD
ENDBRANCH  27  28
ENDBRANCH  24  27
ENDBRANCH  20  22
BRANCH  19  30
HETATM   30  O   UNK N   1      32.218  14.318   9.457  0.00  0.00    -0.348 OA
HETATM   31  H   UNK N   1      31.957  13.506   9.842  0.00  0.00     0.219 HD
ENDBRANCH  19  30
ENDBRANCH  18  19
BRANCH  18  32
HETATM   32  O   UNK N   1      34.175  16.029   7.937  0.00  0.00    -0.370 OA
BRANCH  32  33
HETATM   33  C   UNK N   1      34.181  17.149   7.084  0.00  0.00     0.207 C 
BRANCH  33  34
HETATM   34  C   UNK N   1      33.822  16.726   5.701  0.00  0.00    -0.035 A 
HETATM   35  C   UNK N   1      33.072  17.575   4.881  0.00  0.00     0.009 A 
HETATM   36  C   UNK N   1      32.751  17.185   3.577  0.00  0.00     0.001 A 
HETATM   37  C   UNK N   1      33.176  15.943   3.094  0.00  0.00     0.000 A 
HETATM   38  C   UNK N   1      33.922  15.091   3.915  0.00  0.00     0.001 A 
HETATM   39  C   UNK N   1      34.246  15.483   5.217  0.00  0.00     0.009 A 
ENDBRANCH  33  34
ENDBRANCH  32  33
ENDBRANCH  18  32
ENDBRANCH  17  18
BRANCH  17  40
HETATM   40  O   UNK N   1      33.841  14.992  11.098  0.00  0.00    -0.390 OA
HETATM   41  H   UNK N   1      33.238  15.110  11.849  0.00  0.00     0.210 HD
ENDBRANCH  17  40
ENDBRANCH  16  17
BRANCH  16  42
HETATM   42  O   UNK N   1      36.774  16.251  10.994  0.00  0.00    -0.390 OA
HETATM   43  H   UNK N   1      37.735  16.121  10.999  0.00  0.00     0.210 HD
ENDBRANCH  16  42
ENDBRANCH  15  16
BRANCH  15  44
HETATM   44  O   UNK N   1      36.141  13.556   8.739  0.00  0.00    -0.370 OA
BRANCH  44  45
HETATM   45  C   UNK N   1      35.210  12.493   8.721  0.00  0.00     0.207 C 
BRANCH  45  46
HETATM   46  C   UNK N   1      34.748  12.196   7.335  0.00  0.00    -0.035 A 
HETATM   47  C   UNK N   1      35.673  11.810   6.357  0.00  0.00     0.009 A 
HETATM   48  C   UNK N   1      35.239  11.509   5.061  0.00  0.00     0.001 A 
HETATM   49  C   UNK N   1      33.877  11.580   4.747  0.00  0.00     0.000 A 
HETATM   50  C   UNK N   1      32.952  11.954   5.727  0.00  0.00     0.001 A 
HETATM   51  C   UNK N   1      33.388  12.263   7.019  0.00  0.00     0.009 A 
ENDBRANCH  45  46
ENDBRANCH  44  45
ENDBRANCH  15  44
ENDBRANCH  13  15
BRANCH  13  52
HETATM   52  O   UNK N   1      38.654  14.132  10.217  0.00  0.00    -0.348 OA
HETATM   53  H   UNK N   1      39.306  14.659   9.797  0.00  0.00     0.219 HD
ENDBRANCH  13  52
ENDBRANCH   9  12
TORSDOF 19
ENDMDL
MODEL 3
REMARK VINA RESULT:      -7.5      7.280     12.315
REMARK  19 active torsions:
REMARK  status: ('A' for Active; 'I' for Inactive)
REMARK    1  A    between atoms: C_25  and  C_17 
REMARK    2  A    between atoms: O_39  and  C_17 
REMARK    3  A    between atoms: C_21  and  C_18 
REMARK    4  A    between atoms: O_46  and  C_18 
REMARK    5  A    between atoms: C_22  and  C_19 
REMARK    6  A    between atoms: O_47  and  C_19 
REMARK    7  A    between atoms: C_24  and  N_35 
REMARK    8  A    between atoms: C_28  and  N_37 
REMARK    9  A    between atoms: C_30  and  C_29 
REMARK   10  A    between atoms: C_31  and  C_29 
REMARK   11  A    between atoms: C_29  and  O_41 
REMARK   12  A    between atoms: C_32  and  C_30 
REMARK   13  A    between atoms: C_30  and  O_42 
REMARK   14  A    between atoms: C_33  and  C_31 
REMARK   15  A    between atoms: C_31  and  O_46 
REMARK   16  A    between atoms: C_34  and  C_32 
REMARK   17  A    between atoms: C_32  and  O_47 
REMARK   18  A    between atoms: C_33  and  O_43 
REMARK   19  A    between atoms: C_34  and  O_44 
ROOT
HETATM    1  C   UNK N   1      20.503  12.917  10.843  0.00  0.00     0.001 A 
HETATM    2  C   UNK N   1      20.611  13.650   9.647  0.00  0.00     0.001 A 
HETATM    3  C   UNK N   1      21.615  12.228  11.352  0.00  0.00     0.008 A 
HETATM    4  C   UNK N   1      21.830  13.697   8.957  0.00  0.00     0.010 A 
HETATM    5  C   UNK N   1      24.084  11.610  11.002  0.00  0.00     0.073 C 
HETATM    6  C   UNK N   1      22.823  12.311  10.661  0.00  0.00    -0.047 A 
HETATM    7  C   UNK N   1      22.931  13.033   9.502  0.00  0.00    -0.027 A 
HETATM    8  C   UNK N   1      25.082  12.364  10.103  0.00  0.00     0.149 C 
HETATM    9  C   UNK N   1      24.269  12.897   8.893  0.00  0.00     0.146 C 
HETATM   10  O   UNK N   1      25.553  13.454  10.843  0.00  0.00    -0.393 OA
HETATM   11  H   UNK N   1      25.979  14.155  11.360  0.00  0.00     0.210 HD
ENDROOT
BRANCH   9  12
HETATM   12  N   UNK N   1      24.186  11.866   7.872  0.00  0.00    -0.361 N 
HETATM   13  C   UNK N   1      24.225  12.064   6.603  0.00  0.00     0.144 C 
ATOM     14  HN  UNK N   1      24.089  10.901   8.190  1.00  0.00     0.162 HD
BRANCH  13  15
HETATM   15  C   UNK N   1      24.304  13.463   5.985  0.00  0.00     0.227 C 
BRANCH  15  16
HETATM   16  C   UNK N   1      25.751  13.845   5.575  0.00  0.00     0.186 C 
BRANCH  16  17
HETATM   17  C   UNK N   1      26.391  14.907   6.512  0.00  0.00     0.186 C 
BRANCH  17  18
HETATM   18  C   UNK N   1      26.991  16.150   5.781  0.00  0.00     0.227 C 
BRANCH  18  19
HETATM   19  C   UNK N   1      27.989  16.878   6.681  0.00  0.00     0.144 C 
HETATM   20  N   UNK N   1      29.268  16.882   6.476  0.00  0.00    -0.365 N 
ATOM     21  HN  UNK N   1      29.841  17.344   7.182  1.00  0.00     0.161 HD
BRANCH  20  22
HETATM   22  C   UNK N   1      29.970  16.302   5.350  0.00  0.00     0.109 C 
HETATM   23  C   UNK N   1      31.019  17.251   4.861  0.00  0.00     0.061 C 
HETATM   24  C   UNK N   1      32.061  17.111   5.960  0.00  0.00     0.147 C 
HETATM   25  O   UNK N   1      32.001  15.789   6.446  0.00  0.00    -0.382 OA
HETATM   26  C   UNK N   1      30.864  15.199   5.855  0.00  0.00     0.193 C 
BRANCH  24  27
HETATM   27  C   UNK N   1      33.457  17.412   5.442  0.00  0.00     0.196 C 
BRANCH  27  28
HETATM   28  O   UNK N   1      34.236  17.988   6.446  0.00  0.00    -0.398 OA
HETATM   29  H   UNK N   1      33.843  18.206   7.306  0.00  0.00     0.209 HD
ENDBRANCH  27  28
ENDBRANCH  24  27
ENDBRANCH  20  22
BRANCH  19  30
HETATM   30  O   UNK N   1      27.528  17.555   7.748  0.00  0.00    -0.348 OA
HETATM   31  H   UNK N   1      27.496  18.232   8.394  0.00  0.00     0.219 HD
ENDBRANCH  19  30
ENDBRANCH  18  19
BRANCH  18  32
HETATM   32  O   UNK N   1      25.997  17.079   5.392  0.00  0.00    -0.370 OA
BRANCH  32  33
HETATM   33  C   UNK N   1      26.479  17.854   4.320  0.00  0.00     0.207 C 
BRANCH  33  34
HETATM   34  C   UNK N   1      25.398  18.753   3.827  0.00  0.00    -0.035 A 
HETATM   35  C   UNK N   1      24.058  18.452   4.100  0.00  0.00     0.009 A 
HETATM   36  C   UNK N   1      23.045  19.306   3.652  0.00  0.00     0.001 A 
HETATM   37  C   UNK N   1      23.370  20.457   2.927  0.00  0.00     0.000 A 
HETATM   38  C   UNK N   1      24.707  20.755   2.650  0.00  0.00     0.001 A 
HETATM   39  C   UNK N   1      25.721  19.904   3.101  0.00  0.00     0.009 A 
ENDBRANCH  33  34
ENDBRANCH  32  33
ENDBRANCH  18  32
ENDBRANCH  17  18
BRANCH  17  40
HETATM   40  O   UNK N   1      25.453  15.361   7.442  0.00  0.00    -0.390 OA
HETATM   41  H   UNK N   1      25.559  16.153   7.992  0.00  0.00     0.210 HD
ENDBRANCH  17  40
ENDBRANCH  16  17
BRANCH  16  42
HETATM   42  O   UNK N   1      26.543  12.692   5.586  0.00  0.00    -0.390 OA
HETATM   43  H   UNK N   1      26.540  12.050   6.314  0.00  0.00     0.210 HD
ENDBRANCH  16  42
ENDBRANCH  15  16
BRANCH  15  44
HETATM   44  O   UNK N   1      23.362  13.593   4.925  0.00  0.00    -0.370 OA
BRANCH  44  45
HETATM   45  C   UNK N   1      23.106  14.964   4.694  0.00  0.00     0.207 C 
BRANCH  45  46
HETATM   46  C   UNK N   1      21.928  15.438   5.476  0.00  0.00    -0.035 A 
HETATM   47  C   UNK N   1      22.094  16.402   6.478  0.00  0.00     0.009 A 
HETATM   48  C   UNK N   1      20.986  16.864   7.197  0.00  0.00     0.001 A 
HETATM   49  C   UNK N   1      19.710  16.373   6.905  0.00  0.00     0.000 A 
HETATM   50  C   UNK N   1      19.542  15.418   5.896  0.00  0.00     0.001 A 
HETATM   51  C   UNK N   1      20.650  14.950   5.184  0.00  0.00     0.009 A 
ENDBRANCH  45  46
ENDBRANCH  44  45
ENDBRANCH  15  44
ENDBRANCH  13  15
BRANCH  13  52
HETATM   52  O   UNK N   1      24.195  10.990   5.783  0.00  0.00    -0.348 OA
HETATM   53  H   UNK N   1      24.421  10.170   5.390  0.00  0.00     0.219 HD
ENDBRANCH  13  52
ENDBRANCH   9  12
TORSDOF 19
ENDMDL
MODEL 4
REMARK VINA RESULT:      -7.5      1.584      3.429
REMARK  19 active torsions:
REMARK  status: ('A' for Active; 'I' for Inactive)
REMARK    1  A    between atoms: C_25  and  C_17 
REMARK    2  A    between atoms: O_39  and  C_17 
REMARK    3  A    between atoms: C_21  and  C_18 
REMARK    4  A    between atoms: O_46  and  C_18 
REMARK    5  A    between atoms: C_22  and  C_19 
REMARK    6  A    between atoms: O_47  and  C_19 
REMARK    7  A    between atoms: C_24  and  N_35 
REMARK    8  A    between atoms: C_28  and  N_37 
REMARK    9  A    between atoms: C_30  and  C_29 
REMARK   10  A    between atoms: C_31  and  C_29 
REMARK   11  A    between atoms: C_29  and  O_41 
REMARK   12  A    between atoms: C_32  and  C_30 
REMARK   13  A    between atoms: C_30  and  O_42 
REMARK   14  A    between atoms: C_33  and  C_31 
REMARK   15  A    between atoms: C_31  and  O_46 
REMARK   16  A    between atoms: C_34  and  C_32 
REMARK   17  A    between atoms: C_32  and  O_47 
REMARK   18  A    between atoms: C_33  and  O_43 
REMARK   19  A    between atoms: C_34  and  O_44 
ROOT
HETATM    1  C   UNK N   1      36.943   8.933  15.249  0.00  0.00     0.001 A 
HETATM    2  C   UNK N   1      36.544   8.797  13.906  0.00  0.00     0.001 A 
HETATM    3  C   UNK N   1      37.009  10.206  15.840  0.00  0.00     0.008 A 
HETATM    4  C   UNK N   1      36.208   9.930  13.152  0.00  0.00     0.010 A 
HETATM    5  C   UNK N   1      36.708  12.733  15.498  0.00  0.00     0.073 C 
HETATM    6  C   UNK N   1      36.646  11.314  15.076  0.00  0.00    -0.047 A 
HETATM    7  C   UNK N   1      36.248  11.180  13.773  0.00  0.00    -0.027 A 
HETATM    8  C   UNK N   1      35.878  13.399  14.384  0.00  0.00     0.149 C 
HETATM    9  C   UNK N   1      36.010  12.490  13.133  0.00  0.00     0.146 C 
HETATM   10  O   UNK N   1      34.545  13.389  14.808  0.00  0.00    -0.393 OA
HETATM   11  H   UNK N   1      33.630  13.494  15.112  0.00  0.00     0.210 HD
ENDROOT
BRANCH   9  12
HETATM   12  N   UNK N   1      37.213  12.846  12.399  0.00  0.00    -0.361 N 
HETATM   13  C   UNK N   1      37.246  13.432  11.255  0.00  0.00     0.144 C 
ATOM     14  HN  UNK N   1      38.108  12.612  12.829  1.00  0.00     0.162 HD
BRANCH  13  15
HETATM   15  C   UNK N   1      35.981  13.784  10.468  0.00  0.00     0.227 C 
BRANCH  15  16
HETATM   16  C   UNK N   1      35.922  15.288  10.088  0.00  0.00     0.186 C 
BRANCH  16  17
HETATM   17  C   UNK N   1      34.522  15.921  10.318  0.00  0.00     0.186 C 
BRANCH  17  18
HETATM   18  C   UNK N   1      33.662  16.096   9.026  0.00  0.00     0.227 C 
BRANCH  18  19
HETATM   19  C   UNK N   1      32.250  15.548   9.237  0.00  0.00     0.144 C 
HETATM   20  N   UNK N   1      31.179  16.266   9.118  0.00  0.00    -0.365 N 
ATOM     21  HN  UNK N   1      30.297  15.810   9.351  1.00  0.00     0.161 HD
BRANCH  20  22
HETATM   22  C   UNK N   1      31.100  17.647   8.688  0.00  0.00     0.109 C 
HETATM   23  C   UNK N   1      30.408  17.728   7.364  0.00  0.00     0.061 C 
HETATM   24  C   UNK N   1      28.968  17.468   7.781  0.00  0.00     0.147 C 
HETATM   25  O   UNK N   1      28.794  17.991   9.080  0.00  0.00    -0.382 OA
HETATM   26  C   UNK N   1      30.077  18.358   9.536  0.00  0.00     0.193 C 
BRANCH  24  27
HETATM   27  C   UNK N   1      27.987  18.120   6.823  0.00  0.00     0.196 C 
BRANCH  27  28
HETATM   28  O   UNK N   1      27.294  19.150   7.460  0.00  0.00    -0.398 OA
HETATM   29  H   UNK N   1      27.543  20.075   7.308  0.00  0.00     0.209 HD
ENDBRANCH  27  28
ENDBRANCH  24  27
ENDBRANCH  20  22
BRANCH  19  30
HETATM   30  O   UNK N   1      32.098  14.252   9.565  0.00  0.00    -0.348 OA
HETATM   31  H   UNK N   1      32.160  13.324   9.465  0.00  0.00     0.219 HD
ENDBRANCH  19  30
ENDBRANCH  18  19
BRANCH  18  32
HETATM   32  O   UNK N   1      34.224  15.432   7.909  0.00  0.00    -0.370 OA
BRANCH  32  33
HETATM   33  C   UNK N   1      34.580  16.383   6.934  0.00  0.00     0.207 C 
BRANCH  33  34
HETATM   34  C   UNK N   1      33.565  16.384   5.843  0.00  0.00    -0.035 A 
HETATM   35  C   UNK N   1      33.360  17.539   5.079  0.00  0.00     0.009 A 
HETATM   36  C   UNK N   1      32.419  17.534   4.044  0.00  0.00     0.001 A 
HETATM   37  C   UNK N   1      31.680  16.377   3.776  0.00  0.00     0.000 A 
HETATM   38  C   UNK N   1      31.881  15.225   4.542  0.00  0.00     0.001 A 
HETATM   39  C   UNK N   1      32.824  15.229   5.574  0.00  0.00     0.009 A 
ENDBRANCH  33  34
ENDBRANCH  32  33
ENDBRANCH  18  32
ENDBRANCH  17  18
BRANCH  17  40
HETATM   40  O   UNK N   1      33.787  15.157  11.227  0.00  0.00    -0.390 OA
HETATM   41  H   UNK N   1      33.346  14.319  11.017  0.00  0.00     0.210 HD
ENDBRANCH  17  40
ENDBRANCH  16  17
BRANCH  16  42
HETATM   42  O   UNK N   1      36.867  15.983  10.851  0.00  0.00    -0.390 OA
HETATM   43  H   UNK N   1      36.976  16.946  10.816  0.00  0.00     0.210 HD
ENDBRANCH  16  42
ENDBRANCH  15  16
BRANCH  15  44
HETATM   44  O   UNK N   1      35.830  12.911   9.353  0.00  0.00    -0.370 OA
BRANCH  44  45
HETATM   45  C   UNK N   1      34.719  12.065   9.570  0.00  0.00     0.207 C 
BRANCH  45  46
HETATM   46  C   UNK N   1      35.137  10.639   9.697  0.00  0.00    -0.035 A 
HETATM   47  C   UNK N   1      34.191   9.657  10.016  0.00  0.00     0.009 A 
HETATM   48  C   UNK N   1      34.578   8.316  10.113  0.00  0.00     0.001 A 
HETATM   49  C   UNK N   1      35.909   7.954   9.878  0.00  0.00     0.000 A 
HETATM   50  C   UNK N   1      36.852   8.933   9.548  0.00  0.00     0.001 A 
HETATM   51  C   UNK N   1      36.467  10.274   9.460  0.00  0.00     0.009 A 
ENDBRANCH  45  46
ENDBRANCH  44  45
ENDBRANCH  15  44
ENDBRANCH  13  15
BRANCH  13  52
HETATM   52  O   UNK N   1      38.451  13.750  10.730  0.00  0.00    -0.348 OA
HETATM   53  H   UNK N   1      39.376  13.762  10.579  0.00  0.00     0.219 HD
ENDBRANCH  13  52
ENDBRANCH   9  12
TORSDOF 19
ENDMDL
MODEL 5
REMARK VINA RESULT:      -7.3      7.067     11.210
REMARK  19 active torsions:
REMARK  status: ('A' for Active; 'I' for Inactive)
REMARK    1  A    between atoms: C_25  and  C_17 
REMARK    2  A    between atoms: O_39  and  C_17 
REMARK    3  A    between atoms: C_21  and  C_18 
REMARK    4  A    between atoms: O_46  and  C_18 
REMARK    5  A    between atoms: C_22  and  C_19 
REMARK    6  A    between atoms: O_47  and  C_19 
REMARK    7  A    between atoms: C_24  and  N_35 
REMARK    8  A    between atoms: C_28  and  N_37 
REMARK    9  A    between atoms: C_30  and  C_29 
REMARK   10  A    between atoms: C_31  and  C_29 
REMARK   11  A    between atoms: C_29  and  O_41 
REMARK   12  A    between atoms: C_32  and  C_30 
REMARK   13  A    between atoms: C_30  and  O_42 
REMARK   14  A    between atoms: C_33  and  C_31 
REMARK   15  A    between atoms: C_31  and  O_46 
REMARK   16  A    between atoms: C_34  and  C_32 
REMARK   17  A    between atoms: C_32  and  O_47 
REMARK   18  A    between atoms: C_33  and  O_43 
REMARK   19  A    between atoms: C_34  and  O_44 
ROOT
HETATM    1  C   UNK N   1      32.680  17.127   7.865  0.00  0.00     0.001 A 
HETATM    2  C   UNK N   1      32.107  16.287   6.892  0.00  0.00     0.001 A 
HETATM    3  C   UNK N   1      31.862  17.940   8.665  0.00  0.00     0.008 A 
HETATM    4  C   UNK N   1      30.716  16.256   6.719  0.00  0.00     0.010 A 
HETATM    5  C   UNK N   1      29.462  18.691   9.190  0.00  0.00     0.073 C 
HETATM    6  C   UNK N   1      30.481  17.873   8.490  0.00  0.00    -0.047 A 
HETATM    7  C   UNK N   1      29.922  17.047   7.551  0.00  0.00    -0.027 A 
HETATM    8  C   UNK N   1      28.178  17.922   8.827  0.00  0.00     0.149 C 
HETATM    9  C   UNK N   1      28.457  17.214   7.474  0.00  0.00     0.146 C 
HETATM   10  O   UNK N   1      27.993  16.949   9.814  0.00  0.00    -0.393 OA
HETATM   11  H   UNK N   1      27.776  16.334  10.532  0.00  0.00     0.210 HD
ENDROOT
BRANCH   9  12
HETATM   12  N   UNK N   1      28.175  18.129   6.380  0.00  0.00    -0.361 N 
HETATM   13  C   UNK N   1      27.735  17.795   5.219  0.00  0.00     0.144 C 
ATOM     14  HN  UNK N   1      28.340  19.122   6.548  1.00  0.00     0.162 HD
BRANCH  13  15
HETATM   15  C   UNK N   1      27.503  16.338   4.809  0.00  0.00     0.227 C 
BRANCH  15  16
HETATM   16  C   UNK N   1      26.040  15.882   5.054  0.00  0.00     0.186 C 
BRANCH  16  17
HETATM   17  C   UNK N   1      25.923  14.748   6.110  0.00  0.00     0.186 C 
BRANCH  17  18
HETATM   18  C   UNK N   1      24.474  14.213   6.338  0.00  0.00     0.227 C 
BRANCH  18  19
HETATM   19  C   UNK N   1      24.502  12.758   6.809  0.00  0.00     0.144 C 
HETATM   20  N   UNK N   1      24.440  12.407   8.053  0.00  0.00    -0.365 N 
ATOM     21  HN  UNK N   1      24.537  11.412   8.252  1.00  0.00     0.161 HD
BRANCH  20  22
HETATM   22  C   UNK N   1      24.246  13.279   9.194  0.00  0.00     0.109 C 
HETATM   23  C   UNK N   1      22.782  13.469   9.445  0.00  0.00     0.061 C 
HETATM   24  C   UNK N   1      22.420  12.118  10.043  0.00  0.00     0.147 C 
HETATM   25  O   UNK N   1      23.544  11.644  10.752  0.00  0.00    -0.382 OA
HETATM   26  C   UNK N   1      24.605  12.521  10.446  0.00  0.00     0.193 C 
BRANCH  24  27
HETATM   27  C   UNK N   1      21.225  12.226  10.974  0.00  0.00     0.196 C 
BRANCH  27  28
HETATM   28  O   UNK N   1      20.213  12.981  10.382  0.00  0.00    -0.398 OA
HETATM   29  H   UNK N   1      20.406  13.858  10.015  0.00  0.00     0.209 HD
ENDBRANCH  27  28
ENDBRANCH  24  27
ENDBRANCH  20  22
BRANCH  19  30
HETATM   30  O   UNK N   1      24.595  11.780   5.890  0.00  0.00    -0.348 OA
HETATM   31  H   UNK N   1      24.855  10.956   5.529  0.00  0.00     0.219 HD
ENDBRANCH  19  30
ENDBRANCH  18  19
BRANCH  18  32
HETATM   32  O   UNK N   1      23.684  14.275   5.165  0.00  0.00    -0.370 OA
BRANCH  32  33
HETATM   33  C   UNK N   1      22.342  14.504   5.520  0.00  0.00     0.207 C 
BRANCH  33  34
HETATM   34  C   UNK N   1      22.012  15.944   5.325  0.00  0.00    -0.035 A 
HETATM   35  C   UNK N   1      21.725  16.753   6.431  0.00  0.00     0.009 A 
HETATM   36  C   UNK N   1      21.433  18.108   6.249  0.00  0.00     0.001 A 
HETATM   37  C   UNK N   1      21.424  18.655   4.961  0.00  0.00     0.000 A 
HETATM   38  C   UNK N   1      21.705  17.846   3.856  0.00  0.00     0.001 A 
HETATM   39  C   UNK N   1      22.001  16.492   4.038  0.00  0.00     0.009 A 
ENDBRANCH  33  34
ENDBRANCH  32  33
ENDBRANCH  18  32
ENDBRANCH  17  18
BRANCH  17  40
HETATM   40  O   UNK N   1      26.734  13.668   5.755  0.00  0.00    -0.390 OA
HETATM   41  H   UNK N   1      27.700  13.650   5.840  0.00  0.00     0.210 HD
ENDBRANCH  17  40
ENDBRANCH  16  17
BRANCH  16  42
HETATM   42  O   UNK N   1      25.290  16.982   5.483  0.00  0.00    -0.390 OA
HETATM   43  H   UNK N   1      25.000  17.105   6.400  0.00  0.00     0.210 HD
ENDBRANCH  16  42
ENDBRANCH  15  16
BRANCH  15  44
HETATM   44  O   UNK N   1      27.949  16.120   3.474  0.00  0.00    -0.370 OA
BRANCH  44  45
HETATM   45  C   UNK N   1      28.749  14.955   3.433  0.00  0.00     0.207 C 
BRANCH  45  46
HETATM   46  C   UNK N   1      30.196  15.292   3.305  0.00  0.00    -0.035 A 
HETATM   47  C   UNK N   1      30.589  16.613   3.061  0.00  0.00     0.009 A 
HETATM   48  C   UNK N   1      31.948  16.934   2.963  0.00  0.00     0.001 A 
HETATM   49  C   UNK N   1      32.914  15.935   3.123  0.00  0.00     0.000 A 
HETATM   50  C   UNK N   1      32.522  14.617   3.378  0.00  0.00     0.001 A 
HETATM   51  C   UNK N   1      31.164  14.296   3.467  0.00  0.00     0.009 A 
ENDBRANCH  45  46
ENDBRANCH  44  45
ENDBRANCH  15  44
ENDBRANCH  13  15
BRANCH  13  52
HETATM   52  O   UNK N   1      27.465  18.774   4.327  0.00  0.00    -0.348 OA
HETATM   53  H   UNK N   1      27.029  19.482   3.894  0.00  0.00     0.219 HD
ENDBRANCH  13  52
ENDBRANCH   9  12
TORSDOF 19
ENDMDL
MODEL 6
REMARK VINA RESULT:      -7.3      2.801      6.754
REMARK  19 active torsions:
REMARK  status: ('A' for Active; 'I' for Inactive)
REMARK    1  A    between atoms: C_25  and  C_17 
REMARK    2  A    between atoms: O_39  and  C_17 
REMARK    3  A    between atoms: C_21  and  C_18 
REMARK    4  A    between atoms: O_46  and  C_18 
REMARK    5  A    between atoms: C_22  and  C_19 
REMARK    6  A    between atoms: O_47  and  C_19 
REMARK    7  A    between atoms: C_24  and  N_35 
REMARK    8  A    between atoms: C_28  and  N_37 
REMARK    9  A    between atoms: C_30  and  C_29 
REMARK   10  A    between atoms: C_31  and  C_29 
REMARK   11  A    between atoms: C_29  and  O_41 
REMARK   12  A    between atoms: C_32  and  C_30 
REMARK   13  A    between atoms: C_30  and  O_42 
REMARK   14  A    between atoms: C_33  and  C_31 
REMARK   15  A    between atoms: C_31  and  O_46 
REMARK   16  A    between atoms: C_34  and  C_32 
REMARK   17  A    between atoms: C_32  and  O_47 
REMARK   18  A    between atoms: C_33  and  O_43 
REMARK   19  A    between atoms: C_34  and  O_44 
ROOT
HETATM    1  C   UNK N   1      35.238  10.841  20.327  0.00  0.00     0.001 A 
HETATM    2  C   UNK N   1      35.215   9.743  19.448  0.00  0.00     0.001 A 
HETATM    3  C   UNK N   1      35.307  12.149  19.822  0.00  0.00     0.008 A 
HETATM    4  C   UNK N   1      35.257   9.949  18.062  0.00  0.00     0.010 A 
HETATM    5  C   UNK N   1      35.455  13.617  17.719  0.00  0.00     0.073 C 
HETATM    6  C   UNK N   1      35.324  12.329  18.439  0.00  0.00    -0.047 A 
HETATM    7  C   UNK N   1      35.289  11.260  17.583  0.00  0.00    -0.027 A 
HETATM    8  C   UNK N   1      35.064  13.188  16.292  0.00  0.00     0.149 C 
HETATM    9  C   UNK N   1      35.416  11.681  16.174  0.00  0.00     0.146 C 
HETATM   10  O   UNK N   1      33.678  13.335  16.187  0.00  0.00    -0.393 OA
HETATM   11  H   UNK N   1      32.737  13.523  16.045  0.00  0.00     0.210 HD
ENDROOT
BRANCH   9  12
HETATM   12  N   UNK N   1      36.813  11.537  15.796  0.00  0.00    -0.361 N 
HETATM   13  C   UNK N   1      37.280  11.641  14.602  0.00  0.00     0.144 C 
ATOM     14  HN  UNK N   1      37.479  11.336  16.541  1.00  0.00     0.162 HD
BRANCH  13  15
HETATM   15  C   UNK N   1      36.387  11.878  13.381  0.00  0.00     0.227 C 
BRANCH  15  16
HETATM   16  C   UNK N   1      36.588  13.289  12.768  0.00  0.00     0.186 C 
BRANCH  16  17
HETATM   17  C   UNK N   1      35.260  13.944  12.296  0.00  0.00     0.186 C 
BRANCH  17  18
HETATM   18  C   UNK N   1      35.240  14.374  10.794  0.00  0.00     0.227 C 
BRANCH  18  19
HETATM   19  C   UNK N   1      36.546  15.072  10.413  0.00  0.00     0.144 C 
HETATM   20  N   UNK N   1      37.422  14.562   9.607  0.00  0.00    -0.365 N 
ATOM     21  HN  UNK N   1      38.287  15.088   9.481  1.00  0.00     0.161 HD
BRANCH  20  22
HETATM   22  C   UNK N   1      37.302  13.325   8.863  0.00  0.00     0.109 C 
HETATM   23  C   UNK N   1      37.974  13.465   7.532  0.00  0.00     0.061 C 
HETATM   24  C   UNK N   1      39.437  13.417   7.949  0.00  0.00     0.147 C 
HETATM   25  O   UNK N   1      39.536  12.583   9.081  0.00  0.00    -0.382 OA
HETATM   26  C   UNK N   1      38.215  12.299   9.483  0.00  0.00     0.193 C 
BRANCH  24  27
HETATM   27  C   UNK N   1      40.314  12.882   6.830  0.00  0.00     0.196 C 
BRANCH  27  28
HETATM   28  O   UNK N   1      41.330  13.791   6.530  0.00  0.00    -0.398 OA
HETATM   29  H   UNK N   1      42.219  13.670   6.896  0.00  0.00     0.209 HD
ENDBRANCH  27  28
ENDBRANCH  24  27
ENDBRANCH  20  22
BRANCH  19  30
HETATM   30  O   UNK N   1      36.813  16.282  10.937  0.00  0.00    -0.348 OA
HETATM   31  H   UNK N   1      37.078  16.903  11.585  0.00  0.00     0.219 HD
ENDBRANCH  19  30
ENDBRANCH  18  19
BRANCH  18  32
HETATM   32  O   UNK N   1      34.173  15.256  10.499  0.00  0.00    -0.370 OA
BRANCH  32  33
HETATM   33  C   UNK N   1      33.402  14.718   9.452  0.00  0.00     0.207 C 
BRANCH  33  34
HETATM   34  C   UNK N   1      33.536  15.576   8.240  0.00  0.00    -0.035 A 
HETATM   35  C   UNK N   1      32.782  16.749   8.126  0.00  0.00     0.009 A 
HETATM   36  C   UNK N   1      32.922  17.562   6.996  0.00  0.00     0.001 A 
HETATM   37  C   UNK N   1      33.813  17.201   5.980  0.00  0.00     0.000 A 
HETATM   38  C   UNK N   1      34.562  16.026   6.091  0.00  0.00     0.001 A 
HETATM   39  C   UNK N   1      34.425  15.215   7.222  0.00  0.00     0.009 A 
ENDBRANCH  33  34
ENDBRANCH  32  33
ENDBRANCH  18  32
ENDBRANCH  17  18
BRANCH  17  40
HETATM   40  O   UNK N   1      34.187  13.077  12.513  0.00  0.00    -0.390 OA
HETATM   41  H   UNK N   1      34.087  12.206  12.098  0.00  0.00     0.210 HD
ENDBRANCH  17  40
ENDBRANCH  16  17
BRANCH  16  42
HETATM   42  O   UNK N   1      37.187  14.116  13.725  0.00  0.00    -0.390 OA
HETATM   43  H   UNK N   1      37.028  15.071  13.780  0.00  0.00     0.210 HD
ENDBRANCH  16  42
ENDBRANCH  15  16
BRANCH  15  44
HETATM   44  O   UNK N   1      36.545  10.823  12.438  0.00  0.00    -0.370 OA
BRANCH  44  45
HETATM   45  C   UNK N   1      35.959   9.644  12.953  0.00  0.00     0.207 C 
BRANCH  45  46
HETATM   46  C   UNK N   1      34.938   9.088  12.019  0.00  0.00    -0.035 A 
HETATM   47  C   UNK N   1      33.971   9.931  11.456  0.00  0.00     0.009 A 
HETATM   48  C   UNK N   1      33.027   9.415  10.562  0.00  0.00     0.001 A 
HETATM   49  C   UNK N   1      33.057   8.059  10.219  0.00  0.00     0.000 A 
HETATM   50  C   UNK N   1      34.030   7.220  10.773  0.00  0.00     0.001 A 
HETATM   51  C   UNK N   1      34.968   7.734  11.673  0.00  0.00     0.009 A 
ENDBRANCH  45  46
ENDBRANCH  44  45
ENDBRANCH  15  44
ENDBRANCH  13  15
BRANCH  13  52
HETATM   52  O   UNK N   1      38.616  11.540  14.423  0.00  0.00    -0.348 OA
HETATM   53  H   UNK N   1      39.452  11.491  14.002  0.00  0.00     0.219 HD
ENDBRANCH  13  52
ENDBRANCH   9  12
TORSDOF 19
ENDMDL
MODEL 7
REMARK VINA RESULT:      -7.3      1.854      2.829
REMARK  19 active torsions:
REMARK  status: ('A' for Active; 'I' for Inactive)
REMARK    1  A    between atoms: C_25  and  C_17 
REMARK    2  A    between atoms: O_39  and  C_17 
REMARK    3  A    between atoms: C_21  and  C_18 
REMARK    4  A    between atoms: O_46  and  C_18 
REMARK    5  A    between atoms: C_22  and  C_19 
REMARK    6  A    between atoms: O_47  and  C_19 
REMARK    7  A    between atoms: C_24  and  N_35 
REMARK    8  A    between atoms: C_28  and  N_37 
REMARK    9  A    between atoms: C_30  and  C_29 
REMARK   10  A    between atoms: C_31  and  C_29 
REMARK   11  A    between atoms: C_29  and  O_41 
REMARK   12  A    between atoms: C_32  and  C_30 
REMARK   13  A    between atoms: C_30  and  O_42 
REMARK   14  A    between atoms: C_33  and  C_31 
REMARK   15  A    between atoms: C_31  and  O_46 
REMARK   16  A    between atoms: C_34  and  C_32 
REMARK   17  A    between atoms: C_32  and  O_47 
REMARK   18  A    between atoms: C_33  and  O_43 
REMARK   19  A    between atoms: C_34  and  O_44 
ROOT
HETATM    1  C   UNK N   1      33.922   8.238   8.933  0.00  0.00     0.001 A 
HETATM    2  C   UNK N   1      33.952   9.543   8.406  0.00  0.00     0.001 A 
HETATM    3  C   UNK N   1      34.205   8.018  10.291  0.00  0.00     0.008 A 
HETATM    4  C   UNK N   1      34.261  10.630   9.235  0.00  0.00     0.010 A 
HETATM    5  C   UNK N   1      34.865   9.086  12.531  0.00  0.00     0.073 C 
HETATM    6  C   UNK N   1      34.486   9.118  11.099  0.00  0.00    -0.047 A 
HETATM    7  C   UNK N   1      34.504  10.390  10.589  0.00  0.00    -0.027 A 
HETATM    8  C   UNK N   1      34.698  10.571  12.906  0.00  0.00     0.149 C 
HETATM    9  C   UNK N   1      34.921  11.381  11.600  0.00  0.00     0.146 C 
HETATM   10  O   UNK N   1      33.373  10.740  13.319  0.00  0.00    -0.393 OA
HETATM   11  H   UNK N   1      32.495  10.873  13.708  0.00  0.00     0.210 HD
ENDROOT
BRANCH   9  12
HETATM   12  N   UNK N   1      36.342  11.625  11.417  0.00  0.00    -0.361 N 
HETATM   13  C   UNK N   1      36.903  12.781  11.366  0.00  0.00     0.144 C 
ATOM     14  HN  UNK N   1      36.947  10.810  11.321  1.00  0.00     0.162 HD
BRANCH  13  15
HETATM   15  C   UNK N   1      36.111  14.090  11.433  0.00  0.00     0.227 C 
BRANCH  15  16
HETATM   16  C   UNK N   1      35.257  14.330  10.160  0.00  0.00     0.186 C 
BRANCH  16  17
HETATM   17  C   UNK N   1      35.014  15.835   9.861  0.00  0.00     0.186 C 
BRANCH  17  18
HETATM   18  C   UNK N   1      33.853  16.124   8.858  0.00  0.00     0.227 C 
BRANCH  18  19
HETATM   19  C   UNK N   1      32.497  15.827   9.498  0.00  0.00     0.144 C 
HETATM   20  N   UNK N   1      31.439  16.547   9.303  0.00  0.00    -0.365 N 
ATOM     21  HN  UNK N   1      30.609  16.293   9.838  1.00  0.00     0.161 HD
BRANCH  20  22
HETATM   22  C   UNK N   1      31.310  17.676   8.404  0.00  0.00     0.109 C 
HETATM   23  C   UNK N   1      30.412  17.315   7.261  0.00  0.00     0.061 C 
HETATM   24  C   UNK N   1      29.056  17.332   7.952  0.00  0.00     0.147 C 
HETATM   25  O   UNK N   1      29.102  18.306   8.970  0.00  0.00    -0.382 OA
HETATM   26  C   UNK N   1      30.447  18.721   9.064  0.00  0.00     0.193 C 
BRANCH  24  27
HETATM   27  C   UNK N   1      27.940  17.655   6.973  0.00  0.00     0.196 C 
BRANCH  27  28
HETATM   28  O   UNK N   1      27.431  18.931   7.219  0.00  0.00    -0.398 OA
HETATM   29  H   UNK N   1      27.882  19.714   6.866  0.00  0.00     0.209 HD
ENDBRANCH  27  28
ENDBRANCH  24  27
ENDBRANCH  20  22
BRANCH  19  30
HETATM   30  O   UNK N   1      32.383  14.761  10.311  0.00  0.00    -0.348 OA
HETATM   31  H   UNK N   1      32.156  13.889  10.566  0.00  0.00     0.219 HD
ENDBRANCH  19  30
ENDBRANCH  18  19
BRANCH  18  32
HETATM   32  O   UNK N   1      33.955  15.352   7.676  0.00  0.00    -0.370 OA
BRANCH  32  33
HETATM   33  C   UNK N   1      34.772  16.026   6.749  0.00  0.00     0.207 C 
BRANCH  33  34
HETATM   34  C   UNK N   1      34.016  16.245   5.484  0.00  0.00    -0.035 A 
HETATM   35  C   UNK N   1      33.938  15.225   4.529  0.00  0.00     0.009 A 
HETATM   36  C   UNK N   1      33.213  15.425   3.349  0.00  0.00     0.001 A 
HETATM   37  C   UNK N   1      32.571  16.647   3.122  0.00  0.00     0.000 A 
HETATM   38  C   UNK N   1      32.653  17.668   4.073  0.00  0.00     0.001 A 
HETATM   39  C   UNK N   1      33.374  17.466   5.254  0.00  0.00     0.009 A 
ENDBRANCH  33  34
ENDBRANCH  32  33
ENDBRANCH  18  32
ENDBRANCH  17  18
BRANCH  17  40
HETATM   40  O   UNK N   1      34.747  16.527  11.045  0.00  0.00    -0.390 OA
HETATM   41  H   UNK N   1      34.386  16.125  11.851  0.00  0.00     0.210 HD
ENDBRANCH  17  40
ENDBRANCH  16  17
BRANCH  16  42
HETATM   42  O   UNK N   1      35.908  13.748   9.065  0.00  0.00    -0.390 OA
HETATM   43  H   UNK N   1      35.645  12.899   8.678  0.00  0.00     0.210 HD
ENDBRANCH  16  42
ENDBRANCH  15  16
BRANCH  15  44
HETATM   44  O   UNK N   1      35.358  14.155  12.640  0.00  0.00    -0.370 OA
BRANCH  44  45
HETATM   45  C   UNK N   1      36.237  14.367  13.727  0.00  0.00     0.207 C 
BRANCH  45  46
HETATM   46  C   UNK N   1      36.121  13.280  14.742  0.00  0.00    -0.035 A 
HETATM   47  C   UNK N   1      35.013  13.234  15.596  0.00  0.00     0.009 A 
HETATM   48  C   UNK N   1      34.892  12.202  16.533  0.00  0.00     0.001 A 
HETATM   49  C   UNK N   1      35.873  11.207  16.607  0.00  0.00     0.000 A 
HETATM   50  C   UNK N   1      36.975  11.247  15.746  0.00  0.00     0.001 A 
HETATM   51  C   UNK N   1      37.099  12.283  14.816  0.00  0.00     0.009 A 
ENDBRANCH  45  46
ENDBRANCH  44  45
ENDBRANCH  15  44
ENDBRANCH  13  15
BRANCH  13  52
HETATM   52  O   UNK N   1      38.248  12.839  11.251  0.00  0.00    -0.348 OA
HETATM   53  H   UNK N   1      39.154  12.912  11.480  0.00  0.00     0.219 HD
ENDBRANCH  13  52
ENDBRANCH   9  12
TORSDOF 19
ENDMDL
MODEL 8
REMARK VINA RESULT:      -7.2      7.072     11.583
REMARK  19 active torsions:
REMARK  status: ('A' for Active; 'I' for Inactive)
REMARK    1  A    between atoms: C_25  and  C_17 
REMARK    2  A    between atoms: O_39  and  C_17 
REMARK    3  A    between atoms: C_21  and  C_18 
REMARK    4  A    between atoms: O_46  and  C_18 
REMARK    5  A    between atoms: C_22  and  C_19 
REMARK    6  A    between atoms: O_47  and  C_19 
REMARK    7  A    between atoms: C_24  and  N_35 
REMARK    8  A    between atoms: C_28  and  N_37 
REMARK    9  A    between atoms: C_30  and  C_29 
REMARK   10  A    between atoms: C_31  and  C_29 
REMARK   11  A    between atoms: C_29  and  O_41 
REMARK   12  A    between atoms: C_32  and  C_30 
REMARK   13  A    between atoms: C_30  and  O_42 
REMARK   14  A    between atoms: C_33  and  C_31 
REMARK   15  A    between atoms: C_31  and  O_46 
REMARK   16  A    between atoms: C_34  and  C_32 
REMARK   17  A    between atoms: C_32  and  O_47 
REMARK   18  A    between atoms: C_33  and  O_43 
REMARK   19  A    between atoms: C_34  and  O_44 
ROOT
HETATM    1  C   UNK N   1      32.376  16.600   7.962  0.00  0.00     0.001 A 
HETATM    2  C   UNK N   1      31.736  15.964   6.882  0.00  0.00     0.001 A 
HETATM    3  C   UNK N   1      31.690  17.560   8.723  0.00  0.00     0.008 A 
HETATM    4  C   UNK N   1      30.409  16.285   6.561  0.00  0.00     0.010 A 
HETATM    5  C   UNK N   1      29.499  18.862   9.040  0.00  0.00     0.073 C 
HETATM    6  C   UNK N   1      30.365  17.844   8.400  0.00  0.00    -0.047 A 
HETATM    7  C   UNK N   1      29.738  17.218   7.355  0.00  0.00    -0.027 A 
HETATM    8  C   UNK N   1      28.119  18.450   8.494  0.00  0.00     0.149 C 
HETATM    9  C   UNK N   1      28.376  17.745   7.135  0.00  0.00     0.146 C 
HETATM   10  O   UNK N   1      27.589  17.517   9.391  0.00  0.00    -0.393 OA
HETATM   11  H   UNK N   1      27.147  16.949  10.041  0.00  0.00     0.210 HD
ENDROOT
BRANCH   9  12
HETATM   12  N   UNK N   1      28.456  18.741   6.079  0.00  0.00    -0.361 N 
HETATM   13  C   UNK N   1      27.911  18.646   4.918  0.00  0.00     0.144 C 
ATOM     14  HN  UNK N   1      28.988  19.588   6.275  1.00  0.00     0.162 HD
BRANCH  13  15
HETATM   15  C   UNK N   1      27.136  17.406   4.466  0.00  0.00     0.227 C 
BRANCH  15  16
HETATM   16  C   UNK N   1      25.612  17.533   4.729  0.00  0.00     0.186 C 
BRANCH  16  17
HETATM   17  C   UNK N   1      25.066  16.446   5.696  0.00  0.00     0.186 C 
BRANCH  17  18
HETATM   18  C   UNK N   1      23.622  15.948   5.373  0.00  0.00     0.227 C 
BRANCH  18  19
HETATM   19  C   UNK N   1      23.003  15.256   6.589  0.00  0.00     0.144 C 
HETATM   20  N   UNK N   1      21.817  15.521   7.037  0.00  0.00    -0.365 N 
ATOM     21  HN  UNK N   1      21.538  15.047   7.895  1.00  0.00     0.161 HD
BRANCH  20  22
HETATM   22  C   UNK N   1      20.845  16.418   6.447  0.00  0.00     0.109 C 
HETATM   23  C   UNK N   1      19.473  16.074   6.937  0.00  0.00     0.061 C 
HETATM   24  C   UNK N   1      19.540  16.608   8.360  0.00  0.00     0.147 C 
HETATM   25  O   UNK N   1      20.393  17.731   8.360  0.00  0.00    -0.382 OA
HETATM   26  C   UNK N   1      20.992  17.775   7.084  0.00  0.00     0.193 C 
BRANCH  24  27
HETATM   27  C   UNK N   1      18.164  17.000   8.870  0.00  0.00     0.196 C 
BRANCH  27  28
HETATM   28  O   UNK N   1      18.196  18.279   9.425  0.00  0.00    -0.398 OA
HETATM   29  H   UNK N   1      18.487  19.037   8.894  0.00  0.00     0.209 HD
ENDBRANCH  27  28
ENDBRANCH  24  27
ENDBRANCH  20  22
BRANCH  19  30
HETATM   30  O   UNK N   1      23.719  14.320   7.237  0.00  0.00    -0.348 OA
HETATM   31  H   UNK N   1      24.077  13.860   7.970  0.00  0.00     0.219 HD
ENDBRANCH  19  30
ENDBRANCH  18  19
BRANCH  18  32
HETATM   32  O   UNK N   1      23.594  15.034   4.292  0.00  0.00    -0.370 OA
BRANCH  32  33
HETATM   33  C   UNK N   1      22.888  15.607   3.218  0.00  0.00     0.207 C 
BRANCH  33  34
HETATM   34  C   UNK N   1      22.817  14.633   2.092  0.00  0.00    -0.035 A 
HETATM   35  C   UNK N   1      23.945  14.395   1.300  0.00  0.00     0.009 A 
HETATM   36  C   UNK N   1      23.882  13.468   0.254  0.00  0.00     0.001 A 
HETATM   37  C   UNK N   1      22.690  12.782  -0.002  0.00  0.00     0.000 A 
HETATM   38  C   UNK N   1      21.561  13.025   0.785  0.00  0.00     0.001 A 
HETATM   39  C   UNK N   1      21.625  13.948   1.833  0.00  0.00     0.009 A 
ENDBRANCH  33  34
ENDBRANCH  32  33
ENDBRANCH  18  32
ENDBRANCH  17  18
BRANCH  17  40
HETATM   40  O   UNK N   1      25.915  15.337   5.708  0.00  0.00    -0.390 OA
HETATM   41  H   UNK N   1      26.860  15.362   5.491  0.00  0.00     0.210 HD
ENDBRANCH  17  40
ENDBRANCH  16  17
BRANCH  16  42
HETATM   42  O   UNK N   1      25.352  18.797   5.272  0.00  0.00    -0.390 OA
HETATM   43  H   UNK N   1      24.786  19.456   4.840  0.00  0.00     0.210 HD
ENDBRANCH  16  42
ENDBRANCH  15  16
BRANCH  15  44
HETATM   44  O   UNK N   1      27.453  17.087   3.114  0.00  0.00    -0.370 OA
BRANCH  44  45
HETATM   45  C   UNK N   1      27.825  15.726   3.031  0.00  0.00     0.207 C 
BRANCH  45  46
HETATM   46  C   UNK N   1      29.304  15.559   3.125  0.00  0.00    -0.035 A 
HETATM   47  C   UNK N   1      29.848  14.321   3.489  0.00  0.00     0.009 A 
HETATM   48  C   UNK N   1      31.236  14.156   3.556  0.00  0.00     0.001 A 
HETATM   49  C   UNK N   1      32.081  15.227   3.246  0.00  0.00     0.000 A 
HETATM   50  C   UNK N   1      31.539  16.461   2.872  0.00  0.00     0.001 A 
HETATM   51  C   UNK N   1      30.152  16.627   2.813  0.00  0.00     0.009 A 
ENDBRANCH  45  46
ENDBRANCH  44  45
ENDBRANCH  15  44
ENDBRANCH  13  15
BRANCH  13  52
HETATM   52  O   UNK N   1      28.027  19.689   4.066  0.00  0.00    -0.348 OA
HETATM   53  H   UNK N   1      28.402  20.307   3.469  0.00  0.00     0.219 HD
ENDBRANCH  13  52
ENDBRANCH   9  12
TORSDOF 19
ENDMDL
MODEL 9
REMARK VINA RESULT:      -7.2      3.524      7.077
REMARK  19 active torsions:
REMARK  status: ('A' for Active; 'I' for Inactive)
REMARK    1  A    between atoms: C_25  and  C_17 
REMARK    2  A    between atoms: O_39  and  C_17 
REMARK    3  A    between atoms: C_21  and  C_18 
REMARK    4  A    between atoms: O_46  and  C_18 
REMARK    5  A    between atoms: C_22  and  C_19 
REMARK    6  A    between atoms: O_47  and  C_19 
REMARK    7  A    between atoms: C_24  and  N_35 
REMARK    8  A    between atoms: C_28  and  N_37 
REMARK    9  A    between atoms: C_30  and  C_29 
REMARK   10  A    between atoms: C_31  and  C_29 
REMARK   11  A    between atoms: C_29  and  O_41 
REMARK   12  A    between atoms: C_32  and  C_30 
REMARK   13  A    between atoms: C_30  and  O_42 
REMARK   14  A    between atoms: C_33  and  C_31 
REMARK   15  A    between atoms: C_31  and  O_46 
REMARK   16  A    between atoms: C_34  and  C_32 
REMARK   17  A    between atoms: C_32  and  O_47 
REMARK   18  A    between atoms: C_33  and  O_43 
REMARK   19  A    between atoms: C_34  and  O_44 
ROOT
HETATM    1  C   UNK N   1      37.926  13.527   8.653  0.00  0.00     0.001 A 
HETATM    2  C   UNK N   1      37.028  13.805   7.606  0.00  0.00     0.001 A 
HETATM    3  C   UNK N   1      37.661  13.990   9.952  0.00  0.00     0.008 A 
HETATM    4  C   UNK N   1      35.862  14.542   7.855  0.00  0.00     0.010 A 
HETATM    5  C   UNK N   1      36.059  15.319  11.457  0.00  0.00     0.073 C 
HETATM    6  C   UNK N   1      36.483  14.700  10.179  0.00  0.00    -0.047 A 
HETATM    7  C   UNK N   1      35.603  14.960   9.162  0.00  0.00    -0.027 A 
HETATM    8  C   UNK N   1      34.581  15.626  11.149  0.00  0.00     0.149 C 
HETATM    9  C   UNK N   1      34.481  15.809   9.611  0.00  0.00     0.146 C 
HETATM   10  O   UNK N   1      33.845  14.496  11.517  0.00  0.00    -0.393 OA
HETATM   11  H   UNK N   1      33.292  13.774  11.855  0.00  0.00     0.210 HD
ENDROOT
BRANCH   9  12
HETATM   12  N   UNK N   1      34.801  17.183   9.263  0.00  0.00    -0.361 N 
HETATM   13  C   UNK N   1      34.187  17.896   8.387  0.00  0.00     0.144 C 
ATOM     14  HN  UNK N   1      35.580  17.620   9.756  1.00  0.00     0.162 HD
BRANCH  13  15
HETATM   15  C   UNK N   1      33.043  17.351   7.529  0.00  0.00     0.227 C 
BRANCH  15  16
HETATM   16  C   UNK N   1      31.664  17.925   7.949  0.00  0.00     0.186 C 
BRANCH  16  17
HETATM   17  C   UNK N   1      30.492  16.933   7.714  0.00  0.00     0.186 C 
BRANCH  17  18
HETATM   18  C   UNK N   1      29.548  17.303   6.526  0.00  0.00     0.227 C 
BRANCH  18  19
HETATM   19  C   UNK N   1      28.154  17.672   7.035  0.00  0.00     0.144 C 
HETATM   20  N   UNK N   1      27.564  18.791   6.760  0.00  0.00    -0.365 N 
ATOM     21  HN  UNK N   1      26.666  18.956   7.212  1.00  0.00     0.161 HD
BRANCH  20  22
HETATM   22  C   UNK N   1      28.045  19.833   5.875  0.00  0.00     0.109 C 
HETATM   23  C   UNK N   1      27.519  19.608   4.492  0.00  0.00     0.061 C 
HETATM   24  C   UNK N   1      26.066  20.022   4.671  0.00  0.00     0.147 C 
HETATM   25  O   UNK N   1      26.025  21.040   5.647  0.00  0.00    -0.382 OA
HETATM   26  C   UNK N   1      27.320  21.113   6.200  0.00  0.00     0.193 C 
BRANCH  24  27
HETATM   27  C   UNK N   1      25.469  20.525   3.369  0.00  0.00     0.196 C 
BRANCH  27  28
HETATM   28  O   UNK N   1      24.093  20.714   3.505  0.00  0.00    -0.398 OA
HETATM   29  H   UNK N   1      23.748  21.512   3.934  0.00  0.00     0.209 HD
ENDBRANCH  27  28
ENDBRANCH  24  27
ENDBRANCH  20  22
BRANCH  19  30
HETATM   30  O   UNK N   1      27.495  16.796   7.813  0.00  0.00    -0.348 OA
HETATM   31  H   UNK N   1      27.359  16.208   8.530  0.00  0.00     0.219 HD
ENDBRANCH  19  30
ENDBRANCH  18  19
BRANCH  18  32
HETATM   32  O   UNK N   1      29.406  16.243   5.599  0.00  0.00    -0.370 OA
BRANCH  32  33
HETATM   33  C   UNK N   1      29.556  16.745   4.292  0.00  0.00     0.207 C 
BRANCH  33  34
HETATM   34  C   UNK N   1      28.524  16.140   3.403  0.00  0.00    -0.035 A 
HETATM   35  C   UNK N   1      28.889  15.159   2.474  0.00  0.00     0.009 A 
HETATM   36  C   UNK N   1      27.917  14.579   1.652  0.00  0.00     0.001 A 
HETATM   37  C   UNK N   1      26.582  14.982   1.756  0.00  0.00     0.000 A 
HETATM   38  C   UNK N   1      26.218  15.966   2.681  0.00  0.00     0.001 A 
HETATM   39  C   UNK N   1      27.189  16.543   3.505  0.00  0.00     0.009 A 
ENDBRANCH  33  34
ENDBRANCH  32  33
ENDBRANCH  18  32
ENDBRANCH  17  18
BRANCH  17  40
HETATM   40  O   UNK N   1      30.984  15.645   7.493  0.00  0.00    -0.390 OA
HETATM   41  H   UNK N   1      31.920  15.395   7.538  0.00  0.00     0.210 HD
ENDBRANCH  17  40
ENDBRANCH  16  17
BRANCH  16  42
HETATM   42  O   UNK N   1      31.710  18.262   9.306  0.00  0.00    -0.390 OA
HETATM   43  H   UNK N   1      30.924  18.494   9.825  0.00  0.00     0.210 HD
ENDBRANCH  16  42
ENDBRANCH  15  16
BRANCH  15  44
HETATM   44  O   UNK N   1      33.332  17.524   6.145  0.00  0.00    -0.370 OA
BRANCH  44  45
HETATM   45  C   UNK N   1      34.219  16.509   5.722  0.00  0.00     0.207 C 
BRANCH  45  46
HETATM   46  C   UNK N   1      33.523  15.489   4.887  0.00  0.00    -0.035 A 
HETATM   47  C   UNK N   1      33.217  14.233   5.424  0.00  0.00     0.009 A 
HETATM   48  C   UNK N   1      32.543  13.283   4.648  0.00  0.00     0.001 A 
HETATM   49  C   UNK N   1      32.163  13.594   3.338  0.00  0.00     0.000 A 
HETATM   50  C   UNK N   1      32.459  14.853   2.805  0.00  0.00     0.001 A 
HETATM   51  C   UNK N   1      33.139  15.798   3.578  0.00  0.00     0.009 A 
ENDBRANCH  45  46
ENDBRANCH  44  45
ENDBRANCH  15  44
ENDBRANCH  13  15
BRANCH  13  52
HETATM   52  O   UNK N   1      34.570  19.182   8.222  0.00  0.00    -0.348 OA
HETATM   53  H   UNK N   1      34.929  20.029   8.402  0.00  0.00     0.219 HD
ENDBRANCH  13  52
ENDBRANCH   9  12
TORSDOF 19
ENDMDL
