MODEL 1
REMARK VINA RESULT:      -7.9      0.000      0.000
REMARK  6 active torsions:
REMARK  status: ('A' for Active; 'I' for Inactive)
REMARK    1  A    between atoms: C_14  and  C_7 
REMARK    2  A    between atoms: C_15  and  C_8 
REMARK    3  A    between atoms: C_16  and  C_13 
REMARK    4  A    between atoms: C_17  and  C_13 
REMARK    5  A    between atoms: N_20  and  C_14 
REMARK    6  A    between atoms: N_23  and  C_15 
ROOT
HETATM    1  C   UNK N   1      34.475  18.033   8.289  0.00  0.00     0.259 C 
HETATM    2  O   UNK N   1      35.037  19.111   8.403  0.00  0.00    -0.280 OA
ENDROOT
BRANCH   1   3
HETATM    3  C   UNK N   1      33.707  17.678   7.072  0.00  0.00     0.161 A 
HETATM    4  N   UNK N   1      34.200  17.278   5.865  0.00  0.00    -0.337 N 
HETATM    5  C   UNK N   1      33.083  17.084   5.126  0.00  0.00     0.060 A 
HETATM    6  H   UNK N   1      35.141  17.161   5.596  0.00  0.00     0.167 HD
HETATM    7  C   UNK N   1      32.955  16.704   3.790  0.00  0.00     0.033 A 
HETATM    8  C   UNK N   1      31.987  17.335   5.884  0.00  0.00     0.061 A 
HETATM    9  C   UNK N   1      31.639  16.595   3.267  0.00  0.00     0.017 A 
HETATM   10  C   UNK N   1      30.504  16.857   4.089  0.00  0.00     0.009 A 
HETATM   11  C   UNK N   1      30.694  17.230   5.423  0.00  0.00     0.047 A 
HETATM   12  N   UNK N   1      32.355  17.703   7.096  0.00  0.00    -0.337 N 
ATOM     13  HN  UNK N   1      31.752  17.951   7.880  1.00  0.00     0.167 HD
BRANCH  10  14
HETATM   14  C   UNK N   1      29.121  16.759   3.576  0.00  0.00     0.102 C 
HETATM   15  N   UNK N   1      28.713  15.690   3.003  0.00  0.00    -0.385 N 
HETATM   16  H   UNK N   1      27.921  15.715   2.418  0.00  0.00     0.157 HD
ATOM     17  HN  UNK N   1      29.207  14.810   3.152  1.00  0.00     0.157 HD
BRANCH  14  18
HETATM   18  N   UNK N   1      28.241  17.862   3.699  0.00  0.00    -0.385 N 
HETATM   19  H   UNK N   1      28.503  18.705   4.136  0.00  0.00     0.157 HD
HETATM   20  H   UNK N   1      27.329  17.783   3.333  0.00  0.00     0.157 HD
ENDBRANCH  14  18
ENDBRANCH  10  14
ENDBRANCH   1   3
BRANCH   1  21
HETATM   21  C   UNK N   1      34.607  16.966   9.311  0.00  0.00     0.161 A 
HETATM   22  N   UNK N   1      34.414  15.666   8.979  0.00  0.00    -0.337 N 
HETATM   23  C   UNK N   1      34.798  14.986  10.048  0.00  0.00     0.060 A 
ATOM     24  HN  UNK N   1      34.052  15.295   8.102  1.00  0.00     0.167 HD
HETATM   25  C   UNK N   1      34.857  13.610  10.172  0.00  0.00     0.033 A 
HETATM   26  C   UNK N   1      35.213  15.846  11.013  0.00  0.00     0.061 A 
HETATM   27  C   UNK N   1      35.401  13.099  11.353  0.00  0.00     0.017 A 
HETATM   28  C   UNK N   1      35.868  13.969  12.371  0.00  0.00     0.009 A 
HETATM   29  C   UNK N   1      35.763  15.377  12.206  0.00  0.00     0.047 A 
HETATM   30  N   UNK N   1      35.082  17.120  10.578  0.00  0.00    -0.337 N 
HETATM   31  H   UNK N   1      35.283  17.954  11.059  0.00  0.00     0.167 HD
BRANCH  28  32
HETATM   32  C   UNK N   1      36.505  13.393  13.571  0.00  0.00     0.102 C 
HETATM   33  N   UNK N   1      36.140  13.772  14.741  0.00  0.00    -0.385 N 
HETATM   34  H   UNK N   1      36.730  13.625  15.515  0.00  0.00     0.157 HD
ATOM     35  HN  UNK N   1      35.236  14.226  14.870  1.00  0.00     0.157 HD
BRANCH  32  36
HETATM   36  N   UNK N   1      37.465  12.365  13.443  0.00  0.00    -0.385 N 
HETATM   37  H   UNK N   1      38.304  12.457  12.937  0.00  0.00     0.157 HD
HETATM   38  H   UNK N   1      37.285  11.506  13.888  0.00  0.00     0.157 HD
ENDBRANCH  32  36
ENDBRANCH  28  32
ENDBRANCH   1  21
TORSDOF 6
ENDMDL
MODEL 2
REMARK VINA RESULT:      -7.8      1.539      8.549
REMARK  6 active torsions:
REMARK  status: ('A' for Active; 'I' for Inactive)
REMARK    1  A    between atoms: C_14  and  C_7 
REMARK    2  A    between atoms: C_15  and  C_8 
REMARK    3  A    between atoms: C_16  and  C_13 
REMARK    4  A    between atoms: C_17  and  C_13 
REMARK    5  A    between atoms: N_20  and  C_14 
REMARK    6  A    between atoms: N_23  and  C_15 
ROOT
HETATM    1  C   UNK N   1      34.492  18.026   8.479  0.00  0.00     0.259 C 
HETATM    2  O   UNK N   1      35.148  19.054   8.402  0.00  0.00    -0.280 OA
ENDROOT
BRANCH   1   3
HETATM    3  C   UNK N   1      34.920  16.888   9.326  0.00  0.00     0.161 A 
HETATM    4  N   UNK N   1      35.228  15.622   8.923  0.00  0.00    -0.337 N 
HETATM    5  C   UNK N   1      35.551  15.001  10.082  0.00  0.00     0.060 A 
HETATM    6  H   UNK N   1      35.217  15.250   8.011  0.00  0.00     0.167 HD
HETATM    7  C   UNK N   1      35.918  13.675  10.308  0.00  0.00     0.033 A 
HETATM    8  C   UNK N   1      35.460  15.880  11.110  0.00  0.00     0.061 A 
HETATM    9  C   UNK N   1      36.187  13.293  11.649  0.00  0.00     0.017 A 
HETATM   10  C   UNK N   1      36.091  14.240  12.710  0.00  0.00     0.009 A 
HETATM   11  C   UNK N   1      35.723  15.559  12.422  0.00  0.00     0.047 A 
HETATM   12  N   UNK N   1      35.072  17.058  10.659  0.00  0.00    -0.337 N 
ATOM     13  HN  UNK N   1      34.919  17.910  11.198  1.00  0.00     0.167 HD
BRANCH  10  14
HETATM   14  C   UNK N   1      36.357  13.876  14.118  0.00  0.00     0.102 C 
HETATM   15  N   UNK N   1      35.763  12.879  14.656  0.00  0.00    -0.385 N 
HETATM   16  H   UNK N   1      35.710  12.807  15.636  0.00  0.00     0.157 HD
ATOM     17  HN  UNK N   1      35.344  12.157  14.069  1.00  0.00     0.157 HD
BRANCH  14  18
HETATM   18  N   UNK N   1      37.262  14.646  14.890  0.00  0.00    -0.385 N 
HETATM   19  H   UNK N   1      38.220  14.715  14.672  0.00  0.00     0.157 HD
HETATM   20  H   UNK N   1      36.920  15.130  15.676  0.00  0.00     0.157 HD
ENDBRANCH  14  18
ENDBRANCH  10  14
ENDBRANCH   1   3
BRANCH   1  21
HETATM   21  C   UNK N   1      33.174  17.884   7.814  0.00  0.00     0.161 A 
HETATM   22  N   UNK N   1      33.095  17.504   6.515  0.00  0.00    -0.337 N 
HETATM   23  C   UNK N   1      31.806  17.284   6.307  0.00  0.00     0.060 A 
ATOM     24  HN  UNK N   1      33.858  17.408   5.847  1.00  0.00     0.167 HD
HETATM   25  C   UNK N   1      31.228  16.806   5.146  0.00  0.00     0.033 A 
HETATM   26  C   UNK N   1      31.110  17.527   7.448  0.00  0.00     0.061 A 
HETATM   27  C   UNK N   1      29.857  16.541   5.178  0.00  0.00     0.017 A 
HETATM   28  C   UNK N   1      29.105  16.758   6.360  0.00  0.00     0.009 A 
HETATM   29  C   UNK N   1      29.741  17.275   7.522  0.00  0.00     0.047 A 
HETATM   30  N   UNK N   1      31.957  17.933   8.422  0.00  0.00    -0.337 N 
HETATM   31  H   UNK N   1      31.744  18.197   9.346  0.00  0.00     0.167 HD
BRANCH  28  32
HETATM   32  C   UNK N   1      27.675  16.396   6.379  0.00  0.00     0.102 C 
HETATM   33  N   UNK N   1      27.111  15.932   5.323  0.00  0.00    -0.385 N 
HETATM   34  H   UNK N   1      26.132  15.960   5.233  0.00  0.00     0.157 HD
ATOM     35  HN  UNK N   1      27.680  15.532   4.577  1.00  0.00     0.157 HD
BRANCH  32  36
HETATM   36  N   UNK N   1      26.933  16.484   7.578  0.00  0.00    -0.385 N 
HETATM   37  H   UNK N   1      26.821  15.739   8.211  0.00  0.00     0.157 HD
HETATM   38  H   UNK N   1      26.503  17.342   7.793  0.00  0.00     0.157 HD
ENDBRANCH  32  36
ENDBRANCH  28  32
ENDBRANCH   1  21
TORSDOF 6
ENDMDL
MODEL 3
REMARK VINA RESULT:      -7.8      1.550      1.945
REMARK  6 active torsions:
REMARK  status: ('A' for Active; 'I' for Inactive)
REMARK    1  A    between atoms: C_14  and  C_7 
REMARK    2  A    between atoms: C_15  and  C_8 
REMARK    3  A    between atoms: C_16  and  C_13 
REMARK    4  A    between atoms: C_17  and  C_13 
REMARK    5  A    between atoms: N_20  and  C_14 
REMARK    6  A    between atoms: N_23  and  C_15 
ROOT
HETATM    1  C   UNK N   1      34.525  17.868   8.706  0.00  0.00     0.259 C 
HETATM    2  O   UNK N   1      35.274  18.820   8.557  0.00  0.00    -0.280 OA
ENDROOT
BRANCH   1   3
HETATM    3  C   UNK N   1      33.289  17.712   7.902  0.00  0.00     0.161 A 
HETATM    4  N   UNK N   1      33.193  17.499   6.559  0.00  0.00    -0.337 N 
HETATM    5  C   UNK N   1      31.857  17.433   6.354  0.00  0.00     0.060 A 
HETATM    6  H   UNK N   1      33.919  17.415   5.899  0.00  0.00     0.167 HD
HETATM    7  C   UNK N   1      31.146  17.265   5.165  0.00  0.00     0.033 A 
HETATM    8  C   UNK N   1      31.207  17.576   7.535  0.00  0.00     0.061 A 
HETATM    9  C   UNK N   1      29.729  17.252   5.249  0.00  0.00     0.017 A 
HETATM   10  C   UNK N   1      29.072  17.396   6.506  0.00  0.00     0.009 A 
HETATM   11  C   UNK N   1      29.837  17.557   7.666  0.00  0.00     0.047 A 
HETATM   12  N   UNK N   1      32.080  17.748   8.509  0.00  0.00    -0.337 N 
ATOM     13  HN  UNK N   1      31.887  17.879   9.501  1.00  0.00     0.167 HD
BRANCH  10  14
HETATM   14  C   UNK N   1      27.599  17.394   6.630  0.00  0.00     0.102 C 
HETATM   15  N   UNK N   1      26.996  16.427   7.212  0.00  0.00    -0.385 N 
HETATM   16  H   UNK N   1      26.037  16.274   7.048  0.00  0.00     0.157 HD
ATOM     17  HN  UNK N   1      27.508  15.813   7.846  1.00  0.00     0.157 HD
BRANCH  14  18
HETATM   18  N   UNK N   1      26.841  18.459   6.084  0.00  0.00    -0.385 N 
HETATM   19  H   UNK N   1      26.123  18.911   6.585  0.00  0.00     0.157 HD
HETATM   20  H   UNK N   1      27.038  18.759   5.167  0.00  0.00     0.157 HD
ENDBRANCH  14  18
ENDBRANCH  10  14
ENDBRANCH   1   3
BRANCH   1  21
HETATM   21  C   UNK N   1      34.849  16.749   9.625  0.00  0.00     0.161 A 
HETATM   22  N   UNK N   1      35.296  15.566   9.140  0.00  0.00    -0.337 N 
HETATM   23  C   UNK N   1      35.672  14.884  10.210  0.00  0.00     0.060 A 
ATOM     24  HN  UNK N   1      35.336  15.267   8.166  1.00  0.00     0.167 HD
HETATM   25  C   UNK N   1      36.268  13.636  10.225  0.00  0.00     0.033 A 
HETATM   26  C   UNK N   1      35.456  15.627  11.326  0.00  0.00     0.061 A 
HETATM   27  C   UNK N   1      36.686  13.144  11.464  0.00  0.00     0.017 A 
HETATM   28  C   UNK N   1      36.501  13.906  12.646  0.00  0.00     0.009 A 
HETATM   29  C   UNK N   1      35.860  15.173  12.581  0.00  0.00     0.047 A 
HETATM   30  N   UNK N   1      34.911  16.817  10.984  0.00  0.00    -0.337 N 
HETATM   31  H   UNK N   1      34.629  17.552  11.574  0.00  0.00     0.167 HD
BRANCH  28  32
HETATM   32  C   UNK N   1      37.023  13.387  13.924  0.00  0.00     0.102 C 
HETATM   33  N   UNK N   1      37.502  12.198  13.993  0.00  0.00    -0.385 N 
HETATM   34  H   UNK N   1      37.581  11.746  14.863  0.00  0.00     0.157 HD
ATOM     35  HN  UNK N   1      37.803  11.721  13.143  1.00  0.00     0.157 HD
BRANCH  32  36
HETATM   36  N   UNK N   1      37.070  14.219  15.064  0.00  0.00    -0.385 N 
HETATM   37  H   UNK N   1      37.894  14.425  15.561  0.00  0.00     0.157 HD
HETATM   38  H   UNK N   1      36.227  14.617  15.381  0.00  0.00     0.157 HD
ENDBRANCH  32  36
ENDBRANCH  28  32
ENDBRANCH   1  21
TORSDOF 6
ENDMDL
MODEL 4
REMARK VINA RESULT:      -7.6      2.317      3.212
REMARK  6 active torsions:
REMARK  status: ('A' for Active; 'I' for Inactive)
REMARK    1  A    between atoms: C_14  and  C_7 
REMARK    2  A    between atoms: C_15  and  C_8 
REMARK    3  A    between atoms: C_16  and  C_13 
REMARK    4  A    between atoms: C_17  and  C_13 
REMARK    5  A    between atoms: N_20  and  C_14 
REMARK    6  A    between atoms: N_23  and  C_15 
ROOT
HETATM    1  C   UNK N   1      33.937  17.660   7.878  0.00  0.00     0.259 C 
HETATM    2  O   UNK N   1      34.490  18.277   6.980  0.00  0.00    -0.280 OA
ENDROOT
BRANCH   1   3
HETATM    3  C   UNK N   1      32.463  17.664   8.035  0.00  0.00     0.161 A 
HETATM    4  N   UNK N   1      31.739  18.175   9.072  0.00  0.00    -0.337 N 
HETATM    5  C   UNK N   1      30.461  17.918   8.710  0.00  0.00     0.060 A 
HETATM    6  H   UNK N   1      32.068  18.622   9.886  0.00  0.00     0.167 HD
HETATM    7  C   UNK N   1      29.274  18.176   9.395  0.00  0.00     0.033 A 
HETATM    8  C   UNK N   1      30.445  17.306   7.501  0.00  0.00     0.061 A 
HETATM    9  C   UNK N   1      28.062  17.774   8.773  0.00  0.00     0.017 A 
HETATM   10  C   UNK N   1      28.073  17.140   7.496  0.00  0.00     0.009 A 
HETATM   11  C   UNK N   1      29.295  16.910   6.855  0.00  0.00     0.047 A 
HETATM   12  N   UNK N   1      31.679  17.143   7.064  0.00  0.00    -0.337 N 
ATOM     13  HN  UNK N   1      31.977  16.716   6.187  1.00  0.00     0.167 HD
BRANCH  10  14
HETATM   14  C   UNK N   1      26.833  16.702   6.823  0.00  0.00     0.102 C 
HETATM   15  N   UNK N   1      26.216  15.651   7.214  0.00  0.00    -0.385 N 
HETATM   16  H   UNK N   1      25.579  15.201   6.613  0.00  0.00     0.157 HD
ATOM     17  HN  UNK N   1      26.384  15.278   8.148  1.00  0.00     0.157 HD
BRANCH  14  18
HETATM   18  N   UNK N   1      26.327  17.437   5.722  0.00  0.00    -0.385 N 
HETATM   19  H   UNK N   1      25.608  17.095   5.141  0.00  0.00     0.157 HD
HETATM   20  H   UNK N   1      26.709  18.324   5.530  0.00  0.00     0.157 HD
ENDBRANCH  14  18
ENDBRANCH  10  14
ENDBRANCH   1   3
BRANCH   1  21
HETATM   21  C   UNK N   1      34.689  16.784   8.808  0.00  0.00     0.161 A 
HETATM   22  N   UNK N   1      34.800  17.105  10.120  0.00  0.00    -0.337 N 
HETATM   23  C   UNK N   1      35.341  16.037  10.684  0.00  0.00     0.060 A 
ATOM     24  HN  UNK N   1      34.526  17.976  10.573  1.00  0.00     0.167 HD
HETATM   25  C   UNK N   1      35.588  15.851  12.032  0.00  0.00     0.033 A 
HETATM   26  C   UNK N   1      35.563  15.085   9.741  0.00  0.00     0.061 A 
HETATM   27  C   UNK N   1      36.065  14.599  12.426  0.00  0.00     0.017 A 
HETATM   28  C   UNK N   1      36.282  13.573  11.472  0.00  0.00     0.009 A 
HETATM   29  C   UNK N   1      36.037  13.822  10.093  0.00  0.00     0.047 A 
HETATM   30  N   UNK N   1      35.174  15.542   8.529  0.00  0.00    -0.337 N 
HETATM   31  H   UNK N   1      35.228  15.088   7.658  0.00  0.00     0.167 HD
BRANCH  28  32
HETATM   32  C   UNK N   1      36.715  12.241  11.935  0.00  0.00     0.102 C 
HETATM   33  N   UNK N   1      36.210  11.180  11.418  0.00  0.00    -0.385 N 
HETATM   34  H   UNK N   1      36.265  10.323  11.896  0.00  0.00     0.157 HD
ATOM     35  HN  UNK N   1      35.751  11.227  10.508  1.00  0.00     0.157 HD
BRANCH  32  36
HETATM   36  N   UNK N   1      37.743  12.121  12.897  0.00  0.00    -0.385 N 
HETATM   37  H   UNK N   1      37.919  12.788  13.598  0.00  0.00     0.157 HD
HETATM   38  H   UNK N   1      38.317  11.324  12.862  0.00  0.00     0.157 HD
ENDBRANCH  32  36
ENDBRANCH  28  32
ENDBRANCH   1  21
TORSDOF 6
ENDMDL
MODEL 5
REMARK VINA RESULT:      -7.6      5.180     11.770
REMARK  6 active torsions:
REMARK  status: ('A' for Active; 'I' for Inactive)
REMARK    1  A    between atoms: C_14  and  C_7 
REMARK    2  A    between atoms: C_15  and  C_8 
REMARK    3  A    between atoms: C_16  and  C_13 
REMARK    4  A    between atoms: C_17  and  C_13 
REMARK    5  A    between atoms: N_20  and  C_14 
REMARK    6  A    between atoms: N_23  and  C_15 
ROOT
HETATM    1  C   UNK N   1      26.459  16.360   5.574  0.00  0.00     0.259 C 
HETATM    2  O   UNK N   1      26.374  15.192   5.230  0.00  0.00    -0.280 OA
ENDROOT
BRANCH   1   3
HETATM    3  C   UNK N   1      27.577  16.846   6.419  0.00  0.00     0.161 A 
HETATM    4  N   UNK N   1      27.496  17.621   7.538  0.00  0.00    -0.337 N 
HETATM    5  C   UNK N   1      28.791  17.762   7.907  0.00  0.00     0.060 A 
HETATM    6  H   UNK N   1      26.692  17.989   7.971  0.00  0.00     0.167 HD
HETATM    7  C   UNK N   1      29.340  18.486   8.965  0.00  0.00     0.033 A 
HETATM    8  C   UNK N   1      29.585  17.074   7.051  0.00  0.00     0.061 A 
HETATM    9  C   UNK N   1      30.754  18.469   9.102  0.00  0.00     0.017 A 
HETATM   10  C   UNK N   1      31.565  17.730   8.192  0.00  0.00     0.009 A 
HETATM   11  C   UNK N   1      30.957  17.020   7.152  0.00  0.00     0.047 A 
HETATM   12  N   UNK N   1      28.849  16.497   6.121  0.00  0.00    -0.337 N 
ATOM     13  HN  UNK N   1      29.169  15.914   5.348  1.00  0.00     0.167 HD
BRANCH  10  14
HETATM   14  C   UNK N   1      33.039  17.695   8.301  0.00  0.00     0.102 C 
HETATM   15  N   UNK N   1      33.604  17.412   9.413  0.00  0.00    -0.385 N 
HETATM   16  H   UNK N   1      34.543  17.664   9.568  0.00  0.00     0.157 HD
ATOM     17  HN  UNK N   1      33.081  16.925  10.142  1.00  0.00     0.157 HD
BRANCH  14  18
HETATM   18  N   UNK N   1      33.839  17.997   7.171  0.00  0.00    -0.385 N 
HETATM   19  H   UNK N   1      33.787  17.484   6.332  0.00  0.00     0.157 HD
HETATM   20  H   UNK N   1      34.474  18.748   7.228  0.00  0.00     0.157 HD
ENDBRANCH  14  18
ENDBRANCH  10  14
ENDBRANCH   1   3
BRANCH   1  21
HETATM   21  C   UNK N   1      25.512  17.393   5.090  0.00  0.00     0.161 A 
HETATM   22  N   UNK N   1      25.966  18.505   4.461  0.00  0.00    -0.337 N 
HETATM   23  C   UNK N   1      24.878  19.095   3.994  0.00  0.00     0.060 A 
ATOM     24  HN  UNK N   1      26.932  18.816   4.368  1.00  0.00     0.167 HD
HETATM   25  C   UNK N   1      24.829  20.236   3.213  0.00  0.00     0.033 A 
HETATM   26  C   UNK N   1      23.782  18.369   4.331  0.00  0.00     0.061 A 
HETATM   27  C   UNK N   1      23.577  20.628   2.735  0.00  0.00     0.017 A 
HETATM   28  C   UNK N   1      22.415  19.877   3.045  0.00  0.00     0.009 A 
HETATM   29  C   UNK N   1      22.514  18.725   3.873  0.00  0.00     0.047 A 
HETATM   30  N   UNK N   1      24.155  17.285   5.050  0.00  0.00    -0.337 N 
HETATM   31  H   UNK N   1      23.585  16.588   5.447  0.00  0.00     0.167 HD
BRANCH  28  32
HETATM   32  C   UNK N   1      21.122  20.279   2.460  0.00  0.00     0.102 C 
HETATM   33  N   UNK N   1      20.648  21.451   2.680  0.00  0.00    -0.385 N 
HETATM   34  H   UNK N   1      19.690  21.630   2.549  0.00  0.00     0.157 HD
ATOM     35  HN  UNK N   1      21.268  22.200   2.992  1.00  0.00     0.157 HD
BRANCH  32  36
HETATM   36  N   UNK N   1      20.432  19.406   1.590  0.00  0.00    -0.385 N 
HETATM   37  H   UNK N   1      19.623  19.656   1.088  0.00  0.00     0.157 HD
HETATM   38  H   UNK N   1      20.780  18.492   1.481  0.00  0.00     0.157 HD
ENDBRANCH  32  36
ENDBRANCH  28  32
ENDBRANCH   1  21
TORSDOF 6
ENDMDL
MODEL 6
REMARK VINA RESULT:      -7.5      5.434      8.487
REMARK  6 active torsions:
REMARK  status: ('A' for Active; 'I' for Inactive)
REMARK    1  A    between atoms: C_14  and  C_7 
REMARK    2  A    between atoms: C_15  and  C_8 
REMARK    3  A    between atoms: C_16  and  C_13 
REMARK    4  A    between atoms: C_17  and  C_13 
REMARK    5  A    between atoms: N_20  and  C_14 
REMARK    6  A    between atoms: N_23  and  C_15 
ROOT
HETATM    1  C   UNK N   1      26.698  19.943   5.320  0.00  0.00     0.259 C 
HETATM    2  O   UNK N   1      27.012  21.102   5.101  0.00  0.00    -0.280 OA
ENDROOT
BRANCH   1   3
HETATM    3  C   UNK N   1      25.374  19.405   4.928  0.00  0.00     0.161 A 
HETATM    4  N   UNK N   1      24.778  18.260   5.369  0.00  0.00    -0.337 N 
HETATM    5  C   UNK N   1      23.600  18.251   4.703  0.00  0.00     0.060 A 
HETATM    6  H   UNK N   1      25.122  17.600   6.015  0.00  0.00     0.167 HD
HETATM    7  C   UNK N   1      22.577  17.302   4.717  0.00  0.00     0.033 A 
HETATM    8  C   UNK N   1      23.507  19.359   3.928  0.00  0.00     0.061 A 
HETATM    9  C   UNK N   1      21.448  17.548   3.892  0.00  0.00     0.017 A 
HETATM   10  C   UNK N   1      21.372  18.727   3.093  0.00  0.00     0.009 A 
HETATM   11  C   UNK N   1      22.428  19.645   3.122  0.00  0.00     0.047 A 
HETATM   12  N   UNK N   1      24.598  20.089   4.056  0.00  0.00    -0.337 N 
ATOM     13  HN  UNK N   1      24.810  20.975   3.599  1.00  0.00     0.167 HD
BRANCH  10  14
HETATM   14  C   UNK N   1      20.216  19.012   2.217  0.00  0.00     0.102 C 
HETATM   15  N   UNK N   1      19.112  18.383   2.371  0.00  0.00    -0.385 N 
HETATM   16  H   UNK N   1      18.456  18.353   1.638  0.00  0.00     0.157 HD
ATOM     17  HN  UNK N   1      18.911  17.913   3.254  1.00  0.00     0.157 HD
BRANCH  14  18
HETATM   18  N   UNK N   1      20.330  19.975   1.184  0.00  0.00    -0.385 N 
HETATM   19  H   UNK N   1      20.975  20.719   1.221  0.00  0.00     0.157 HD
HETATM   20  H   UNK N   1      19.741  19.897   0.399  0.00  0.00     0.157 HD
ENDBRANCH  14  18
ENDBRANCH  10  14
ENDBRANCH   1   3
BRANCH   1  21
HETATM   21  C   UNK N   1      27.653  18.966   5.898  0.00  0.00     0.161 A 
HETATM   22  N   UNK N   1      28.456  18.228   5.094  0.00  0.00    -0.337 N 
HETATM   23  C   UNK N   1      29.299  17.629   5.919  0.00  0.00     0.060 A 
ATOM     24  HN  UNK N   1      28.419  18.152   4.079  1.00  0.00     0.167 HD
HETATM   25  C   UNK N   1      30.363  16.819   5.567  0.00  0.00     0.033 A 
HETATM   26  C   UNK N   1      29.019  17.986   7.199  0.00  0.00     0.061 A 
HETATM   27  C   UNK N   1      31.197  16.377   6.597  0.00  0.00     0.017 A 
HETATM   28  C   UNK N   1      30.949  16.752   7.941  0.00  0.00     0.009 A 
HETATM   29  C   UNK N   1      29.827  17.567   8.256  0.00  0.00     0.047 A 
HETATM   30  N   UNK N   1      27.957  18.824   7.218  0.00  0.00    -0.337 N 
HETATM   31  H   UNK N   1      27.514  19.232   7.996  0.00  0.00     0.167 HD
BRANCH  28  32
HETATM   32  C   UNK N   1      31.894  16.328   8.992  0.00  0.00     0.102 C 
HETATM   33  N   UNK N   1      33.041  16.894   9.098  0.00  0.00    -0.385 N 
HETATM   34  H   UNK N   1      33.771  16.446   9.581  0.00  0.00     0.157 HD
ATOM     35  HN  UNK N   1      33.195  17.812   8.680  1.00  0.00     0.157 HD
BRANCH  32  36
HETATM   36  N   UNK N   1      31.515  15.348   9.936  0.00  0.00    -0.385 N 
HETATM   37  H   UNK N   1      31.154  15.556  10.828  0.00  0.00     0.157 HD
HETATM   38  H   UNK N   1      31.619  14.402   9.688  0.00  0.00     0.157 HD
ENDBRANCH  32  36
ENDBRANCH  28  32
ENDBRANCH   1  21
TORSDOF 6
ENDMDL
MODEL 7
REMARK VINA RESULT:      -7.5      3.099      5.052
REMARK  6 active torsions:
REMARK  status: ('A' for Active; 'I' for Inactive)
REMARK    1  A    between atoms: C_14  and  C_7 
REMARK    2  A    between atoms: C_15  and  C_8 
REMARK    3  A    between atoms: C_16  and  C_13 
REMARK    4  A    between atoms: C_17  and  C_13 
REMARK    5  A    between atoms: N_20  and  C_14 
REMARK    6  A    between atoms: N_23  and  C_15 
ROOT
HETATM    1  C   UNK N   1      35.465  13.007  10.990  0.00  0.00     0.259 C 
HETATM    2  O   UNK N   1      35.677  11.967  10.388  0.00  0.00    -0.280 OA
ENDROOT
BRANCH   1   3
HETATM    3  C   UNK N   1      34.822  14.172  10.335  0.00  0.00     0.161 A 
HETATM    4  N   UNK N   1      35.419  15.325   9.917  0.00  0.00    -0.337 N 
HETATM    5  C   UNK N   1      34.390  16.032   9.396  0.00  0.00     0.060 A 
HETATM    6  H   UNK N   1      36.369  15.580   9.981  0.00  0.00     0.167 HD
HETATM    7  C   UNK N   1      34.380  17.313   8.846  0.00  0.00     0.033 A 
HETATM    8  C   UNK N   1      33.248  15.307   9.485  0.00  0.00     0.061 A 
HETATM    9  C   UNK N   1      33.133  17.817   8.388  0.00  0.00     0.017 A 
HETATM   10  C   UNK N   1      31.949  17.029   8.485  0.00  0.00     0.009 A 
HETATM   11  C   UNK N   1      32.021  15.748   9.044  0.00  0.00     0.047 A 
HETATM   12  N   UNK N   1      33.497  14.147  10.063  0.00  0.00    -0.337 N 
ATOM     13  HN  UNK N   1      32.836  13.397  10.261  1.00  0.00     0.167 HD
BRANCH  10  14
HETATM   14  C   UNK N   1      30.634  17.523   8.026  0.00  0.00     0.102 C 
HETATM   15  N   UNK N   1      30.151  17.142   6.904  0.00  0.00    -0.385 N 
HETATM   16  H   UNK N   1      29.443  17.668   6.467  0.00  0.00     0.157 HD
ATOM     17  HN  UNK N   1      30.500  16.292   6.460  1.00  0.00     0.157 HD
BRANCH  14  18
HETATM   18  N   UNK N   1      29.905  18.441   8.821  0.00  0.00    -0.385 N 
HETATM   19  H   UNK N   1      29.472  18.183   9.667  0.00  0.00     0.157 HD
HETATM   20  H   UNK N   1      29.828  19.374   8.515  0.00  0.00     0.157 HD
ENDBRANCH  14  18
ENDBRANCH  10  14
ENDBRANCH   1   3
BRANCH   1  21
HETATM   21  C   UNK N   1      35.738  13.146  12.441  0.00  0.00     0.161 A 
HETATM   22  N   UNK N   1      36.659  14.035  12.888  0.00  0.00    -0.337 N 
HETATM   23  C   UNK N   1      36.507  14.044  14.202  0.00  0.00     0.060 A 
ATOM     24  HN  UNK N   1      37.321  14.576  12.334  1.00  0.00     0.167 HD
HETATM   25  C   UNK N   1      37.176  14.852  15.104  0.00  0.00     0.033 A 
HETATM   26  C   UNK N   1      35.521  13.180  14.556  0.00  0.00     0.061 A 
HETATM   27  C   UNK N   1      36.782  14.777  16.442  0.00  0.00     0.017 A 
HETATM   28  C   UNK N   1      35.738  13.905  16.842  0.00  0.00     0.009 A 
HETATM   29  C   UNK N   1      35.097  13.075  15.881  0.00  0.00     0.047 A 
HETATM   30  N   UNK N   1      35.026  12.575  13.452  0.00  0.00    -0.337 N 
HETATM   31  H   UNK N   1      34.321  11.891  13.394  0.00  0.00     0.167 HD
BRANCH  28  32
HETATM   32  C   UNK N   1      35.299  13.909  18.250  0.00  0.00     0.102 C 
HETATM   33  N   UNK N   1      35.019  15.014  18.838  0.00  0.00    -0.385 N 
HETATM   34  H   UNK N   1      35.010  15.063  19.821  0.00  0.00     0.157 HD
ATOM     35  HN  UNK N   1      34.806  15.845  18.285  1.00  0.00     0.157 HD
BRANCH  32  36
HETATM   36  N   UNK N   1      35.108  12.690  18.939  0.00  0.00    -0.385 N 
HETATM   37  H   UNK N   1      34.480  11.989  18.652  0.00  0.00     0.157 HD
HETATM   38  H   UNK N   1      35.635  12.534  19.755  0.00  0.00     0.157 HD
ENDBRANCH  32  36
ENDBRANCH  28  32
ENDBRANCH   1  21
TORSDOF 6
ENDMDL
MODEL 8
REMARK VINA RESULT:      -7.5      2.765      9.790
REMARK  6 active torsions:
REMARK  status: ('A' for Active; 'I' for Inactive)
REMARK    1  A    between atoms: C_14  and  C_7 
REMARK    2  A    between atoms: C_15  and  C_8 
REMARK    3  A    between atoms: C_16  and  C_13 
REMARK    4  A    between atoms: C_17  and  C_13 
REMARK    5  A    between atoms: N_20  and  C_14 
REMARK    6  A    between atoms: N_23  and  C_15 
ROOT
HETATM    1  C   UNK N   1      35.939  14.188  11.056  0.00  0.00     0.259 C 
HETATM    2  O   UNK N   1      37.066  14.101  10.595  0.00  0.00    -0.280 OA
ENDROOT
BRANCH   1   3
HETATM    3  C   UNK N   1      35.559  13.522  12.324  0.00  0.00     0.161 A 
HETATM    4  N   UNK N   1      34.789  12.407  12.480  0.00  0.00    -0.337 N 
HETATM    5  C   UNK N   1      34.765  12.235  13.822  0.00  0.00     0.060 A 
HETATM    6  H   UNK N   1      34.355  11.861  11.784  0.00  0.00     0.167 HD
HETATM    7  C   UNK N   1      34.101  11.274  14.584  0.00  0.00     0.033 A 
HETATM    8  C   UNK N   1      35.513  13.196  14.417  0.00  0.00     0.061 A 
HETATM    9  C   UNK N   1      34.243  11.349  15.995  0.00  0.00     0.017 A 
HETATM   10  C   UNK N   1      35.043  12.365  16.594  0.00  0.00     0.009 A 
HETATM   11  C   UNK N   1      35.689  13.300  15.779  0.00  0.00     0.047 A 
HETATM   12  N   UNK N   1      36.017  14.003  13.503  0.00  0.00    -0.337 N 
ATOM     13  HN  UNK N   1      36.619  14.812  13.652  1.00  0.00     0.167 HD
BRANCH  10  14
HETATM   14  C   UNK N   1      35.208  12.477  18.059  0.00  0.00     0.102 C 
HETATM   15  N   UNK N   1      35.272  11.428  18.789  0.00  0.00    -0.385 N 
HETATM   16  H   UNK N   1      35.092  11.487  19.755  0.00  0.00     0.157 HD
ATOM     17  HN  UNK N   1      35.508  10.528  18.370  1.00  0.00     0.157 HD
BRANCH  14  18
HETATM   18  N   UNK N   1      35.278  13.754  18.668  0.00  0.00    -0.385 N 
HETATM   19  H   UNK N   1      34.973  14.575  18.217  0.00  0.00     0.157 HD
HETATM   20  H   UNK N   1      35.646  13.823  19.579  0.00  0.00     0.157 HD
ENDBRANCH  14  18
ENDBRANCH  10  14
ENDBRANCH   1   3
BRANCH   1  21
HETATM   21  C   UNK N   1      34.901  15.048  10.436  0.00  0.00     0.161 A 
HETATM   22  N   UNK N   1      35.231  16.245   9.894  0.00  0.00    -0.337 N 
HETATM   23  C   UNK N   1      34.136  16.644   9.267  0.00  0.00     0.060 A 
ATOM     24  HN  UNK N   1      36.125  16.731   9.955  1.00  0.00     0.167 HD
HETATM   25  C   UNK N   1      33.996  17.783   8.495  0.00  0.00     0.033 A 
HETATM   26  C   UNK N   1      33.156  15.718   9.423  0.00  0.00     0.061 A 
HETATM   27  C   UNK N   1      32.780  17.957   7.830  0.00  0.00     0.017 A 
HETATM   28  C   UNK N   1      31.745  16.996   7.950  0.00  0.00     0.009 A 
HETATM   29  C   UNK N   1      31.928  15.853   8.775  0.00  0.00     0.047 A 
HETATM   30  N   UNK N   1      33.610  14.696  10.184  0.00  0.00    -0.337 N 
HETATM   31  H   UNK N   1      33.125  13.893  10.482  0.00  0.00     0.167 HD
BRANCH  28  32
HETATM   32  C   UNK N   1      30.504  17.177   7.172  0.00  0.00     0.102 C 
HETATM   33  N   UNK N   1      29.407  17.481   7.765  0.00  0.00    -0.385 N 
HETATM   34  H   UNK N   1      28.544  17.323   7.320  0.00  0.00     0.157 HD
ATOM     35  HN  UNK N   1      29.430  17.889   8.700  1.00  0.00     0.157 HD
BRANCH  32  36
HETATM   36  N   UNK N   1      30.529  17.091   5.762  0.00  0.00    -0.385 N 
HETATM   37  H   UNK N   1      31.237  17.480   5.201  0.00  0.00     0.157 HD
HETATM   38  H   UNK N   1      29.793  16.614   5.315  0.00  0.00     0.157 HD
ENDBRANCH  32  36
ENDBRANCH  28  32
ENDBRANCH   1  21
TORSDOF 6
ENDMDL
MODEL 9
REMARK VINA RESULT:      -7.4      3.824     10.948
REMARK  6 active torsions:
REMARK  status: ('A' for Active; 'I' for Inactive)
REMARK    1  A    between atoms: C_14  and  C_7 
REMARK    2  A    between atoms: C_15  and  C_8 
REMARK    3  A    between atoms: C_16  and  C_13 
REMARK    4  A    between atoms: C_17  and  C_13 
REMARK    5  A    between atoms: N_20  and  C_14 
REMARK    6  A    between atoms: N_23  and  C_15 
ROOT
HETATM    1  C   UNK N   1      36.487  12.870  13.112  0.00  0.00     0.259 C 
HETATM    2  O   UNK N   1      37.404  12.215  12.642  0.00  0.00    -0.280 OA
ENDROOT
BRANCH   1   3
HETATM    3  C   UNK N   1      36.153  12.822  14.556  0.00  0.00     0.161 A 
HETATM    4  N   UNK N   1      35.846  13.870  15.373  0.00  0.00    -0.337 N 
HETATM    5  C   UNK N   1      35.628  13.274  16.568  0.00  0.00     0.060 A 
HETATM    6  H   UNK N   1      35.795  14.828  15.148  0.00  0.00     0.167 HD
HETATM    7  C   UNK N   1      35.313  13.843  17.802  0.00  0.00     0.033 A 
HETATM    8  C   UNK N   1      35.778  11.933  16.442  0.00  0.00     0.061 A 
HETATM    9  C   UNK N   1      35.158  12.963  18.906  0.00  0.00     0.017 A 
HETATM   10  C   UNK N   1      35.312  11.555  18.742  0.00  0.00     0.009 A 
HETATM   11  C   UNK N   1      35.626  11.041  17.479  0.00  0.00     0.047 A 
HETATM   12  N   UNK N   1      36.102  11.633  15.198  0.00  0.00    -0.337 N 
ATOM     13  HN  UNK N   1      36.275  10.707  14.807  1.00  0.00     0.167 HD
BRANCH  10  14
HETATM   14  C   UNK N   1      35.165  10.610  19.869  0.00  0.00     0.102 C 
HETATM   15  N   UNK N   1      34.363   9.617  19.786  0.00  0.00    -0.385 N 
HETATM   16  H   UNK N   1      34.047   9.167  20.603  0.00  0.00     0.157 HD
ATOM     17  HN  UNK N   1      34.049   9.289  18.872  1.00  0.00     0.157 HD
BRANCH  14  18
HETATM   18  N   UNK N   1      35.902  10.811  21.063  0.00  0.00    -0.385 N 
HETATM   19  H   UNK N   1      35.521  11.260  21.852  0.00  0.00     0.157 HD
HETATM   20  H   UNK N   1      36.832  10.490  21.104  0.00  0.00     0.157 HD
ENDBRANCH  14  18
ENDBRANCH  10  14
ENDBRANCH   1   3
BRANCH   1  21
HETATM   21  C   UNK N   1      35.710  13.834  12.296  0.00  0.00     0.161 A 
HETATM   22  N   UNK N   1      36.209  15.064  12.021  0.00  0.00    -0.337 N 
HETATM   23  C   UNK N   1      35.375  15.573  11.128  0.00  0.00     0.060 A 
ATOM     24  HN  UNK N   1      37.042  15.499  12.414  1.00  0.00     0.167 HD
HETATM   25  C   UNK N   1      35.501  16.790  10.483  0.00  0.00     0.033 A 
HETATM   26  C   UNK N   1      34.386  14.682  10.864  0.00  0.00     0.061 A 
HETATM   27  C   UNK N   1      34.563  17.086   9.491  0.00  0.00     0.017 A 
HETATM   28  C   UNK N   1      33.532  16.165   9.171  0.00  0.00     0.009 A 
HETATM   29  C   UNK N   1      33.431  14.938   9.881  0.00  0.00     0.047 A 
HETATM   30  N   UNK N   1      34.563  13.568  11.612  0.00  0.00    -0.337 N 
HETATM   31  H   UNK N   1      33.999  12.762  11.651  0.00  0.00     0.167 HD
BRANCH  28  32
HETATM   32  C   UNK N   1      32.606  16.480   8.067  0.00  0.00     0.102 C 
HETATM   33  N   UNK N   1      32.340  17.700   7.773  0.00  0.00    -0.385 N 
HETATM   34  H   UNK N   1      31.532  17.919   7.256  0.00  0.00     0.157 HD
ATOM     35  HN  UNK N   1      32.967  18.445   8.076  1.00  0.00     0.157 HD
BRANCH  32  36
HETATM   36  N   UNK N   1      32.065  15.443   7.275  0.00  0.00    -0.385 N 
HETATM   37  H   UNK N   1      32.339  15.259   6.348  0.00  0.00     0.157 HD
HETATM   38  H   UNK N   1      31.372  14.870   7.675  0.00  0.00     0.157 HD
ENDBRANCH  32  36
ENDBRANCH  28  32
ENDBRANCH   1  21
TORSDOF 6
ENDMDL
