REMARK  5 active torsions:
REMARK  status: ('A' for Active; 'I' for Inactive)
REMARK    1  A    between atoms: O_1  and  B_2 
REMARK    2  A    between atoms: B_2  and  O_3 
REMARK    3  A    between atoms: B_2  and  C_4 
REMARK    4  A    between atoms: C_4  and  C_5 
REMARK    5  A    between atoms: C_5  and  C_6 
ROOT
HETATM    1  C   UNK N   1       0.930   2.446   0.000  0.00  0.00     0.034 C 
ENDROOT
BRANCH   1   2
HETATM    2  C   UNK N   1      -0.468   3.053   0.000  0.00  0.00     0.026 C 
BRANCH   2   3
HETATM    3  B   UNK N   1      -0.395   4.642  -0.000  0.00  0.00     0.491 B 
BRANCH   3   4
HETATM    4  O   UNK N   1      -1.630   5.418   0.000  0.00  0.00    -0.438 OA
HETATM    5  H   UNK N   1      -1.593   6.387   0.000  0.00  0.00     0.184 HD
ENDBRANCH   3   4
BRANCH   3   6
HETATM    6  O   UNK N   1       0.894   5.330  -0.000  0.00  0.00    -0.438 OA
HETATM    7  H   UNK N   1       1.717   4.817  -0.000  0.00  0.00     0.184 HD
ENDBRANCH   3   6
ENDBRANCH   2   3
ENDBRANCH   1   2
BRANCH   1   8
HETATM    8  C   UNK N   1       0.943   0.944   0.000  0.00  0.00    -0.059 A 
HETATM    9  C   UNK N   1       2.177   0.287   0.000  0.00  0.00     0.007 A 
HETATM   10  C   UNK N   1       2.230  -1.110  -0.000  0.00  0.00     0.001 A 
HETATM   11  C   UNK N   1       1.050  -1.856  -0.000  0.00  0.00     0.000 A 
HETATM   12  C   UNK N   1      -0.188  -1.206  -0.000  0.00  0.00     0.001 A 
HETATM   13  C   UNK N   1      -0.242   0.191   0.000  0.00  0.00     0.007 A 
ENDBRANCH   1   8
TORSDOF 5
