MODEL 1
REMARK VINA RESULT:      -4.6      0.000      0.000
REMARK  9 active torsions:
REMARK  status: ('A' for Active; 'I' for Inactive)
REMARK    1  A    between atoms: O_1  and  C_2 
REMARK    2  A    between atoms: C_2  and  C_3 
REMARK    3  A    between atoms: C_3  and  O_4 
REMARK    4  A    between atoms: C_3  and  C_5 
REMARK    5  A    between atoms: C_5  and  O_6 
REMARK    6  A    between atoms: C_5  and  C_7 
REMARK    7  A    between atoms: C_7  and  O_8 
REMARK    8  A    between atoms: C_7  and  C_9 
REMARK    9  A    between atoms: C_9  and  O_10 
ROOT
HETATM    1  C   UNK N   1      20.057  20.067   3.250  0.00  0.00     0.179 C 
ENDROOT
BRANCH   1   2
HETATM    2  C   UNK N   1      19.666  18.714   2.628  0.00  0.00     0.173 C 
BRANCH   2   3
HETATM    3  C   UNK N   1      20.032  17.549   3.538  0.00  0.00     0.198 C 
BRANCH   3   4
HETATM    4  O   UNK N   1      21.355  17.157   3.331  0.00  0.00    -0.398 OA
HETATM    5  H   UNK N   1      22.022  17.090   4.032  0.00  0.00     0.209 HD
ENDBRANCH   3   4
ENDBRANCH   2   3
BRANCH   2   6
HETATM    6  O   UNK N   1      18.287  18.660   2.406  0.00  0.00    -0.391 OA
HETATM    7  H   UNK N   1      17.723  19.428   2.583  0.00  0.00     0.210 HD
ENDBRANCH   2   6
ENDBRANCH   1   2
BRANCH   1   8
HETATM    8  O   UNK N   1      20.895  19.848   4.349  0.00  0.00    -0.390 OA
HETATM    9  H   UNK N   1      21.109  20.566   4.964  0.00  0.00     0.210 HD
ENDBRANCH   1   8
BRANCH   1  10
HETATM   10  C   UNK N   1      20.762  21.005   2.253  0.00  0.00     0.173 C 
BRANCH  10  11
HETATM   11  O   UNK N   1      21.942  21.508   2.807  0.00  0.00    -0.391 OA
HETATM   12  H   UNK N   1      22.419  22.238   2.383  0.00  0.00     0.210 HD
ENDBRANCH  10  11
BRANCH  10  13
HETATM   13  C   UNK N   1      21.130  20.280   0.965  0.00  0.00     0.198 C 
BRANCH  13  14
HETATM   14  O   UNK N   1      20.707  21.009  -0.147  0.00  0.00    -0.398 OA
HETATM   15  H   UNK N   1      20.264  21.870  -0.107  0.00  0.00     0.209 HD
ENDBRANCH  13  14
ENDBRANCH  10  13
ENDBRANCH   1  10
TORSDOF 9
ENDMDL
MODEL 2
REMARK VINA RESULT:      -4.5      0.855      3.655
REMARK  9 active torsions:
REMARK  status: ('A' for Active; 'I' for Inactive)
REMARK    1  A    between atoms: O_1  and  C_2 
REMARK    2  A    between atoms: C_2  and  C_3 
REMARK    3  A    between atoms: C_3  and  O_4 
REMARK    4  A    between atoms: C_3  and  C_5 
REMARK    5  A    between atoms: C_5  and  O_6 
REMARK    6  A    between atoms: C_5  and  C_7 
REMARK    7  A    between atoms: C_7  and  O_8 
REMARK    8  A    between atoms: C_7  and  C_9 
REMARK    9  A    between atoms: C_9  and  O_10 
ROOT
HETATM    1  C   UNK N   1      21.377  19.625   3.287  0.00  0.00     0.179 C 
ENDROOT
BRANCH   1   2
HETATM    2  C   UNK N   1      21.768  20.631   2.189  0.00  0.00     0.173 C 
BRANCH   2   3
HETATM    3  C   UNK N   1      20.575  21.008   1.320  0.00  0.00     0.198 C 
BRANCH   3   4
HETATM    4  O   UNK N   1      20.755  20.557   0.012  0.00  0.00    -0.398 OA
HETATM    5  H   UNK N   1      20.648  19.635  -0.268  0.00  0.00     0.209 HD
ENDBRANCH   3   4
ENDBRANCH   2   3
BRANCH   2   6
HETATM    6  O   UNK N   1      22.263  21.806   2.760  0.00  0.00    -0.391 OA
HETATM    7  H   UNK N   1      23.021  22.269   2.371  0.00  0.00     0.210 HD
ENDBRANCH   2   6
ENDBRANCH   1   2
BRANCH   1   8
HETATM    8  O   UNK N   1      20.388  20.188   4.102  0.00  0.00    -0.390 OA
HETATM    9  H   UNK N   1      20.623  20.729   4.871  0.00  0.00     0.210 HD
ENDBRANCH   1   8
BRANCH   1  10
HETATM   10  C   UNK N   1      20.868  18.286   2.722  0.00  0.00     0.173 C 
BRANCH  10  11
HETATM   11  O   UNK N   1      21.722  17.245   3.089  0.00  0.00    -0.391 OA
HETATM   12  H   UNK N   1      22.451  16.971   2.510  0.00  0.00     0.210 HD
ENDBRANCH  10  11
BRANCH  10  13
HETATM   13  C   UNK N   1      19.478  17.950   3.246  0.00  0.00     0.198 C 
BRANCH  13  14
HETATM   14  O   UNK N   1      18.497  18.562   2.466  0.00  0.00    -0.398 OA
HETATM   15  H   UNK N   1      17.543  18.466   2.603  0.00  0.00     0.209 HD
ENDBRANCH  13  14
ENDBRANCH  10  13
ENDBRANCH   1  10
TORSDOF 9
ENDMDL
MODEL 3
REMARK VINA RESULT:      -4.4     17.263     18.256
REMARK  9 active torsions:
REMARK  status: ('A' for Active; 'I' for Inactive)
REMARK    1  A    between atoms: O_1  and  C_2 
REMARK    2  A    between atoms: C_2  and  C_3 
REMARK    3  A    between atoms: C_3  and  O_4 
REMARK    4  A    between atoms: C_3  and  C_5 
REMARK    5  A    between atoms: C_5  and  O_6 
REMARK    6  A    between atoms: C_5  and  C_7 
REMARK    7  A    between atoms: C_7  and  O_8 
REMARK    8  A    between atoms: C_7  and  C_9 
REMARK    9  A    between atoms: C_9  and  O_10 
ROOT
HETATM    1  C   UNK N   1      35.088  14.743  11.344  0.00  0.00     0.179 C 
ENDROOT
BRANCH   1   2
HETATM    2  C   UNK N   1      35.648  14.234  12.684  0.00  0.00     0.173 C 
BRANCH   2   3
HETATM    3  C   UNK N   1      36.546  13.018  12.494  0.00  0.00     0.198 C 
BRANCH   3   4
HETATM    4  O   UNK N   1      37.709  13.365  11.805  0.00  0.00    -0.398 OA
HETATM    5  H   UNK N   1      37.721  13.790  10.933  0.00  0.00     0.209 HD
ENDBRANCH   3   4
ENDBRANCH   2   3
BRANCH   2   6
HETATM    6  O   UNK N   1      36.410  15.230  13.302  0.00  0.00    -0.391 OA
HETATM    7  H   UNK N   1      36.411  15.331  14.267  0.00  0.00     0.210 HD
ENDBRANCH   2   6
ENDBRANCH   1   2
BRANCH   1   8
HETATM    8  O   UNK N   1      33.692  14.817  11.422  0.00  0.00    -0.390 OA
HETATM    9  H   UNK N   1      33.215  15.594  11.092  0.00  0.00     0.210 HD
ENDBRANCH   1   8
BRANCH   1  10
HETATM   10  C   UNK N   1      35.647  16.121  10.943  0.00  0.00     0.173 C 
BRANCH  10  11
HETATM   11  O   UNK N   1      37.037  16.064  10.812  0.00  0.00    -0.391 OA
HETATM   12  H   UNK N   1      37.611  16.631  11.349  0.00  0.00     0.210 HD
ENDBRANCH  10  11
BRANCH  10  13
HETATM   13  C   UNK N   1      35.077  16.590   9.611  0.00  0.00     0.198 C 
BRANCH  13  14
HETATM   14  O   UNK N   1      33.855  17.235   9.801  0.00  0.00    -0.398 OA
HETATM   15  H   UNK N   1      33.356  17.690   9.105  0.00  0.00     0.209 HD
ENDBRANCH  13  14
ENDBRANCH  10  13
ENDBRANCH   1  10
TORSDOF 9
ENDMDL
MODEL 4
REMARK VINA RESULT:      -4.4      1.544      3.411
REMARK  9 active torsions:
REMARK  status: ('A' for Active; 'I' for Inactive)
REMARK    1  A    between atoms: O_1  and  C_2 
REMARK    2  A    between atoms: C_2  and  C_3 
REMARK    3  A    between atoms: C_3  and  O_4 
REMARK    4  A    between atoms: C_3  and  C_5 
REMARK    5  A    between atoms: C_5  and  O_6 
REMARK    6  A    between atoms: C_5  and  C_7 
REMARK    7  A    between atoms: C_7  and  O_8 
REMARK    8  A    between atoms: C_7  and  C_9 
REMARK    9  A    between atoms: C_9  and  O_10 
ROOT
HETATM    1  C   UNK N   1      19.735  18.810   2.812  0.00  0.00     0.179 C 
ENDROOT
BRANCH   1   2
HETATM    2  C   UNK N   1      20.302  20.188   2.429  0.00  0.00     0.173 C 
BRANCH   2   3
HETATM    3  C   UNK N   1      21.790  20.292   2.737  0.00  0.00     0.198 C 
BRANCH   3   4
HETATM    4  O   UNK N   1      22.184  21.627   2.832  0.00  0.00    -0.398 OA
HETATM    5  H   UNK N   1      22.724  22.086   2.170  0.00  0.00     0.209 HD
ENDBRANCH   3   4
ENDBRANCH   2   3
BRANCH   2   6
HETATM    6  O   UNK N   1      20.137  20.419   1.060  0.00  0.00    -0.391 OA
HETATM    7  H   UNK N   1      20.815  20.147   0.423  0.00  0.00     0.210 HD
ENDBRANCH   2   6
ENDBRANCH   1   2
BRANCH   1   8
HETATM    8  O   UNK N   1      18.437  18.684   2.306  0.00  0.00    -0.390 OA
HETATM    9  H   UNK N   1      17.766  18.163   2.775  0.00  0.00     0.210 HD
ENDBRANCH   1   8
BRANCH   1  10
HETATM   10  C   UNK N   1      20.597  17.641   2.297  0.00  0.00     0.173 C 
BRANCH  10  11
HETATM   11  O   UNK N   1      20.729  16.660   3.282  0.00  0.00    -0.391 OA
HETATM   12  H   UNK N   1      21.604  16.371   3.583  0.00  0.00     0.210 HD
ENDBRANCH  10  11
BRANCH  10  13
HETATM   13  C   UNK N   1      19.974  16.985   1.072  0.00  0.00     0.198 C 
BRANCH  13  14
HETATM   14  O   UNK N   1      20.268  17.716  -0.080  0.00  0.00    -0.398 OA
HETATM   15  H   UNK N   1      19.730  17.716  -0.886  0.00  0.00     0.209 HD
ENDBRANCH  13  14
ENDBRANCH  10  13
ENDBRANCH   1  10
TORSDOF 9
ENDMDL
MODEL 5
REMARK VINA RESULT:      -4.4     15.216     16.016
REMARK  9 active torsions:
REMARK  status: ('A' for Active; 'I' for Inactive)
REMARK    1  A    between atoms: O_1  and  C_2 
REMARK    2  A    between atoms: C_2  and  C_3 
REMARK    3  A    between atoms: C_3  and  O_4 
REMARK    4  A    between atoms: C_3  and  C_5 
REMARK    5  A    between atoms: C_5  and  O_6 
REMARK    6  A    between atoms: C_5  and  C_7 
REMARK    7  A    between atoms: C_7  and  O_8 
REMARK    8  A    between atoms: C_7  and  C_9 
REMARK    9  A    between atoms: C_9  and  O_10 
ROOT
HETATM    1  C   UNK N   1      34.992  16.627   8.959  0.00  0.00     0.179 C 
ENDROOT
BRANCH   1   2
HETATM    2  C   UNK N   1      35.189  16.408  10.470  0.00  0.00     0.173 C 
BRANCH   2   3
HETATM    3  C   UNK N   1      34.623  15.068  10.924  0.00  0.00     0.198 C 
BRANCH   3   4
HETATM    4  O   UNK N   1      33.240  15.147  11.091  0.00  0.00    -0.398 OA
HETATM    5  H   UNK N   1      32.695  14.443  11.475  0.00  0.00     0.209 HD
ENDBRANCH   3   4
ENDBRANCH   2   3
BRANCH   2   6
HETATM    6  O   UNK N   1      36.549  16.422  10.791  0.00  0.00    -0.391 OA
HETATM    7  H   UNK N   1      37.220  16.185  10.133  0.00  0.00     0.210 HD
ENDBRANCH   2   6
ENDBRANCH   1   2
BRANCH   1   8
HETATM    8  O   UNK N   1      34.235  15.575   8.432  0.00  0.00    -0.390 OA
HETATM    9  H   UNK N   1      34.011  14.801   8.972  0.00  0.00     0.210 HD
ENDBRANCH   1   8
BRANCH   1  10
HETATM   10  C   UNK N   1      34.302  17.964   8.631  0.00  0.00     0.173 C 
BRANCH  10  11
HETATM   11  O   UNK N   1      35.246  18.986   8.516  0.00  0.00    -0.391 OA
HETATM   12  H   UNK N   1      36.127  18.811   8.148  0.00  0.00     0.210 HD
ENDBRANCH  10  11
BRANCH  10  13
HETATM   13  C   UNK N   1      33.537  17.892   7.317  0.00  0.00     0.198 C 
BRANCH  13  14
HETATM   14  O   UNK N   1      34.410  17.663   6.253  0.00  0.00    -0.398 OA
HETATM   15  H   UNK N   1      34.665  16.787   5.926  0.00  0.00     0.209 HD
ENDBRANCH  13  14
ENDBRANCH  10  13
ENDBRANCH   1  10
TORSDOF 9
ENDMDL
MODEL 6
REMARK VINA RESULT:      -4.4      1.161      2.119
REMARK  9 active torsions:
REMARK  status: ('A' for Active; 'I' for Inactive)
REMARK    1  A    between atoms: O_1  and  C_2 
REMARK    2  A    between atoms: C_2  and  C_3 
REMARK    3  A    between atoms: C_3  and  O_4 
REMARK    4  A    between atoms: C_3  and  C_5 
REMARK    5  A    between atoms: C_5  and  O_6 
REMARK    6  A    between atoms: C_5  and  C_7 
REMARK    7  A    between atoms: C_7  and  O_8 
REMARK    8  A    between atoms: C_7  and  C_9 
REMARK    9  A    between atoms: C_9  and  O_10 
ROOT
HETATM    1  C   UNK N   1      19.806  18.680   2.408  0.00  0.00     0.179 C 
ENDROOT
BRANCH   1   2
HETATM    2  C   UNK N   1      20.399  17.941   3.622  0.00  0.00     0.173 C 
BRANCH   2   3
HETATM    3  C   UNK N   1      19.877  16.513   3.722  0.00  0.00     0.198 C 
BRANCH   3   4
HETATM    4  O   UNK N   1      18.693  16.470   4.458  0.00  0.00    -0.398 OA
HETATM    5  H   UNK N   1      18.569  16.896   5.320  0.00  0.00     0.209 HD
ENDBRANCH   3   4
ENDBRANCH   2   3
BRANCH   2   6
HETATM    6  O   UNK N   1      21.791  17.876   3.520  0.00  0.00    -0.391 OA
HETATM    7  H   UNK N   1      22.330  18.682   3.527  0.00  0.00     0.210 HD
ENDBRANCH   2   6
ENDBRANCH   1   2
BRANCH   1   8
HETATM    8  O   UNK N   1      18.412  18.551   2.421  0.00  0.00    -0.390 OA
HETATM    9  H   UNK N   1      17.886  18.889   3.162  0.00  0.00     0.210 HD
ENDBRANCH   1   8
BRANCH   1  10
HETATM   10  C   UNK N   1      20.177  20.175   2.375  0.00  0.00     0.173 C 
BRANCH  10  11
HETATM   11  O   UNK N   1      20.767  20.558   3.581  0.00  0.00    -0.391 OA
HETATM   12  H   UNK N   1      21.271  19.922   4.113  0.00  0.00     0.210 HD
ENDBRANCH  10  11
BRANCH  10  13
HETATM   13  C   UNK N   1      21.166  20.481   1.259  0.00  0.00     0.198 C 
BRANCH  13  14
HETATM   14  O   UNK N   1      20.527  20.464   0.019  0.00  0.00    -0.398 OA
HETATM   15  H   UNK N   1      20.064  19.698  -0.353  0.00  0.00     0.209 HD
ENDBRANCH  13  14
ENDBRANCH  10  13
ENDBRANCH   1  10
TORSDOF 9
ENDMDL
MODEL 7
REMARK VINA RESULT:      -4.3     17.136     18.207
REMARK  9 active torsions:
REMARK  status: ('A' for Active; 'I' for Inactive)
REMARK    1  A    between atoms: O_1  and  C_2 
REMARK    2  A    between atoms: C_2  and  C_3 
REMARK    3  A    between atoms: C_3  and  O_4 
REMARK    4  A    between atoms: C_3  and  C_5 
REMARK    5  A    between atoms: C_5  and  O_6 
REMARK    6  A    between atoms: C_5  and  C_7 
REMARK    7  A    between atoms: C_7  and  O_8 
REMARK    8  A    between atoms: C_7  and  C_9 
REMARK    9  A    between atoms: C_9  and  O_10 
ROOT
HETATM    1  C   UNK N   1      35.459  15.023  11.877  0.00  0.00     0.179 C 
ENDROOT
BRANCH   1   2
HETATM    2  C   UNK N   1      35.623  13.692  12.634  0.00  0.00     0.173 C 
BRANCH   2   3
HETATM    3  C   UNK N   1      36.037  13.916  14.083  0.00  0.00     0.198 C 
BRANCH   3   4
HETATM    4  O   UNK N   1      36.933  14.980  14.182  0.00  0.00    -0.398 OA
HETATM    5  H   UNK N   1      37.829  14.978  13.810  0.00  0.00     0.209 HD
ENDBRANCH   3   4
ENDBRANCH   2   3
BRANCH   2   6
HETATM    6  O   UNK N   1      34.418  12.986  12.643  0.00  0.00    -0.391 OA
HETATM    7  H   UNK N   1      34.307  12.194  13.191  0.00  0.00     0.210 HD
ENDBRANCH   2   6
ENDBRANCH   1   2
BRANCH   1   8
HETATM    8  O   UNK N   1      36.707  15.446  11.405  0.00  0.00    -0.390 OA
HETATM    9  H   UNK N   1      36.975  15.284  10.487  0.00  0.00     0.210 HD
ENDBRANCH   1   8
BRANCH   1  10
HETATM   10  C   UNK N   1      34.477  14.924  10.695  0.00  0.00     0.173 C 
BRANCH  10  11
HETATM   11  O   UNK N   1      33.158  14.982  11.150  0.00  0.00    -0.391 OA
HETATM   12  H   UNK N   1      32.956  15.264  12.057  0.00  0.00     0.210 HD
ENDBRANCH  10  11
BRANCH  10  13
HETATM   13  C   UNK N   1      34.674  16.065   9.706  0.00  0.00     0.198 C 
BRANCH  13  14
HETATM   14  O   UNK N   1      34.815  17.279  10.379  0.00  0.00    -0.398 OA
HETATM   15  H   UNK N   1      34.417  17.484  11.239  0.00  0.00     0.209 HD
ENDBRANCH  13  14
ENDBRANCH  10  13
ENDBRANCH   1  10
TORSDOF 9
ENDMDL
MODEL 8
REMARK VINA RESULT:      -4.3     17.757     19.095
REMARK  9 active torsions:
REMARK  status: ('A' for Active; 'I' for Inactive)
REMARK    1  A    between atoms: O_1  and  C_2 
REMARK    2  A    between atoms: C_2  and  C_3 
REMARK    3  A    between atoms: C_3  and  O_4 
REMARK    4  A    between atoms: C_3  and  C_5 
REMARK    5  A    between atoms: C_5  and  O_6 
REMARK    6  A    between atoms: C_5  and  C_7 
REMARK    7  A    between atoms: C_7  and  O_8 
REMARK    8  A    between atoms: C_7  and  C_9 
REMARK    9  A    between atoms: C_9  and  O_10 
ROOT
HETATM    1  C   UNK N   1      36.199  13.859  11.364  0.00  0.00     0.179 C 
ENDROOT
BRANCH   1   2
HETATM    2  C   UNK N   1      36.160  15.121  10.484  0.00  0.00     0.173 C 
BRANCH   2   3
HETATM    3  C   UNK N   1      34.783  15.773  10.493  0.00  0.00     0.198 C 
BRANCH   3   4
HETATM    4  O   UNK N   1      34.893  17.159  10.615  0.00  0.00    -0.398 OA
HETATM    5  H   UNK N   1      34.871  17.637  11.458  0.00  0.00     0.209 HD
ENDBRANCH   3   4
ENDBRANCH   2   3
BRANCH   2   6
HETATM    6  O   UNK N   1      37.079  16.066  10.948  0.00  0.00    -0.391 OA
HETATM    7  H   UNK N   1      37.788  15.815  11.559  0.00  0.00     0.210 HD
ENDBRANCH   2   6
ENDBRANCH   1   2
BRANCH   1   8
HETATM    8  O   UNK N   1      37.521  13.596  11.741  0.00  0.00    -0.390 OA
HETATM    9  H   UNK N   1      38.069  12.975  11.237  0.00  0.00     0.210 HD
ENDBRANCH   1   8
BRANCH   1  10
HETATM   10  C   UNK N   1      35.325  13.980  12.627  0.00  0.00     0.173 C 
BRANCH  10  11
HETATM   11  O   UNK N   1      34.449  12.897  12.720  0.00  0.00    -0.391 OA
HETATM   12  H   UNK N   1      34.757  12.033  13.036  0.00  0.00     0.210 HD
ENDBRANCH  10  11
BRANCH  10  13
HETATM   13  C   UNK N   1      36.171  14.000  13.893  0.00  0.00     0.198 C 
BRANCH  13  14
HETATM   14  O   UNK N   1      36.887  15.194  13.987  0.00  0.00    -0.398 OA
HETATM   15  H   UNK N   1      36.743  15.872  14.664  0.00  0.00     0.209 HD
ENDBRANCH  13  14
ENDBRANCH  10  13
ENDBRANCH   1  10
TORSDOF 9
ENDMDL
MODEL 9
REMARK VINA RESULT:      -4.2     15.461     16.513
REMARK  9 active torsions:
REMARK  status: ('A' for Active; 'I' for Inactive)
REMARK    1  A    between atoms: O_1  and  C_2 
REMARK    2  A    between atoms: C_2  and  C_3 
REMARK    3  A    between atoms: C_3  and  O_4 
REMARK    4  A    between atoms: C_3  and  C_5 
REMARK    5  A    between atoms: C_5  and  O_6 
REMARK    6  A    between atoms: C_5  and  C_7 
REMARK    7  A    between atoms: C_7  and  O_8 
REMARK    8  A    between atoms: C_7  and  C_9 
REMARK    9  A    between atoms: C_9  and  O_10 
ROOT
HETATM    1  C   UNK N   1      34.884  16.704   9.642  0.00  0.00     0.179 C 
ENDROOT
BRANCH   1   2
HETATM    2  C   UNK N   1      33.522  16.877   8.947  0.00  0.00     0.173 C 
BRANCH   2   3
HETATM    3  C   UNK N   1      33.505  18.098   8.036  0.00  0.00     0.198 C 
BRANCH   3   4
HETATM    4  O   UNK N   1      34.548  18.040   7.111  0.00  0.00    -0.398 OA
HETATM    5  H   UNK N   1      34.425  18.034   6.149  0.00  0.00     0.209 HD
ENDBRANCH   3   4
ENDBRANCH   2   3
BRANCH   2   6
HETATM    6  O   UNK N   1      33.231  15.759   8.160  0.00  0.00    -0.391 OA
HETATM    7  H   UNK N   1      33.805  14.978   8.172  0.00  0.00     0.210 HD
ENDBRANCH   2   6
ENDBRANCH   1   2
BRANCH   1   8
HETATM    8  O   UNK N   1      35.481  17.959   9.813  0.00  0.00    -0.390 OA
HETATM    9  H   UNK N   1      36.389  18.124   9.515  0.00  0.00     0.210 HD
ENDBRANCH   1   8
BRANCH   1  10
HETATM   10  C   UNK N   1      34.777  16.003  11.009  0.00  0.00     0.173 C 
BRANCH  10  11
HETATM   11  O   UNK N   1      33.683  15.135  11.027  0.00  0.00    -0.391 OA
HETATM   12  H   UNK N   1      33.029  15.173  11.743  0.00  0.00     0.210 HD
ENDBRANCH  10  11
BRANCH  10  13
HETATM   13  C   UNK N   1      36.022  15.183  11.317  0.00  0.00     0.198 C 
BRANCH  13  14
HETATM   14  O   UNK N   1      37.164  15.825  10.837  0.00  0.00    -0.398 OA
HETATM   15  H   UNK N   1      38.027  15.820  11.278  0.00  0.00     0.209 HD
ENDBRANCH  13  14
ENDBRANCH  10  13
ENDBRANCH   1  10
TORSDOF 9
ENDMDL
