REMARK  11 active torsions:
REMARK  status: ('A' for Active; 'I' for Inactive)
REMARK    1  A    between atoms: C_2  and  N_1 
REMARK    2  A    between atoms: C_2  and  C_3 
REMARK    3  A    between atoms: C_2  and  C_11 
REMARK    4  A    between atoms: C_3  and  C_4 
REMARK    5  A    between atoms: C_4  and  C_5 
REMARK    6  A    between atoms: C_5  and  C_6 
REMARK    7  A    between atoms: C_6  and  B_7 
REMARK    8  A    between atoms: B_7  and  O_8 
REMARK    9  A    between atoms: B_7  and  O_9 
REMARK   10  A    between atoms: B_7  and  O_10 
REMARK   11  A    between atoms: C_11  and  O_12 
ROOT
HETATM    1  C   UNK N   1       5.907   2.468  -0.246  0.00  0.00     0.002 C 
ENDROOT
BRANCH   1   2
HETATM    2  C   UNK N   1       7.017   3.293   0.382  0.00  0.00     0.035 C 
BRANCH   2   3
HETATM    3  C   UNK N   1       8.316   3.088  -0.385  0.00  0.00     0.173 C 
BRANCH   3   4
HETATM    4  N   UNK N   1       9.203   4.212  -0.132  0.00  0.00    -0.418 N 
HETATM    5  H   UNK N   1      10.197   4.067   0.045  0.00  0.00     0.150 HD
HETATM    6  H   UNK N   1       8.826   5.159  -0.132  0.00  0.00     0.150 HD
ENDBRANCH   3   4
BRANCH   3   7
HETATM    7  C   UNK N   1       8.997   1.790  -0.036  0.00  0.00     0.163 C 
HETATM    8  O   UNK N   1       8.397   0.733  -0.157  0.00  0.00    -0.648 OA
BRANCH   7   9
HETATM    9  O   UNK N   1      10.280   1.779   0.375  0.00  0.00    -0.775 OA
HETATM   10  H   UNK N   1      10.720   1.003   0.661  0.00  0.00     0.167 HD
ENDBRANCH   7   9
ENDBRANCH   3   7
ENDBRANCH   2   3
ENDBRANCH   1   2
BRANCH   1  11
HETATM   11  C   UNK N   1       4.578   3.173  -0.066  0.00  0.00    -0.001 C 
BRANCH  11  12
HETATM   12  C   UNK N   1       3.505   2.460  -0.873  0.00  0.00     0.064 C 
BRANCH  12  13
HETATM   13  B   UNK N   1       2.498   1.643   0.070  0.00  0.00     0.604 B 
BRANCH  13  14
HETATM   14  O   UNK N   1       1.497   0.966  -0.766  0.00  0.00    -0.410 OA
HETATM   15  H   UNK N   1       0.779   1.315  -1.317  0.00  0.00     0.188 HD
ENDBRANCH  13  14
BRANCH  13  16
HETATM   16  O   UNK N   1       3.240   0.639   0.847  0.00  0.00    -0.410 OA
HETATM   17  H   UNK N   1       2.910  -0.116   1.360  0.00  0.00     0.188 HD
ENDBRANCH  13  16
BRANCH  13  18
HETATM   18  O   UNK N   1       1.816   2.568   0.987  0.00  0.00    -0.410 OA
HETATM   19  H   UNK N   1       2.119   3.263   1.592  0.00  0.00     0.188 HD
ENDBRANCH  13  18
ENDBRANCH  12  13
ENDBRANCH  11  12
ENDBRANCH   1  11
TORSDOF 11
