REMARK  1 active torsions:
REMARK  status: ('A' for Active; 'I' for Inactive)
REMARK    1  A    between atoms: O_1  and  C_2 
ROOT
HETATM    1  O   UNK N   1       0.608  -0.687   0.000  0.00  0.00    -0.783 OA
HETATM    2  H   UNK N   1       0.542   0.248   0.000  0.00  0.00     0.166 HD
ENDROOT
BRANCH   1   3
HETATM    3  C   UNK N   1       1.818  -1.276   0.000  0.00  0.00     0.274 C 
HETATM    4  O   UNK N   1       2.829  -0.594   0.000  0.00  0.00    -0.657 OA
ENDBRANCH   1   3
TORSDOF 1
