MODEL 1
REMARK VINA RESULT:      -7.2      0.000      0.000
REMARK  8 active torsions:
REMARK  status: ('A' for Active; 'I' for Inactive)
REMARK    1  A    between atoms: C_6  and  N_2 
REMARK       I    between atoms: C_11  and  N_16 
REMARK    2  A    between atoms: C_13  and  O_19 
REMARK    3  A    between atoms: C_17  and  C_20 
REMARK    4  A    between atoms: C_18  and  O_21 
REMARK    5  A    between atoms: C_20  and  O_22 
REMARK    6  A    between atoms: O_22  and  P_23 
REMARK    7  A    between atoms: P_23  and  O_24 
REMARK    8  A    between atoms: P_23  and  O_25 
ROOT
HETATM    1  C   UNK N   1      31.950  16.696   6.115  0.00  0.00     0.262 C 
HETATM    2  O   UNK N   1      31.735  16.433   7.486  0.00  0.00    -0.353 OA
HETATM    3  C   UNK N   1      32.992  17.791   6.023  0.00  0.00     0.198 C 
HETATM    4  C   UNK N   1      32.844  16.982   8.164  0.00  0.00     0.180 C 
HETATM    5  C   UNK N   1      33.878  17.345   7.125  0.00  0.00     0.182 C 
ENDROOT
BRANCH   1   6
HETATM    6  N   UNK N   1      30.684  17.002   5.434  0.00  0.00    -0.297 N 
HETATM    7  C   UNK N   1      29.554  17.539   5.919  0.00  0.00     0.159 A 
HETATM    8  C   UNK N   1      28.681  17.732   4.911  0.00  0.00     0.147 A 
HETATM    9  N   UNK N   1      29.270  17.878   7.200  0.00  0.00    -0.174 N 
HETATM   10  N   UNK N   1      29.223  17.322   3.751  0.00  0.00    -0.345 N 
HETATM   11  C   UNK N   1      27.443  18.300   5.161  0.00  0.00     0.290 A 
HETATM   12  C   UNK N   1      30.466  16.881   4.097  0.00  0.00     0.188 A 
ATOM     13  HN  UNK N   1      28.802  17.339   2.823  1.00  0.00     0.167 HD
HETATM   14  N   UNK N   1      27.142  18.643   6.461  0.00  0.00    -0.154 N 
HETATM   15  O   UNK N   1      26.645  18.501   4.264  0.00  0.00    -0.265 OA
HETATM   16  C   UNK N   1      28.049  18.430   7.471  0.00  0.00     0.680 A 
HETATM   17  H   UNK N   1      26.268  19.046   6.668  0.00  0.00     0.187 HD
HETATM   18  N   UNK N   1      27.720  18.783   8.795  0.00  0.00    -0.234 N 
HETATM   19  H   UNK N   1      28.325  18.544   9.533  0.00  0.00     0.174 HD
HETATM   20  H   UNK N   1      26.884  19.270   8.981  0.00  0.00     0.174 HD
ATOM     21  HN  UNK N   1      29.952  17.725   7.944  1.00  0.00     0.186 HD
ENDBRANCH   1   6
BRANCH   3  22
HETATM   22  O   UNK N   1      33.681  17.742   4.811  0.00  0.00    -0.388 OA
HETATM   23  H   UNK N   1      33.602  17.157   4.041  0.00  0.00     0.210 HD
ENDBRANCH   3  22
BRANCH   4  24
HETATM   24  C   UNK N   1      33.398  15.971   9.155  0.00  0.00     0.215 C 
BRANCH  24  25
HETATM   25  O   UNK N   1      34.788  15.891   9.037  0.00  0.00    -0.294 OA
BRANCH  25  26
HETATM   26  P   UNK N   1      35.384  15.869  10.670  0.00  0.00     0.390 P 
HETATM   27  O   UNK N   1      35.615  17.344  10.242  0.00  0.00    -0.632 OA
BRANCH  26  28
HETATM   28  O   UNK N   1      36.324  14.788   9.690  0.00  0.00    -0.307 OA
HETATM   29  H   UNK N   1      36.904  15.013   8.945  0.00  0.00     0.222 HD
ENDBRANCH  26  28
BRANCH  26  30
HETATM   30  O   UNK N   1      37.080  16.103  10.951  0.00  0.00    -0.307 OA
HETATM   31  H   UNK N   1      37.702  15.360  10.978  0.00  0.00     0.222 HD
ENDBRANCH  26  30
ENDBRANCH  25  26
ENDBRANCH  24  25
ENDBRANCH   4  24
BRANCH   5  32
HETATM   32  O   UNK N   1      34.712  18.377   7.556  0.00  0.00    -0.390 OA
HETATM   33  H   UNK N   1      35.634  18.393   7.858  0.00  0.00     0.210 HD
ENDBRANCH   5  32
TORSDOF 8
ENDMDL
MODEL 2
REMARK VINA RESULT:      -7.0      1.136      1.275
REMARK  8 active torsions:
REMARK  status: ('A' for Active; 'I' for Inactive)
REMARK    1  A    between atoms: C_6  and  N_2 
REMARK       I    between atoms: C_11  and  N_16 
REMARK    2  A    between atoms: C_13  and  O_19 
REMARK    3  A    between atoms: C_17  and  C_20 
REMARK    4  A    between atoms: C_18  and  O_21 
REMARK    5  A    between atoms: C_20  and  O_22 
REMARK    6  A    between atoms: O_22  and  P_23 
REMARK    7  A    between atoms: P_23  and  O_24 
REMARK    8  A    between atoms: P_23  and  O_25 
ROOT
HETATM    1  C   UNK N   1      32.364  16.597   6.745  0.00  0.00     0.262 C 
HETATM    2  O   UNK N   1      31.987  16.005   7.970  0.00  0.00    -0.353 OA
HETATM    3  C   UNK N   1      33.319  17.729   7.065  0.00  0.00     0.198 C 
HETATM    4  C   UNK N   1      32.946  16.427   8.915  0.00  0.00     0.180 C 
HETATM    5  C   UNK N   1      34.080  17.073   8.155  0.00  0.00     0.182 C 
ENDROOT
BRANCH   1   6
HETATM    6  N   UNK N   1      31.182  16.998   5.970  0.00  0.00    -0.297 N 
HETATM    7  C   UNK N   1      29.996  17.467   6.389  0.00  0.00     0.159 A 
HETATM    8  C   UNK N   1      29.244  17.802   5.323  0.00  0.00     0.147 A 
HETATM    9  N   UNK N   1      29.562  17.627   7.663  0.00  0.00    -0.174 N 
HETATM   10  N   UNK N   1      29.922  17.554   4.188  0.00  0.00    -0.345 N 
HETATM   11  C   UNK N   1      27.978  18.334   5.502  0.00  0.00     0.290 A 
HETATM   12  C   UNK N   1      31.122  17.065   4.613  0.00  0.00     0.188 A 
ATOM     13  HN  UNK N   1      29.611  17.701   3.229  1.00  0.00     0.167 HD
HETATM   14  N   UNK N   1      27.524  18.494   6.794  0.00  0.00    -0.154 N 
HETATM   15  O   UNK N   1      27.287  18.660   4.555  0.00  0.00    -0.265 OA
HETATM   16  C   UNK N   1      28.310  18.140   7.864  0.00  0.00     0.680 A 
HETATM   17  H   UNK N   1      26.626  18.867   6.951  0.00  0.00     0.187 HD
HETATM   18  N   UNK N   1      27.825  18.307   9.176  0.00  0.00    -0.234 N 
HETATM   19  H   UNK N   1      28.343  17.966   9.940  0.00  0.00     0.174 HD
HETATM   20  H   UNK N   1      26.968  18.766   9.329  0.00  0.00     0.174 HD
ATOM     21  HN  UNK N   1      30.154  17.370   8.453  1.00  0.00     0.186 HD
ENDBRANCH   1   6
BRANCH   3  22
HETATM   22  O   UNK N   1      34.167  18.001   5.991  0.00  0.00    -0.388 OA
HETATM   23  H   UNK N   1      34.848  18.679   5.855  0.00  0.00     0.210 HD
ENDBRANCH   3  22
BRANCH   4  24
HETATM   24  C   UNK N   1      33.439  15.235   9.721  0.00  0.00     0.215 C 
BRANCH  24  25
HETATM   25  O   UNK N   1      34.316  15.659  10.723  0.00  0.00    -0.294 OA
BRANCH  25  26
HETATM   26  P   UNK N   1      35.543  14.430  10.805  0.00  0.00     0.390 P 
HETATM   27  O   UNK N   1      34.803  14.264  12.161  0.00  0.00    -0.632 OA
BRANCH  26  28
HETATM   28  O   UNK N   1      36.288  15.994  10.696  0.00  0.00    -0.307 OA
HETATM   29  H   UNK N   1      36.241  16.720  11.337  0.00  0.00     0.222 HD
ENDBRANCH  26  28
BRANCH  26  30
HETATM   30  O   UNK N   1      36.816  14.587  11.974  0.00  0.00    -0.307 OA
HETATM   31  H   UNK N   1      37.372  13.835  12.229  0.00  0.00     0.222 HD
ENDBRANCH  26  30
ENDBRANCH  25  26
ENDBRANCH  24  25
ENDBRANCH   4  24
BRANCH   5  32
HETATM   32  O   UNK N   1      34.763  18.009   8.932  0.00  0.00    -0.390 OA
HETATM   33  H   UNK N   1      34.836  18.975   8.883  0.00  0.00     0.210 HD
ENDBRANCH   5  32
TORSDOF 8
ENDMDL
MODEL 3
REMARK VINA RESULT:      -6.8      6.312      9.263
REMARK  8 active torsions:
REMARK  status: ('A' for Active; 'I' for Inactive)
REMARK    1  A    between atoms: C_6  and  N_2 
REMARK       I    between atoms: C_11  and  N_16 
REMARK    2  A    between atoms: C_13  and  O_19 
REMARK    3  A    between atoms: C_17  and  C_20 
REMARK    4  A    between atoms: C_18  and  O_21 
REMARK    5  A    between atoms: C_20  and  O_22 
REMARK    6  A    between atoms: O_22  and  P_23 
REMARK    7  A    between atoms: P_23  and  O_24 
REMARK    8  A    between atoms: P_23  and  O_25 
ROOT
HETATM    1  C   UNK N   1      35.703  14.223  11.215  0.00  0.00     0.262 C 
HETATM    2  O   UNK N   1      34.461  14.298  10.547  0.00  0.00    -0.353 OA
HETATM    3  C   UNK N   1      36.709  13.655  10.236  0.00  0.00     0.198 C 
HETATM    4  C   UNK N   1      34.756  14.212   9.170  0.00  0.00     0.180 C 
HETATM    5  C   UNK N   1      36.251  14.362   9.016  0.00  0.00     0.182 C 
ENDROOT
BRANCH   1   6
HETATM    6  N   UNK N   1      35.580  13.466  12.468  0.00  0.00    -0.297 N 
HETATM    7  C   UNK N   1      35.979  13.785  13.709  0.00  0.00     0.159 A 
HETATM    8  C   UNK N   1      35.568  12.835  14.571  0.00  0.00     0.147 A 
HETATM    9  N   UNK N   1      36.671  14.879  14.111  0.00  0.00    -0.174 N 
HETATM   10  N   UNK N   1      34.895  11.876  13.909  0.00  0.00    -0.345 N 
HETATM   11  C   UNK N   1      35.842  12.953  15.924  0.00  0.00     0.290 A 
HETATM   12  C   UNK N   1      34.908  12.291  12.611  0.00  0.00     0.188 A 
ATOM     13  HN  UNK N   1      34.471  11.032  14.291  1.00  0.00     0.167 HD
HETATM   14  N   UNK N   1      36.551  14.059  16.342  0.00  0.00    -0.154 N 
HETATM   15  O   UNK N   1      35.465  12.117  16.723  0.00  0.00    -0.265 OA
HETATM   16  C   UNK N   1      36.963  15.011  15.441  0.00  0.00     0.680 A 
HETATM   17  H   UNK N   1      36.763  14.168  17.297  0.00  0.00     0.187 HD
HETATM   18  N   UNK N   1      37.690  16.131  15.888  0.00  0.00    -0.234 N 
HETATM   19  H   UNK N   1      38.071  16.764  15.237  0.00  0.00     0.174 HD
HETATM   20  H   UNK N   1      37.818  16.282  16.853  0.00  0.00     0.174 HD
ATOM     21  HN  UNK N   1      36.966  15.586  13.438  1.00  0.00     0.186 HD
ENDBRANCH   1   6
BRANCH   3  22
HETATM   22  O   UNK N   1      38.009  14.049  10.552  0.00  0.00    -0.388 OA
HETATM   23  H   UNK N   1      38.414  14.923  10.673  0.00  0.00     0.210 HD
ENDBRANCH   3  22
BRANCH   4  24
HETATM   24  C   UNK N   1      34.017  15.304   8.412  0.00  0.00     0.215 C 
BRANCH  24  25
HETATM   25  O   UNK N   1      34.905  16.317   8.038  0.00  0.00    -0.294 OA
BRANCH  25  26
HETATM   26  P   UNK N   1      34.028  17.800   8.270  0.00  0.00     0.390 P 
HETATM   27  O   UNK N   1      34.630  17.979   6.850  0.00  0.00    -0.632 OA
BRANCH  26  28
HETATM   28  O   UNK N   1      35.285  17.671   9.460  0.00  0.00    -0.307 OA
HETATM   29  H   UNK N   1      35.187  17.540  10.416  0.00  0.00     0.222 HD
ENDBRANCH  26  28
BRANCH  26  30
HETATM   30  O   UNK N   1      34.909  19.289   8.396  0.00  0.00    -0.307 OA
HETATM   31  H   UNK N   1      34.558  20.124   8.050  0.00  0.00     0.222 HD
ENDBRANCH  26  30
ENDBRANCH  25  26
ENDBRANCH  24  25
ENDBRANCH   4  24
BRANCH   5  32
HETATM   32  O   UNK N   1      36.722  13.738   7.860  0.00  0.00    -0.390 OA
HETATM   33  H   UNK N   1      36.272  13.309   7.115  0.00  0.00     0.210 HD
ENDBRANCH   5  32
TORSDOF 8
ENDMDL
MODEL 4
REMARK VINA RESULT:      -6.8      1.976      3.398
REMARK  8 active torsions:
REMARK  status: ('A' for Active; 'I' for Inactive)
REMARK    1  A    between atoms: C_6  and  N_2 
REMARK       I    between atoms: C_11  and  N_16 
REMARK    2  A    between atoms: C_13  and  O_19 
REMARK    3  A    between atoms: C_17  and  C_20 
REMARK    4  A    between atoms: C_18  and  O_21 
REMARK    5  A    between atoms: C_20  and  O_22 
REMARK    6  A    between atoms: O_22  and  P_23 
REMARK    7  A    between atoms: P_23  and  O_24 
REMARK    8  A    between atoms: P_23  and  O_25 
ROOT
HETATM    1  C   UNK N   1      32.992  16.466   8.147  0.00  0.00     0.262 C 
HETATM    2  O   UNK N   1      32.854  15.625   9.273  0.00  0.00    -0.353 OA
HETATM    3  C   UNK N   1      33.920  17.598   8.539  0.00  0.00     0.198 C 
HETATM    4  C   UNK N   1      33.928  15.946  10.129  0.00  0.00     0.180 C 
HETATM    5  C   UNK N   1      34.884  16.820   9.353  0.00  0.00     0.182 C 
ENDROOT
BRANCH   1   6
HETATM    6  N   UNK N   1      31.679  16.900   7.651  0.00  0.00    -0.297 N 
HETATM    7  C   UNK N   1      31.263  17.118   6.394  0.00  0.00     0.159 A 
HETATM    8  C   UNK N   1      29.947  17.407   6.401  0.00  0.00     0.147 A 
HETATM    9  N   UNK N   1      31.986  17.058   5.250  0.00  0.00    -0.174 N 
HETATM   10  N   UNK N   1      29.480  17.385   7.662  0.00  0.00    -0.345 N 
HETATM   11  C   UNK N   1      29.280  17.651   5.212  0.00  0.00     0.290 A 
HETATM   12  C   UNK N   1      30.567  17.062   8.418  0.00  0.00     0.188 A 
ATOM     13  HN  UNK N   1      28.529  17.568   7.981  1.00  0.00     0.167 HD
HETATM   14  N   UNK N   1      30.008  17.598   4.043  0.00  0.00    -0.154 N 
HETATM   15  O   UNK N   1      28.088  17.896   5.191  0.00  0.00    -0.265 OA
HETATM   16  C   UNK N   1      31.351  17.307   4.064  0.00  0.00     0.680 A 
HETATM   17  H   UNK N   1      29.561  17.770   3.183  0.00  0.00     0.187 HD
HETATM   18  N   UNK N   1      32.078  17.262   2.859  0.00  0.00    -0.234 N 
HETATM   19  H   UNK N   1      33.056  17.151   2.877  0.00  0.00     0.174 HD
HETATM   20  H   UNK N   1      31.608  17.343   1.997  0.00  0.00     0.174 HD
ATOM     21  HN  UNK N   1      32.981  16.833   5.273  1.00  0.00     0.186 HD
ENDBRANCH   1   6
BRANCH   3  22
HETATM   22  O   UNK N   1      34.565  18.139   7.427  0.00  0.00    -0.388 OA
HETATM   23  H   UNK N   1      34.601  19.040   7.069  0.00  0.00     0.210 HD
ENDBRANCH   3  22
BRANCH   4  24
HETATM   24  C   UNK N   1      34.614  14.672  10.600  0.00  0.00     0.215 C 
BRANCH  24  25
HETATM   25  O   UNK N   1      34.526  14.563  11.991  0.00  0.00    -0.294 OA
BRANCH  25  26
HETATM   26  P   UNK N   1      35.955  13.696  12.470  0.00  0.00     0.390 P 
HETATM   27  O   UNK N   1      35.015  13.506  13.692  0.00  0.00    -0.632 OA
BRANCH  26  28
HETATM   28  O   UNK N   1      36.338  15.374  12.242  0.00  0.00    -0.307 OA
HETATM   29  H   UNK N   1      36.390  16.069  12.916  0.00  0.00     0.222 HD
ENDBRANCH  26  28
BRANCH  26  30
HETATM   30  O   UNK N   1      36.900  14.297  13.796  0.00  0.00    -0.307 OA
HETATM   31  H   UNK N   1      37.862  14.184  13.831  0.00  0.00     0.222 HD
ENDBRANCH  26  30
ENDBRANCH  25  26
ENDBRANCH  24  25
ENDBRANCH   4  24
BRANCH   5  32
HETATM   32  O   UNK N   1      35.630  17.651  10.189  0.00  0.00    -0.390 OA
HETATM   33  H   UNK N   1      36.577  17.698  10.393  0.00  0.00     0.210 HD
ENDBRANCH   5  32
TORSDOF 8
ENDMDL
MODEL 5
REMARK VINA RESULT:      -6.6      5.046      7.991
REMARK  8 active torsions:
REMARK  status: ('A' for Active; 'I' for Inactive)
REMARK    1  A    between atoms: C_6  and  N_2 
REMARK       I    between atoms: C_11  and  N_16 
REMARK    2  A    between atoms: C_13  and  O_19 
REMARK    3  A    between atoms: C_17  and  C_20 
REMARK    4  A    between atoms: C_18  and  O_21 
REMARK    5  A    between atoms: C_20  and  O_22 
REMARK    6  A    between atoms: O_22  and  P_23 
REMARK    7  A    between atoms: P_23  and  O_24 
REMARK    8  A    between atoms: P_23  and  O_25 
ROOT
HETATM    1  C   UNK N   1      33.718  15.812   9.794  0.00  0.00     0.262 C 
HETATM    2  O   UNK N   1      32.673  15.730   8.848  0.00  0.00    -0.353 OA
HETATM    3  C   UNK N   1      34.794  16.700   9.203  0.00  0.00     0.198 C 
HETATM    4  C   UNK N   1      32.871  16.806   7.958  0.00  0.00     0.180 C 
HETATM    5  C   UNK N   1      33.918  17.710   8.563  0.00  0.00     0.182 C 
ENDROOT
BRANCH   1   6
HETATM    6  N   UNK N   1      34.180  14.473  10.184  0.00  0.00    -0.297 N 
HETATM    7  C   UNK N   1      34.924  14.091  11.234  0.00  0.00     0.159 A 
HETATM    8  C   UNK N   1      35.019  12.747  11.251  0.00  0.00     0.147 A 
HETATM    9  N   UNK N   1      35.503  14.871  12.178  0.00  0.00    -0.174 N 
HETATM   10  N   UNK N   1      34.342  12.227  10.211  0.00  0.00    -0.345 N 
HETATM   11  C   UNK N   1      35.723  12.110  12.259  0.00  0.00     0.290 A 
HETATM   12  C   UNK N   1      33.825  13.313   9.569  0.00  0.00     0.188 A 
ATOM     13  HN  UNK N   1      34.238  11.245   9.961  1.00  0.00     0.167 HD
HETATM   14  N   UNK N   1      36.321  12.896  13.221  0.00  0.00    -0.154 N 
HETATM   15  O   UNK N   1      35.807  10.898  12.306  0.00  0.00    -0.265 OA
HETATM   16  C   UNK N   1      36.213  14.265  13.177  0.00  0.00     0.680 A 
HETATM   17  H   UNK N   1      36.831  12.470  13.948  0.00  0.00     0.187 HD
HETATM   18  N   UNK N   1      36.836  15.049  14.168  0.00  0.00    -0.234 N 
HETATM   19  H   UNK N   1      36.843  16.030  14.087  0.00  0.00     0.174 HD
HETATM   20  H   UNK N   1      37.263  14.616  14.942  0.00  0.00     0.174 HD
ATOM     21  HN  UNK N   1      35.411  15.887  12.144  1.00  0.00     0.186 HD
ENDBRANCH   1   6
BRANCH   3  22
HETATM   22  O   UNK N   1      35.564  17.302  10.197  0.00  0.00    -0.388 OA
HETATM   23  H   UNK N   1      36.307  16.978  10.732  0.00  0.00     0.210 HD
ENDBRANCH   3  22
BRANCH   4  24
HETATM   24  C   UNK N   1      31.562  17.552   7.747  0.00  0.00     0.215 C 
BRANCH  24  25
HETATM   25  O   UNK N   1      31.132  18.122   8.948  0.00  0.00    -0.294 OA
BRANCH  25  26
HETATM   26  P   UNK N   1      29.510  17.538   9.174  0.00  0.00     0.390 P 
HETATM   27  O   UNK N   1      29.473  18.093   7.724  0.00  0.00    -0.632 OA
BRANCH  26  28
HETATM   28  O   UNK N   1      29.839  18.807  10.312  0.00  0.00    -0.307 OA
HETATM   29  H   UNK N   1      29.769  18.771  11.279  0.00  0.00     0.222 HD
ENDBRANCH  26  28
BRANCH  26  30
HETATM   30  O   UNK N   1      28.203  18.678   9.219  0.00  0.00    -0.307 OA
HETATM   31  H   UNK N   1      28.351  19.632   9.134  0.00  0.00     0.222 HD
ENDBRANCH  26  30
ENDBRANCH  25  26
ENDBRANCH  24  25
ENDBRANCH   4  24
BRANCH   5  32
HETATM   32  O   UNK N   1      34.606  18.437   7.591  0.00  0.00    -0.390 OA
HETATM   33  H   UNK N   1      34.772  18.280   6.648  0.00  0.00     0.210 HD
ENDBRANCH   5  32
TORSDOF 8
ENDMDL
MODEL 6
REMARK VINA RESULT:      -6.6      6.207      9.171
REMARK  8 active torsions:
REMARK  status: ('A' for Active; 'I' for Inactive)
REMARK    1  A    between atoms: C_6  and  N_2 
REMARK       I    between atoms: C_11  and  N_16 
REMARK    2  A    between atoms: C_13  and  O_19 
REMARK    3  A    between atoms: C_17  and  C_20 
REMARK    4  A    between atoms: C_18  and  O_21 
REMARK    5  A    between atoms: C_20  and  O_22 
REMARK    6  A    between atoms: O_22  and  P_23 
REMARK    7  A    between atoms: P_23  and  O_24 
REMARK    8  A    between atoms: P_23  and  O_25 
ROOT
HETATM    1  C   UNK N   1      35.827  14.782  11.621  0.00  0.00     0.262 C 
HETATM    2  O   UNK N   1      34.503  14.880  11.139  0.00  0.00    -0.353 OA
HETATM    3  C   UNK N   1      36.626  14.006  10.595  0.00  0.00     0.198 C 
HETATM    4  C   UNK N   1      34.571  14.590   9.760  0.00  0.00     0.180 C 
HETATM    5  C   UNK N   1      36.030  14.585   9.368  0.00  0.00     0.182 C 
ENDROOT
BRANCH   1   6
HETATM    6  N   UNK N   1      35.851  14.209  12.974  0.00  0.00    -0.297 N 
HETATM    7  C   UNK N   1      35.347  13.051  13.427  0.00  0.00     0.159 A 
HETATM    8  C   UNK N   1      35.694  12.885  14.718  0.00  0.00     0.147 A 
HETATM    9  N   UNK N   1      34.614  12.134  12.749  0.00  0.00    -0.174 N 
HETATM   10  N   UNK N   1      36.428  13.933  15.133  0.00  0.00    -0.345 N 
HETATM   11  C   UNK N   1      35.306  11.746  15.404  0.00  0.00     0.290 A 
HETATM   12  C   UNK N   1      36.519  14.736  14.036  0.00  0.00     0.188 A 
ATOM     13  HN  UNK N   1      36.826  14.091  16.058  1.00  0.00     0.167 HD
HETATM   14  N   UNK N   1      34.555  10.810  14.726  0.00  0.00    -0.154 N 
HETATM   15  O   UNK N   1      35.622  11.566  16.565  0.00  0.00    -0.265 OA
HETATM   16  C   UNK N   1      34.210  11.007  13.410  0.00  0.00     0.680 A 
HETATM   17  H   UNK N   1      34.263   9.992  15.189  0.00  0.00     0.187 HD
HETATM   18  N   UNK N   1      33.438  10.040  12.736  0.00  0.00    -0.234 N 
HETATM   19  H   UNK N   1      33.108  10.221  11.826  0.00  0.00     0.174 HD
HETATM   20  H   UNK N   1      33.229   9.184  13.174  0.00  0.00     0.174 HD
ATOM     21  HN  UNK N   1      34.369  12.282  11.770  1.00  0.00     0.186 HD
ENDBRANCH   1   6
BRANCH   3  22
HETATM   22  O   UNK N   1      37.983  14.321  10.658  0.00  0.00    -0.388 OA
HETATM   23  H   UNK N   1      38.524  14.735  11.349  0.00  0.00     0.210 HD
ENDBRANCH   3  22
BRANCH   4  24
HETATM   24  C   UNK N   1      33.798  15.635   8.971  0.00  0.00     0.215 C 
BRANCH  24  25
HETATM   25  O   UNK N   1      34.677  16.429   8.230  0.00  0.00    -0.294 OA
BRANCH  25  26
HETATM   26  P   UNK N   1      34.026  18.038   8.322  0.00  0.00     0.390 P 
HETATM   27  O   UNK N   1      34.663  18.009   6.906  0.00  0.00    -0.632 OA
BRANCH  26  28
HETATM   28  O   UNK N   1      35.237  17.826   9.547  0.00  0.00    -0.307 OA
HETATM   29  H   UNK N   1      35.955  17.174   9.567  0.00  0.00     0.222 HD
ENDBRANCH  26  28
BRANCH  26  30
HETATM   30  O   UNK N   1      35.117  19.388   8.348  0.00  0.00    -0.307 OA
HETATM   31  H   UNK N   1      35.706  19.556   9.100  0.00  0.00     0.222 HD
ENDBRANCH  26  30
ENDBRANCH  25  26
ENDBRANCH  24  25
ENDBRANCH   4  24
BRANCH   5  32
HETATM   32  O   UNK N   1      36.270  13.778   8.256  0.00  0.00    -0.390 OA
HETATM   33  H   UNK N   1      35.714  13.149   7.769  0.00  0.00     0.210 HD
ENDBRANCH   5  32
TORSDOF 8
ENDMDL
MODEL 7
REMARK VINA RESULT:      -6.5      9.715     11.081
REMARK  8 active torsions:
REMARK  status: ('A' for Active; 'I' for Inactive)
REMARK    1  A    between atoms: C_6  and  N_2 
REMARK       I    between atoms: C_11  and  N_16 
REMARK    2  A    between atoms: C_13  and  O_19 
REMARK    3  A    between atoms: C_17  and  C_20 
REMARK    4  A    between atoms: C_18  and  O_21 
REMARK    5  A    between atoms: C_20  and  O_22 
REMARK    6  A    between atoms: O_22  and  P_23 
REMARK    7  A    between atoms: P_23  and  O_24 
REMARK    8  A    between atoms: P_23  and  O_25 
ROOT
HETATM    1  C   UNK N   1      21.569  16.046   7.322  0.00  0.00     0.262 C 
HETATM    2  O   UNK N   1      21.954  14.725   7.003  0.00  0.00    -0.353 OA
HETATM    3  C   UNK N   1      20.356  15.958   8.226  0.00  0.00     0.198 C 
HETATM    4  C   UNK N   1      21.330  13.898   7.961  0.00  0.00     0.180 C 
HETATM    5  C   UNK N   1      20.775  14.794   9.043  0.00  0.00     0.182 C 
ENDROOT
BRANCH   1   6
HETATM    6  N   UNK N   1      21.364  16.842   6.104  0.00  0.00    -0.297 N 
HETATM    7  C   UNK N   1      20.789  16.502   4.940  0.00  0.00     0.159 A 
HETATM    8  C   UNK N   1      20.729  17.582   4.138  0.00  0.00     0.147 A 
HETATM    9  N   UNK N   1      20.304  15.293   4.568  0.00  0.00    -0.174 N 
HETATM   10  N   UNK N   1      21.267  18.647   4.761  0.00  0.00    -0.345 N 
HETATM   11  C   UNK N   1      20.153  17.487   2.882  0.00  0.00     0.290 A 
HETATM   12  C   UNK N   1      21.646  18.167   5.979  0.00  0.00     0.188 A 
ATOM     13  HN  UNK N   1      21.367  19.596   4.404  1.00  0.00     0.167 HD
HETATM   14  N   UNK N   1      19.662  16.260   2.490  0.00  0.00    -0.154 N 
HETATM   15  O   UNK N   1      20.072  18.452   2.146  0.00  0.00    -0.265 OA
HETATM   16  C   UNK N   1      19.741  15.172   3.327  0.00  0.00     0.680 A 
HETATM   17  H   UNK N   1      19.250  16.162   1.602  0.00  0.00     0.187 HD
HETATM   18  N   UNK N   1      19.238  13.926   2.906  0.00  0.00    -0.234 N 
HETATM   19  H   UNK N   1      19.379  13.125   3.460  0.00  0.00     0.174 HD
HETATM   20  H   UNK N   1      18.745  13.856   2.057  0.00  0.00     0.174 HD
ATOM     21  HN  UNK N   1      20.358  14.492   5.197  1.00  0.00     0.186 HD
ENDBRANCH   1   6
BRANCH   3  22
HETATM   22  O   UNK N   1      20.238  17.088   9.035  0.00  0.00    -0.388 OA
HETATM   23  H   UNK N   1      19.816  17.950   8.892  0.00  0.00     0.210 HD
ENDBRANCH   3  22
BRANCH   4  24
HETATM   24  C   UNK N   1      22.338  12.914   8.532  0.00  0.00     0.215 C 
BRANCH  24  25
HETATM   25  O   UNK N   1      22.851  13.393   9.740  0.00  0.00    -0.294 OA
BRANCH  25  26
HETATM   26  P   UNK N   1      23.820  12.096  10.371  0.00  0.00     0.390 P 
HETATM   27  O   UNK N   1      22.842  12.391  11.541  0.00  0.00    -0.632 OA
BRANCH  26  28
HETATM   28  O   UNK N   1      24.826  13.473  10.047  0.00  0.00    -0.307 OA
HETATM   29  H   UNK N   1      24.579  14.296   9.599  0.00  0.00     0.222 HD
ENDBRANCH  26  28
BRANCH  26  30
HETATM   30  O   UNK N   1      24.881  12.410  11.708  0.00  0.00    -0.307 OA
HETATM   31  H   UNK N   1      24.890  11.849  12.498  0.00  0.00     0.222 HD
ENDBRANCH  26  30
ENDBRANCH  25  26
ENDBRANCH  24  25
ENDBRANCH   4  24
BRANCH   5  32
HETATM   32  O   UNK N   1      19.687  14.214   9.695  0.00  0.00    -0.390 OA
HETATM   33  H   UNK N   1      19.017  14.570  10.299  0.00  0.00     0.210 HD
ENDBRANCH   5  32
TORSDOF 8
ENDMDL
MODEL 8
REMARK VINA RESULT:      -6.3      9.613     11.027
REMARK  8 active torsions:
REMARK  status: ('A' for Active; 'I' for Inactive)
REMARK    1  A    between atoms: C_6  and  N_2 
REMARK       I    between atoms: C_11  and  N_16 
REMARK    2  A    between atoms: C_13  and  O_19 
REMARK    3  A    between atoms: C_17  and  C_20 
REMARK    4  A    between atoms: C_18  and  O_21 
REMARK    5  A    between atoms: C_20  and  O_22 
REMARK    6  A    between atoms: O_22  and  P_23 
REMARK    7  A    between atoms: P_23  and  O_24 
REMARK    8  A    between atoms: P_23  and  O_25 
ROOT
HETATM    1  C   UNK N   1      21.724  15.850   5.444  0.00  0.00     0.262 C 
HETATM    2  O   UNK N   1      21.433  16.047   6.812  0.00  0.00    -0.353 OA
HETATM    3  C   UNK N   1      22.693  14.689   5.350  0.00  0.00     0.198 C 
HETATM    4  C   UNK N   1      21.822  14.859   7.465  0.00  0.00     0.180 C 
HETATM    5  C   UNK N   1      22.103  13.825   6.400  0.00  0.00     0.182 C 
ENDROOT
BRANCH   1   6
HETATM    6  N   UNK N   1      22.201  17.093   4.824  0.00  0.00    -0.297 N 
HETATM    7  C   UNK N   1      21.551  17.973   4.047  0.00  0.00     0.159 A 
HETATM    8  C   UNK N   1      22.354  19.023   3.788  0.00  0.00     0.147 A 
HETATM    9  N   UNK N   1      20.283  17.895   3.575  0.00  0.00    -0.174 N 
HETATM   10  N   UNK N   1      23.545  18.848   4.389  0.00  0.00    -0.345 N 
HETATM   11  C   UNK N   1      21.895  20.079   3.018  0.00  0.00     0.290 A 
HETATM   12  C   UNK N   1      23.425  17.651   5.030  0.00  0.00     0.188 A 
ATOM     13  HN  UNK N   1      24.352  19.469   4.369  1.00  0.00     0.167 HD
HETATM   14  N   UNK N   1      20.609  20.007   2.528  0.00  0.00    -0.154 N 
HETATM   15  O   UNK N   1      22.596  21.046   2.786  0.00  0.00    -0.265 OA
HETATM   16  C   UNK N   1      19.812  18.922   2.802  0.00  0.00     0.680 A 
HETATM   17  H   UNK N   1      20.257  20.742   1.975  0.00  0.00     0.187 HD
HETATM   18  N   UNK N   1      18.502  18.865   2.288  0.00  0.00    -0.234 N 
HETATM   19  H   UNK N   1      17.964  18.049   2.400  0.00  0.00     0.174 HD
HETATM   20  H   UNK N   1      18.125  19.643   1.816  0.00  0.00     0.174 HD
ATOM     21  HN  UNK N   1      19.694  17.091   3.790  1.00  0.00     0.186 HD
ENDBRANCH   1   6
BRANCH   3  22
HETATM   22  O   UNK N   1      22.611  14.053   4.111  0.00  0.00    -0.388 OA
HETATM   23  H   UNK N   1      21.910  13.527   3.695  0.00  0.00     0.210 HD
ENDBRANCH   3  22
BRANCH   4  24
HETATM   24  C   UNK N   1      20.715  14.394   8.398  0.00  0.00     0.215 C 
BRANCH  24  25
HETATM   25  O   UNK N   1      20.886  13.043   8.715  0.00  0.00    -0.294 OA
BRANCH  25  26
HETATM   26  P   UNK N   1      21.739  13.034  10.229  0.00  0.00     0.390 P 
HETATM   27  O   UNK N   1      22.283  11.761   9.524  0.00  0.00    -0.632 OA
BRANCH  26  28
HETATM   28  O   UNK N   1      20.033  12.897  10.518  0.00  0.00    -0.307 OA
HETATM   29  H   UNK N   1      19.383  13.613  10.589  0.00  0.00     0.222 HD
ENDBRANCH  26  28
BRANCH  26  30
HETATM   30  O   UNK N   1      21.409  11.773  11.375  0.00  0.00    -0.307 OA
HETATM   31  H   UNK N   1      20.676  11.833  12.006  0.00  0.00     0.222 HD
ENDBRANCH  26  30
ENDBRANCH  25  26
ENDBRANCH  24  25
ENDBRANCH   4  24
BRANCH   5  32
HETATM   32  O   UNK N   1      23.012  12.860   6.835  0.00  0.00    -0.390 OA
HETATM   33  H   UNK N   1      23.299  12.578   7.717  0.00  0.00     0.210 HD
ENDBRANCH   5  32
TORSDOF 8
ENDMDL
MODEL 9
REMARK VINA RESULT:      -6.3      3.628      8.265
REMARK  8 active torsions:
REMARK  status: ('A' for Active; 'I' for Inactive)
REMARK    1  A    between atoms: C_6  and  N_2 
REMARK       I    between atoms: C_11  and  N_16 
REMARK    2  A    between atoms: C_13  and  O_19 
REMARK    3  A    between atoms: C_17  and  C_20 
REMARK    4  A    between atoms: C_18  and  O_21 
REMARK    5  A    between atoms: C_20  and  O_22 
REMARK    6  A    between atoms: O_22  and  P_23 
REMARK    7  A    between atoms: P_23  and  O_24 
REMARK    8  A    between atoms: P_23  and  O_25 
ROOT
HETATM    1  C   UNK N   1      28.867  17.961   6.812  0.00  0.00     0.262 C 
HETATM    2  O   UNK N   1      28.912  18.384   5.465  0.00  0.00    -0.353 OA
HETATM    3  C   UNK N   1      28.191  19.058   7.608  0.00  0.00     0.198 C 
HETATM    4  C   UNK N   1      27.969  19.427   5.355  0.00  0.00     0.180 C 
HETATM    5  C   UNK N   1      27.148  19.434   6.623  0.00  0.00     0.182 C 
ENDROOT
BRANCH   1   6
HETATM    6  N   UNK N   1      30.206  17.596   7.293  0.00  0.00    -0.297 N 
HETATM    7  C   UNK N   1      31.333  17.357   6.604  0.00  0.00     0.159 A 
HETATM    8  C   UNK N   1      32.350  17.156   7.464  0.00  0.00     0.147 A 
HETATM    9  N   UNK N   1      31.502  17.325   5.260  0.00  0.00    -0.174 N 
HETATM   10  N   UNK N   1      31.907  17.258   8.730  0.00  0.00    -0.345 N 
HETATM   11  C   UNK N   1      33.628  16.911   6.988  0.00  0.00     0.290 A 
HETATM   12  C   UNK N   1      30.579  17.538   8.600  0.00  0.00     0.188 A 
ATOM     13  HN  UNK N   1      32.442  17.151   9.590  1.00  0.00     0.167 HD
HETATM   14  N   UNK N   1      33.809  16.871   5.622  0.00  0.00    -0.154 N 
HETATM   15  O   UNK N   1      34.566  16.745   7.745  0.00  0.00    -0.265 OA
HETATM   16  C   UNK N   1      32.752  17.073   4.767  0.00  0.00     0.680 A 
HETATM   17  H   UNK N   1      34.705  16.695   5.255  0.00  0.00     0.187 HD
HETATM   18  N   UNK N   1      32.958  17.023   3.374  0.00  0.00    -0.234 N 
HETATM   19  H   UNK N   1      32.190  17.071   2.761  0.00  0.00     0.174 HD
HETATM   20  H   UNK N   1      33.871  16.941   3.014  0.00  0.00     0.174 HD
ATOM     21  HN  UNK N   1      30.715  17.485   4.631  1.00  0.00     0.186 HD
ENDBRANCH   1   6
BRANCH   3  22
HETATM   22  O   UNK N   1      27.593  18.557   8.764  0.00  0.00    -0.388 OA
HETATM   23  H   UNK N   1      26.849  18.872   9.302  0.00  0.00     0.210 HD
ENDBRANCH   3  22
BRANCH   4  24
HETATM   24  C   UNK N   1      27.087  19.203   4.136  0.00  0.00     0.215 C 
BRANCH  24  25
HETATM   25  O   UNK N   1      26.495  20.405   3.741  0.00  0.00    -0.294 OA
BRANCH  25  26
HETATM   26  P   UNK N   1      24.967  19.954   3.047  0.00  0.00     0.390 P 
HETATM   27  O   UNK N   1      25.495  21.017   2.045  0.00  0.00    -0.632 OA
BRANCH  26  28
HETATM   28  O   UNK N   1      24.713  20.656   4.614  0.00  0.00    -0.307 OA
HETATM   29  H   UNK N   1      23.869  20.887   5.032  0.00  0.00     0.222 HD
ENDBRANCH  26  28
BRANCH  26  30
HETATM   30  O   UNK N   1      23.686  21.123   2.996  0.00  0.00    -0.307 OA
HETATM   31  H   UNK N   1      22.755  20.861   2.928  0.00  0.00     0.222 HD
ENDBRANCH  26  30
ENDBRANCH  25  26
ENDBRANCH  24  25
ENDBRANCH   4  24
BRANCH   5  32
HETATM   32  O   UNK N   1      26.621  20.696   6.898  0.00  0.00    -0.390 OA
HETATM   33  H   UNK N   1      25.733  20.996   7.146  0.00  0.00     0.210 HD
ENDBRANCH   5  32
TORSDOF 8
ENDMDL
