MODEL 1
REMARK VINA RESULT:      -3.0      0.000      0.000
REMARK  5 active torsions:
REMARK  status: ('A' for Active; 'I' for Inactive)
REMARK    1  A    between atoms: N_1  and  C_2 
REMARK    2  A    between atoms: C_2  and  C_3 
REMARK    3  A    between atoms: C_3  and  C_4 
REMARK    4  A    between atoms: C_4  and  C_5 
REMARK    5  A    between atoms: C_5  and  N_6 
ROOT
HETATM    1  C   UNK N   1      23.254  12.347  10.913  0.00  0.00     0.021 C 
ENDROOT
BRANCH   1   2
HETATM    2  C   UNK N   1      24.558  12.352  10.149  0.00  0.00     0.111 C 
BRANCH   2   3
HETATM    3  N   UNK N   1      25.513  13.197  10.837  0.00  0.00    -0.430 N 
HETATM    4  H   UNK N   1      26.025  13.914  10.322  0.00  0.00     0.149 HD
HETATM    5  H   UNK N   1      25.674  13.075  11.837  0.00  0.00     0.149 HD
ENDBRANCH   2   3
ENDBRANCH   1   2
BRANCH   1   6
HETATM    6  C   UNK N   1      22.209  13.089  10.115  0.00  0.00     0.021 C 
BRANCH   6   7
HETATM    7  C   UNK N   1      20.839  12.752  10.657  0.00  0.00     0.111 C 
BRANCH   7   8
HETATM    8  N   UNK N   1      20.978  11.836  11.771  0.00  0.00    -0.430 N 
HETATM    9  H   UNK N   1      21.311  12.176  12.673  0.00  0.00     0.149 HD
HETATM   10  H   UNK N   1      20.743  10.850  11.653  0.00  0.00     0.149 HD
ENDBRANCH   7   8
ENDBRANCH   6   7
ENDBRANCH   1   6
TORSDOF 5
ENDMDL
MODEL 2
REMARK VINA RESULT:      -2.9      1.384      3.525
REMARK  5 active torsions:
REMARK  status: ('A' for Active; 'I' for Inactive)
REMARK    1  A    between atoms: N_1  and  C_2 
REMARK    2  A    between atoms: C_2  and  C_3 
REMARK    3  A    between atoms: C_3  and  C_4 
REMARK    4  A    between atoms: C_4  and  C_5 
REMARK    5  A    between atoms: C_5  and  N_6 
ROOT
HETATM    1  C   UNK N   1      21.592  12.270  10.903  0.00  0.00     0.021 C 
ENDROOT
BRANCH   1   2
HETATM    2  C   UNK N   1      21.646  13.472   9.989  0.00  0.00     0.111 C 
BRANCH   2   3
HETATM    3  N   UNK N   1      20.315  14.032   9.855  0.00  0.00    -0.430 N 
HETATM    4  H   UNK N   1      19.516  13.417   9.699  0.00  0.00     0.149 HD
HETATM    5  H   UNK N   1      20.178  15.040   9.917  0.00  0.00     0.149 HD
ENDBRANCH   2   3
ENDBRANCH   1   2
BRANCH   1   6
HETATM    6  C   UNK N   1      22.962  12.038  11.498  0.00  0.00     0.021 C 
BRANCH   6   7
HETATM    7  C   UNK N   1      24.004  12.183  10.413  0.00  0.00     0.111 C 
BRANCH   7   8
HETATM    8  N   UNK N   1      25.202  12.771  10.976  0.00  0.00    -0.430 N 
HETATM    9  H   UNK N   1      25.215  13.068  11.951  0.00  0.00     0.149 HD
HETATM   10  H   UNK N   1      26.033  12.889  10.396  0.00  0.00     0.149 HD
ENDBRANCH   7   8
ENDBRANCH   6   7
ENDBRANCH   1   6
TORSDOF 5
ENDMDL
MODEL 3
REMARK VINA RESULT:      -2.9     23.452     24.069
REMARK  5 active torsions:
REMARK  status: ('A' for Active; 'I' for Inactive)
REMARK    1  A    between atoms: N_1  and  C_2 
REMARK    2  A    between atoms: C_2  and  C_3 
REMARK    3  A    between atoms: C_3  and  C_4 
REMARK    4  A    between atoms: C_4  and  C_5 
REMARK    5  A    between atoms: C_5  and  N_6 
ROOT
HETATM    1  C   UNK N   1      43.437  21.447   3.808  0.00  0.00     0.021 C 
ENDROOT
BRANCH   1   2
HETATM    2  C   UNK N   1      44.920  21.164   3.743  0.00  0.00     0.111 C 
BRANCH   2   3
HETATM    3  N   UNK N   1      45.651  22.339   4.175  0.00  0.00    -0.430 N 
HETATM    4  H   UNK N   1      46.399  22.718   3.594  0.00  0.00     0.149 HD
HETATM    5  H   UNK N   1      45.417  22.787   5.061  0.00  0.00     0.149 HD
ENDBRANCH   2   3
ENDBRANCH   1   2
BRANCH   1   6
HETATM    6  C   UNK N   1      43.165  22.808   3.211  0.00  0.00     0.021 C 
BRANCH   6   7
HETATM    7  C   UNK N   1      42.047  22.691   2.200  0.00  0.00     0.111 C 
BRANCH   7   8
HETATM    8  N   UNK N   1      41.515  24.009   1.921  0.00  0.00    -0.430 N 
HETATM    9  H   UNK N   1      40.880  24.454   2.584  0.00  0.00     0.149 HD
HETATM   10  H   UNK N   1      41.776  24.493   1.062  0.00  0.00     0.149 HD
ENDBRANCH   7   8
ENDBRANCH   6   7
ENDBRANCH   1   6
TORSDOF 5
ENDMDL
MODEL 4
REMARK VINA RESULT:      -2.9     23.537     24.309
REMARK  5 active torsions:
REMARK  status: ('A' for Active; 'I' for Inactive)
REMARK    1  A    between atoms: N_1  and  C_2 
REMARK    2  A    between atoms: C_2  and  C_3 
REMARK    3  A    between atoms: C_3  and  C_4 
REMARK    4  A    between atoms: C_4  and  C_5 
REMARK    5  A    between atoms: C_5  and  N_6 
ROOT
HETATM    1  C   UNK N   1      43.219  22.957   3.237  0.00  0.00     0.021 C 
ENDROOT
BRANCH   1   2
HETATM    2  C   UNK N   1      42.169  22.776   2.165  0.00  0.00     0.111 C 
BRANCH   2   3
HETATM    3  N   UNK N   1      41.486  24.036   1.946  0.00  0.00    -0.430 N 
HETATM    4  H   UNK N   1      40.555  24.186   2.336  0.00  0.00     0.149 HD
HETATM    5  H   UNK N   1      41.937  24.772   1.403  0.00  0.00     0.149 HD
ENDBRANCH   2   3
ENDBRANCH   1   2
BRANCH   1   6
HETATM    6  C   UNK N   1      43.437  21.640   3.945  0.00  0.00     0.021 C 
BRANCH   6   7
HETATM    7  C   UNK N   1      44.897  21.262   3.850  0.00  0.00     0.111 C 
BRANCH   7   8
HETATM    8  N   UNK N   1      45.711  22.424   4.145  0.00  0.00    -0.430 N 
HETATM    9  H   UNK N   1      45.811  23.166   3.452  0.00  0.00     0.149 HD
HETATM   10  H   UNK N   1      46.185  22.500   5.045  0.00  0.00     0.149 HD
ENDBRANCH   7   8
ENDBRANCH   6   7
ENDBRANCH   1   6
TORSDOF 5
ENDMDL
MODEL 5
REMARK VINA RESULT:      -2.8     10.924     11.354
REMARK  5 active torsions:
REMARK  status: ('A' for Active; 'I' for Inactive)
REMARK    1  A    between atoms: N_1  and  C_2 
REMARK    2  A    between atoms: C_2  and  C_3 
REMARK    3  A    between atoms: C_3  and  C_4 
REMARK    4  A    between atoms: C_4  and  C_5 
REMARK    5  A    between atoms: C_5  and  N_6 
ROOT
HETATM    1  C   UNK N   1      20.740  20.564   2.745  0.00  0.00     0.021 C 
ENDROOT
BRANCH   1   2
HETATM    2  C   UNK N   1      21.063  20.310   1.290  0.00  0.00     0.111 C 
BRANCH   2   3
HETATM    3  N   UNK N   1      20.307  21.230   0.464  0.00  0.00    -0.430 N 
HETATM    4  H   UNK N   1      20.380  21.182  -0.552  0.00  0.00     0.149 HD
HETATM    5  H   UNK N   1      19.701  21.925   0.899  0.00  0.00     0.149 HD
ENDBRANCH   2   3
ENDBRANCH   1   2
BRANCH   1   6
HETATM    6  C   UNK N   1      20.611  19.241   3.462  0.00  0.00     0.021 C 
BRANCH   6   7
HETATM    7  C   UNK N   1      19.573  18.396   2.761  0.00  0.00     0.111 C 
BRANCH   7   8
HETATM    8  N   UNK N   1      19.335  17.193   3.533  0.00  0.00    -0.430 N 
HETATM    9  H   UNK N   1      18.394  16.974   3.860  0.00  0.00     0.149 HD
HETATM   10  H   UNK N   1      20.109  16.565   3.749  0.00  0.00     0.149 HD
ENDBRANCH   7   8
ENDBRANCH   6   7
ENDBRANCH   1   6
TORSDOF 5
ENDMDL
MODEL 6
REMARK VINA RESULT:      -2.8     11.330     11.893
REMARK  5 active torsions:
REMARK  status: ('A' for Active; 'I' for Inactive)
REMARK    1  A    between atoms: N_1  and  C_2 
REMARK    2  A    between atoms: C_2  and  C_3 
REMARK    3  A    between atoms: C_3  and  C_4 
REMARK    4  A    between atoms: C_4  and  C_5 
REMARK    5  A    between atoms: C_5  and  N_6 
ROOT
HETATM    1  C   UNK N   1      20.761  18.280   2.459  0.00  0.00     0.021 C 
ENDROOT
BRANCH   1   2
HETATM    2  C   UNK N   1      19.996  17.235   1.681  0.00  0.00     0.111 C 
BRANCH   2   3
HETATM    3  N   UNK N   1      19.996  17.588   0.275  0.00  0.00    -0.430 N 
HETATM    4  H   UNK N   1      19.539  18.446  -0.036  0.00  0.00     0.149 HD
HETATM    5  H   UNK N   1      20.453  16.979  -0.403  0.00  0.00     0.149 HD
ENDBRANCH   2   3
ENDBRANCH   1   2
BRANCH   1   6
HETATM    6  C   UNK N   1      19.998  19.584   2.420  0.00  0.00     0.021 C 
BRANCH   6   7
HETATM    7  C   UNK N   1      20.885  20.660   1.839  0.00  0.00     0.111 C 
BRANCH   7   8
HETATM    8  N   UNK N   1      20.362  21.065   0.549  0.00  0.00    -0.430 N 
HETATM    9  H   UNK N   1      20.008  22.012   0.417  0.00  0.00     0.149 HD
HETATM   10  H   UNK N   1      20.349  20.403  -0.226  0.00  0.00     0.149 HD
ENDBRANCH   7   8
ENDBRANCH   6   7
ENDBRANCH   1   6
TORSDOF 5
ENDMDL
MODEL 7
REMARK VINA RESULT:      -2.7      8.108     10.005
REMARK  5 active torsions:
REMARK  status: ('A' for Active; 'I' for Inactive)
REMARK    1  A    between atoms: N_1  and  C_2 
REMARK    2  A    between atoms: C_2  and  C_3 
REMARK    3  A    between atoms: C_3  and  C_4 
REMARK    4  A    between atoms: C_4  and  C_5 
REMARK    5  A    between atoms: C_5  and  N_6 
ROOT
HETATM    1  C   UNK N   1      29.937  18.374   9.338  0.00  0.00     0.021 C 
ENDROOT
BRANCH   1   2
HETATM    2  C   UNK N   1      28.534  17.832   9.492  0.00  0.00     0.111 C 
BRANCH   2   3
HETATM    3  N   UNK N   1      27.598  18.736   8.853  0.00  0.00    -0.430 N 
HETATM    4  H   UNK N   1      26.679  18.399   8.566  0.00  0.00     0.149 HD
HETATM    5  H   UNK N   1      27.859  19.709   8.692  0.00  0.00     0.149 HD
ENDBRANCH   2   3
ENDBRANCH   1   2
BRANCH   1   6
HETATM    6  C   UNK N   1      30.718  17.469   8.414  0.00  0.00     0.021 C 
BRANCH   6   7
HETATM    7  C   UNK N   1      32.160  17.923   8.380  0.00  0.00     0.111 C 
BRANCH   7   8
HETATM    8  N   UNK N   1      32.968  17.007   9.160  0.00  0.00    -0.430 N 
HETATM    9  H   UNK N   1      33.192  17.225  10.131  0.00  0.00     0.149 HD
HETATM   10  H   UNK N   1      33.312  16.145   8.738  0.00  0.00     0.149 HD
ENDBRANCH   7   8
ENDBRANCH   6   7
ENDBRANCH   1   6
TORSDOF 5
ENDMDL
MODEL 8
REMARK VINA RESULT:      -2.7     13.970     14.576
REMARK  5 active torsions:
REMARK  status: ('A' for Active; 'I' for Inactive)
REMARK    1  A    between atoms: N_1  and  C_2 
REMARK    2  A    between atoms: C_2  and  C_3 
REMARK    3  A    between atoms: C_3  and  C_4 
REMARK    4  A    between atoms: C_4  and  C_5 
REMARK    5  A    between atoms: C_5  and  N_6 
ROOT
HETATM    1  C   UNK N   1      34.838  13.189  16.642  0.00  0.00     0.021 C 
ENDROOT
BRANCH   1   2
HETATM    2  C   UNK N   1      35.144  13.287  18.119  0.00  0.00     0.111 C 
BRANCH   2   3
HETATM    3  N   UNK N   1      35.442  14.665  18.456  0.00  0.00    -0.430 N 
HETATM    4  H   UNK N   1      34.784  15.405  18.209  0.00  0.00     0.149 HD
HETATM    5  H   UNK N   1      36.310  14.895  18.939  0.00  0.00     0.149 HD
ENDBRANCH   2   3
ENDBRANCH   1   2
BRANCH   1   6
HETATM    6  C   UNK N   1      36.007  12.544  15.936  0.00  0.00     0.021 C 
BRANCH   6   7
HETATM    7  C   UNK N   1      36.466  13.445  14.813  0.00  0.00     0.111 C 
BRANCH   7   8
HETATM    8  N   UNK N   1      37.260  14.526  15.361  0.00  0.00    -0.430 N 
HETATM    9  H   UNK N   1      37.978  14.329  16.058  0.00  0.00     0.149 HD
HETATM   10  H   UNK N   1      37.101  15.484  15.050  0.00  0.00     0.149 HD
ENDBRANCH   7   8
ENDBRANCH   6   7
ENDBRANCH   1   6
TORSDOF 5
ENDMDL
MODEL 9
REMARK VINA RESULT:      -2.7      9.684     10.222
REMARK  5 active torsions:
REMARK  status: ('A' for Active; 'I' for Inactive)
REMARK    1  A    between atoms: N_1  and  C_2 
REMARK    2  A    between atoms: C_2  and  C_3 
REMARK    3  A    between atoms: C_3  and  C_4 
REMARK    4  A    between atoms: C_4  and  C_5 
REMARK    5  A    between atoms: C_5  and  N_6 
ROOT
HETATM    1  C   UNK N   1      27.639  19.642   6.227  0.00  0.00     0.021 C 
ENDROOT
BRANCH   1   2
HETATM    2  C   UNK N   1      27.218  19.074   4.891  0.00  0.00     0.111 C 
BRANCH   2   3
HETATM    3  N   UNK N   1      27.991  19.703   3.838  0.00  0.00    -0.430 N 
HETATM    4  H   UNK N   1      27.562  19.888   2.931  0.00  0.00     0.149 HD
HETATM    5  H   UNK N   1      28.964  19.961   4.005  0.00  0.00     0.149 HD
ENDBRANCH   2   3
ENDBRANCH   1   2
BRANCH   1   6
HETATM    6  C   UNK N   1      27.590  21.151   6.160  0.00  0.00     0.021 C 
BRANCH   6   7
HETATM    7  C   UNK N   1      26.292  21.632   6.767  0.00  0.00     0.111 C 
BRANCH   7   8
HETATM    8  N   UNK N   1      26.028  20.889   7.983  0.00  0.00    -0.430 N 
HETATM    9  H   UNK N   1      26.757  20.792   8.689  0.00  0.00     0.149 HD
HETATM   10  H   UNK N   1      25.113  20.463   8.132  0.00  0.00     0.149 HD
ENDBRANCH   7   8
ENDBRANCH   6   7
ENDBRANCH   1   6
TORSDOF 5
ENDMDL
