MODEL 1
REMARK VINA RESULT:      -6.9      0.000      0.000
REMARK  9 active torsions:
REMARK  status: ('A' for Active; 'I' for Inactive)
REMARK    1  A    between atoms: C_3  and  C_1 
REMARK    2  A    between atoms: O_19  and  C_1 
REMARK    3  A    between atoms: C_5  and  O_20 
REMARK    4  A    between atoms: C_6  and  O_26 
REMARK    5  A    between atoms: O_21  and  C_8 
REMARK    6  A    between atoms: C_9  and  N_18 
REMARK       I    between atoms: N_11  and  C_10 
REMARK    7  A    between atoms: P_27  and  O_22 
REMARK    8  A    between atoms: P_27  and  O_23 
REMARK    9  A    between atoms: P_27  and  O_26 
ROOT
HETATM    1  C   UNK N   1      29.542  17.500   8.449  0.00  0.00     0.179 C 
HETATM    2  C   UNK N   1      29.727  16.822   7.089  0.00  0.00     0.183 C 
HETATM    3  C   UNK N   1      31.238  16.823   7.050  0.00  0.00     0.214 C 
HETATM    4  C   UNK N   1      31.487  16.314   8.466  0.00  0.00     0.263 C 
HETATM    5  O   UNK N   1      30.562  16.995   9.302  0.00  0.00    -0.353 OA
ENDROOT
BRANCH   4   6
HETATM    6  N   UNK N   1      32.871  16.528   8.900  0.00  0.00    -0.297 N 
HETATM    7  C   UNK N   1      33.598  17.676   8.824  0.00  0.00     0.188 A 
HETATM    8  N   UNK N   1      34.842  17.514   9.360  0.00  0.00    -0.346 N 
HETATM    9  C   UNK N   1      34.860  16.233   9.778  0.00  0.00     0.130 A 
ATOM     10  HN  UNK N   1      35.588  18.205   9.428  1.00  0.00     0.167 HD
HETATM   11  C   UNK N   1      33.682  15.647   9.500  0.00  0.00     0.157 A 
HETATM   12  C   UNK N   1      35.859  15.518  10.420  0.00  0.00     0.186 A 
HETATM   13  N   UNK N   1      33.414  14.360   9.832  0.00  0.00    -0.174 N 
HETATM   14  C   UNK N   1      34.391  13.638  10.459  0.00  0.00     0.679 A 
HETATM   15  H   UNK N   1      32.540  13.956   9.627  0.00  0.00     0.186 HD
HETATM   16  N   UNK N   1      34.174  12.419  10.778  0.00  0.00    -0.234 N 
HETATM   17  N   UNK N   1      35.603  14.216  10.751  0.00  0.00    -0.168 N 
HETATM   18  H   UNK N   1      33.321  11.982  10.553  0.00  0.00     0.174 HD
ATOM     19  HN  UNK N   1      34.895  11.892  11.272  1.00  0.00     0.174 HD
ATOM     20  HN  UNK N   1      36.322  13.666  11.220  1.00  0.00     0.186 HD
BRANCH  12  21
HETATM   21  O   UNK N   1      37.041  16.081  10.719  0.00  0.00    -0.344 OA
HETATM   22  H   UNK N   1      37.545  16.524  10.066  0.00  0.00     0.219 HD
ENDBRANCH  12  21
ENDBRANCH   4   6
BRANCH   3  23
HETATM   23  O   UNK N   1      31.995  16.140   6.059  0.00  0.00    -0.284 OA
BRANCH  23  24
HETATM   24  P   UNK N   1      32.784  17.056   4.783  0.00  0.00     0.391 P 
HETATM   25  O   UNK N   1      33.881  18.021   5.301  0.00  0.00    -0.632 OA
BRANCH  24  26
HETATM   26  O   UNK N   1      33.475  16.019   3.575  0.00  0.00    -0.307 OA
HETATM   27  H   UNK N   1      34.308  15.537   3.458  0.00  0.00     0.222 HD
ENDBRANCH  24  26
BRANCH  24  28
HETATM   28  O   UNK N   1      31.603  18.080   4.030  0.00  0.00    -0.307 OA
HETATM   29  H   UNK N   1      30.663  18.109   4.269  0.00  0.00     0.222 HD
ENDBRANCH  24  28
ENDBRANCH  23  24
ENDBRANCH   3  23
BRANCH   2  30
HETATM   30  O   UNK N   1      29.142  17.531   6.039  0.00  0.00    -0.390 OA
HETATM   31  H   UNK N   1      29.408  18.142   5.335  0.00  0.00     0.210 HD
ENDBRANCH   2  30
BRANCH   1  32
HETATM   32  C   UNK N   1      28.168  17.231   9.054  0.00  0.00     0.198 C 
BRANCH  32  33
HETATM   33  O   UNK N   1      27.473  18.424   9.260  0.00  0.00    -0.398 OA
HETATM   34  H   UNK N   1      26.519  18.565   9.152  0.00  0.00     0.209 HD
ENDBRANCH  32  33
ENDBRANCH   1  32
TORSDOF 9
ENDMDL
MODEL 2
REMARK VINA RESULT:      -6.5      3.108      4.636
REMARK  9 active torsions:
REMARK  status: ('A' for Active; 'I' for Inactive)
REMARK    1  A    between atoms: C_3  and  C_1 
REMARK    2  A    between atoms: O_19  and  C_1 
REMARK    3  A    between atoms: C_5  and  O_20 
REMARK    4  A    between atoms: C_6  and  O_26 
REMARK    5  A    between atoms: O_21  and  C_8 
REMARK    6  A    between atoms: C_9  and  N_18 
REMARK       I    between atoms: N_11  and  C_10 
REMARK    7  A    between atoms: P_27  and  O_22 
REMARK    8  A    between atoms: P_27  and  O_23 
REMARK    9  A    between atoms: P_27  and  O_26 
ROOT
HETATM    1  C   UNK N   1      32.904  14.903   4.645  0.00  0.00     0.179 C 
HETATM    2  C   UNK N   1      33.860  16.086   4.810  0.00  0.00     0.183 C 
HETATM    3  C   UNK N   1      33.958  16.078   6.319  0.00  0.00     0.214 C 
HETATM    4  C   UNK N   1      34.174  14.580   6.508  0.00  0.00     0.263 C 
HETATM    5  O   UNK N   1      33.280  13.933   5.614  0.00  0.00    -0.353 OA
ENDROOT
BRANCH   4   6
HETATM    6  N   UNK N   1      33.957  14.157   7.895  0.00  0.00    -0.297 N 
HETATM    7  C   UNK N   1      32.811  13.673   8.447  0.00  0.00     0.188 A 
HETATM    8  N   UNK N   1      32.990  13.346   9.759  0.00  0.00    -0.346 N 
HETATM    9  C   UNK N   1      34.284  13.634  10.001  0.00  0.00     0.130 A 
ATOM     10  HN  UNK N   1      32.301  12.970  10.409  1.00  0.00     0.167 HD
HETATM   11  C   UNK N   1      34.857  14.119   8.886  0.00  0.00     0.157 A 
HETATM   12  C   UNK N   1      35.030  13.485  11.159  0.00  0.00     0.186 A 
HETATM   13  N   UNK N   1      36.166  14.473   8.836  0.00  0.00    -0.174 N 
HETATM   14  C   UNK N   1      36.914  14.339   9.973  0.00  0.00     0.679 A 
HETATM   15  H   UNK N   1      36.566  14.817   8.005  0.00  0.00     0.186 HD
HETATM   16  N   UNK N   1      38.149  14.672   9.962  0.00  0.00    -0.234 N 
HETATM   17  N   UNK N   1      36.348  13.848  11.124  0.00  0.00    -0.168 N 
HETATM   18  H   UNK N   1      38.563  15.050   9.153  0.00  0.00     0.174 HD
ATOM     19  HN  UNK N   1      38.712  14.544  10.803  1.00  0.00     0.174 HD
ATOM     20  HN  UNK N   1      36.919  13.752  11.963  1.00  0.00     0.186 HD
BRANCH  12  21
HETATM   21  O   UNK N   1      34.485  12.993  12.284  0.00  0.00    -0.344 OA
HETATM   22  H   UNK N   1      33.606  13.204  12.528  0.00  0.00     0.219 HD
ENDBRANCH  12  21
ENDBRANCH   4   6
BRANCH   3  23
HETATM   23  O   UNK N   1      34.876  16.882   7.047  0.00  0.00    -0.284 OA
BRANCH  23  24
HETATM   24  P   UNK N   1      34.281  17.964   8.298  0.00  0.00     0.391 P 
HETATM   25  O   UNK N   1      35.083  19.286   8.407  0.00  0.00    -0.632 OA
BRANCH  24  26
HETATM   26  O   UNK N   1      32.602  18.345   8.079  0.00  0.00    -0.307 OA
HETATM   27  H   UNK N   1      31.754  17.915   8.270  0.00  0.00     0.222 HD
ENDBRANCH  24  26
BRANCH  24  28
HETATM   28  O   UNK N   1      34.480  17.189   9.838  0.00  0.00    -0.307 OA
HETATM   29  H   UNK N   1      35.166  16.533  10.041  0.00  0.00     0.222 HD
ENDBRANCH  24  28
ENDBRANCH  23  24
ENDBRANCH   3  23
BRANCH   2  30
HETATM   30  O   UNK N   1      33.352  17.279   4.291  0.00  0.00    -0.390 OA
HETATM   31  H   UNK N   1      33.637  18.196   4.158  0.00  0.00     0.210 HD
ENDBRANCH   2  30
BRANCH   1  32
HETATM   32  C   UNK N   1      32.959  14.298   3.245  0.00  0.00     0.198 C 
BRANCH  32  33
HETATM   33  O   UNK N   1      33.578  15.171   2.349  0.00  0.00    -0.398 OA
HETATM   34  H   UNK N   1      34.062  15.982   2.571  0.00  0.00     0.209 HD
ENDBRANCH  32  33
ENDBRANCH   1  32
TORSDOF 9
ENDMDL
MODEL 3
REMARK VINA RESULT:      -6.4      9.085     11.909
REMARK  9 active torsions:
REMARK  status: ('A' for Active; 'I' for Inactive)
REMARK    1  A    between atoms: C_3  and  C_1 
REMARK    2  A    between atoms: O_19  and  C_1 
REMARK    3  A    between atoms: C_5  and  O_20 
REMARK    4  A    between atoms: C_6  and  O_26 
REMARK    5  A    between atoms: O_21  and  C_8 
REMARK    6  A    between atoms: C_9  and  N_18 
REMARK       I    between atoms: N_11  and  C_10 
REMARK    7  A    between atoms: P_27  and  O_22 
REMARK    8  A    between atoms: P_27  and  O_23 
REMARK    9  A    between atoms: P_27  and  O_26 
ROOT
HETATM    1  C   UNK N   1      20.939  19.437   2.026  0.00  0.00     0.179 C 
HETATM    2  C   UNK N   1      19.812  18.934   2.931  0.00  0.00     0.183 C 
HETATM    3  C   UNK N   1      20.631  18.014   3.808  0.00  0.00     0.214 C 
HETATM    4  C   UNK N   1      21.791  18.965   4.086  0.00  0.00     0.263 C 
HETATM    5  O   UNK N   1      22.084  19.606   2.852  0.00  0.00    -0.353 OA
ENDROOT
BRANCH   4   6
HETATM    6  N   UNK N   1      22.962  18.270   4.629  0.00  0.00    -0.297 N 
HETATM    7  C   UNK N   1      22.982  17.139   5.383  0.00  0.00     0.188 A 
HETATM    8  N   UNK N   1      24.258  16.759   5.678  0.00  0.00    -0.346 N 
HETATM    9  C   UNK N   1      25.029  17.684   5.075  0.00  0.00     0.130 A 
ATOM     10  HN  UNK N   1      24.560  15.956   6.230  1.00  0.00     0.167 HD
HETATM   11  C   UNK N   1      24.252  18.586   4.451  0.00  0.00     0.157 A 
HETATM   12  C   UNK N   1      26.409  17.795   5.016  0.00  0.00     0.186 A 
HETATM   13  N   UNK N   1      24.765  19.622   3.741  0.00  0.00    -0.174 N 
HETATM   14  C   UNK N   1      26.125  19.749   3.679  0.00  0.00     0.679 A 
HETATM   15  H   UNK N   1      24.176  20.264   3.284  0.00  0.00     0.186 HD
HETATM   16  N   UNK N   1      26.642  20.720   3.026  0.00  0.00    -0.234 N 
HETATM   17  N   UNK N   1      26.939  18.841   4.311  0.00  0.00    -0.168 N 
HETATM   18  H   UNK N   1      26.074  21.394   2.589  0.00  0.00     0.174 HD
ATOM     19  HN  UNK N   1      27.657  20.796   2.957  1.00  0.00     0.174 HD
ATOM     20  HN  UNK N   1      27.951  18.948   4.255  1.00  0.00     0.186 HD
BRANCH  12  21
HETATM   21  O   UNK N   1      27.210  16.902   5.622  0.00  0.00    -0.344 OA
HETATM   22  H   UNK N   1      26.863  16.119   5.999  0.00  0.00     0.219 HD
ENDBRANCH  12  21
ENDBRANCH   4   6
BRANCH   3  23
HETATM   23  O   UNK N   1      20.119  17.386   4.975  0.00  0.00    -0.284 OA
BRANCH  23  24
HETATM   24  P   UNK N   1      19.332  15.819   4.844  0.00  0.00     0.391 P 
HETATM   25  O   UNK N   1      17.940  15.767   5.524  0.00  0.00    -0.632 OA
BRANCH  24  26
HETATM   26  O   UNK N   1      19.167  15.314   3.192  0.00  0.00    -0.307 OA
HETATM   27  H   UNK N   1      18.609  14.691   2.701  0.00  0.00     0.222 HD
ENDBRANCH  24  26
BRANCH  24  28
HETATM   28  O   UNK N   1      20.292  14.648   5.693  0.00  0.00    -0.307 OA
HETATM   29  H   UNK N   1      19.938  13.863   6.139  0.00  0.00     0.222 HD
ENDBRANCH  24  28
ENDBRANCH  23  24
ENDBRANCH   3  23
BRANCH   2  30
HETATM   30  O   UNK N   1      18.797  18.279   2.231  0.00  0.00    -0.390 OA
HETATM   31  H   UNK N   1      18.457  18.220   1.325  0.00  0.00     0.210 HD
ENDBRANCH   2  30
BRANCH   1  32
HETATM   32  C   UNK N   1      20.590  20.751   1.334  0.00  0.00     0.198 C 
BRANCH  32  33
HETATM   33  O   UNK N   1      20.604  20.602  -0.054  0.00  0.00    -0.398 OA
HETATM   34  H   UNK N   1      20.946  21.237  -0.702  0.00  0.00     0.209 HD
ENDBRANCH  32  33
ENDBRANCH   1  32
TORSDOF 9
ENDMDL
MODEL 4
REMARK VINA RESULT:      -6.3      4.337      7.275
REMARK  9 active torsions:
REMARK  status: ('A' for Active; 'I' for Inactive)
REMARK    1  A    between atoms: C_3  and  C_1 
REMARK    2  A    between atoms: O_19  and  C_1 
REMARK    3  A    between atoms: C_5  and  O_20 
REMARK    4  A    between atoms: C_6  and  O_26 
REMARK    5  A    between atoms: O_21  and  C_8 
REMARK    6  A    between atoms: C_9  and  N_18 
REMARK       I    between atoms: N_11  and  C_10 
REMARK    7  A    between atoms: P_27  and  O_22 
REMARK    8  A    between atoms: P_27  and  O_23 
REMARK    9  A    between atoms: P_27  and  O_26 
ROOT
HETATM    1  C   UNK N   1      34.850  11.760  10.202  0.00  0.00     0.179 C 
HETATM    2  C   UNK N   1      34.777  11.812  11.729  0.00  0.00     0.183 C 
HETATM    3  C   UNK N   1      35.137  13.269  11.915  0.00  0.00     0.214 C 
HETATM    4  C   UNK N   1      34.218  13.852  10.847  0.00  0.00     0.263 C 
HETATM    5  O   UNK N   1      34.316  12.987   9.723  0.00  0.00    -0.353 OA
ENDROOT
BRANCH   4   6
HETATM    6  N   UNK N   1      34.569  15.233  10.503  0.00  0.00    -0.297 N 
HETATM    7  C   UNK N   1      35.368  16.085  11.199  0.00  0.00     0.188 A 
HETATM    8  N   UNK N   1      35.499  17.281  10.557  0.00  0.00    -0.346 N 
HETATM    9  C   UNK N   1      34.764  17.141   9.437  0.00  0.00     0.130 A 
ATOM     10  HN  UNK N   1      36.033  18.097  10.857  1.00  0.00     0.167 HD
HETATM   11  C   UNK N   1      34.209  15.917   9.409  0.00  0.00     0.157 A 
HETATM   12  C   UNK N   1      34.546  18.028   8.395  0.00  0.00     0.186 A 
HETATM   13  N   UNK N   1      33.431  15.494   8.381  0.00  0.00    -0.174 N 
HETATM   14  C   UNK N   1      33.201  16.360   7.348  0.00  0.00     0.679 A 
HETATM   15  H   UNK N   1      33.043  14.589   8.378  0.00  0.00     0.186 HD
HETATM   16  N   UNK N   1      32.465  15.996   6.367  0.00  0.00    -0.234 N 
HETATM   17  N   UNK N   1      33.756  17.616   7.357  0.00  0.00    -0.168 N 
HETATM   18  H   UNK N   1      32.039  15.109   6.358  0.00  0.00     0.174 HD
ATOM     19  HN  UNK N   1      32.319  16.634   5.584  1.00  0.00     0.174 HD
ATOM     20  HN  UNK N   1      33.577  18.250   6.579  1.00  0.00     0.186 HD
BRANCH  12  21
HETATM   21  O   UNK N   1      35.097  19.253   8.391  0.00  0.00    -0.344 OA
HETATM   22  H   UNK N   1      35.951  19.400   8.746  0.00  0.00     0.219 HD
ENDBRANCH  12  21
ENDBRANCH   4   6
BRANCH   3  23
HETATM   23  O   UNK N   1      35.056  13.941  13.164  0.00  0.00    -0.284 OA
BRANCH  23  24
HETATM   24  P   UNK N   1      36.343  13.742  14.344  0.00  0.00     0.391 P 
HETATM   25  O   UNK N   1      35.836  13.329  15.749  0.00  0.00    -0.632 OA
BRANCH  24  26
HETATM   26  O   UNK N   1      37.531  12.591  13.818  0.00  0.00    -0.307 OA
HETATM   27  H   UNK N   1      38.390  12.625  13.370  0.00  0.00     0.222 HD
ENDBRANCH  24  26
BRANCH  24  28
HETATM   28  O   UNK N   1      37.118  15.277  14.578  0.00  0.00    -0.307 OA
HETATM   29  H   UNK N   1      38.059  15.395  14.783  0.00  0.00     0.222 HD
ENDBRANCH  24  28
ENDBRANCH  23  24
ENDBRANCH   3  23
BRANCH   2  30
HETATM   30  O   UNK N   1      35.667  10.935  12.351  0.00  0.00    -0.390 OA
HETATM   31  H   UNK N   1      35.759   9.984  12.515  0.00  0.00     0.210 HD
ENDBRANCH   2  30
BRANCH   1  32
HETATM   32  C   UNK N   1      34.073  10.584   9.619  0.00  0.00     0.198 C 
BRANCH  32  33
HETATM   33  O   UNK N   1      32.842  10.435  10.259  0.00  0.00    -0.398 OA
HETATM   34  H   UNK N   1      32.474   9.616  10.626  0.00  0.00     0.209 HD
ENDBRANCH  32  33
ENDBRANCH   1  32
TORSDOF 9
ENDMDL
MODEL 5
REMARK VINA RESULT:      -6.3      3.286      6.261
REMARK  9 active torsions:
REMARK  status: ('A' for Active; 'I' for Inactive)
REMARK    1  A    between atoms: C_3  and  C_1 
REMARK    2  A    between atoms: O_19  and  C_1 
REMARK    3  A    between atoms: C_5  and  O_20 
REMARK    4  A    between atoms: C_6  and  O_26 
REMARK    5  A    between atoms: O_21  and  C_8 
REMARK    6  A    between atoms: C_9  and  N_18 
REMARK       I    between atoms: N_11  and  C_10 
REMARK    7  A    between atoms: P_27  and  O_22 
REMARK    8  A    between atoms: P_27  and  O_23 
REMARK    9  A    between atoms: P_27  and  O_26 
ROOT
HETATM    1  C   UNK N   1      36.586  13.900  10.134  0.00  0.00     0.179 C 
HETATM    2  C   UNK N   1      36.120  15.253  10.676  0.00  0.00     0.183 C 
HETATM    3  C   UNK N   1      35.178  15.624   9.553  0.00  0.00     0.214 C 
HETATM    4  C   UNK N   1      34.452  14.288   9.435  0.00  0.00     0.263 C 
HETATM    5  O   UNK N   1      35.451  13.282   9.540  0.00  0.00    -0.353 OA
ENDROOT
BRANCH   4   6
HETATM    6  N   UNK N   1      33.695  14.174   8.184  0.00  0.00    -0.297 N 
HETATM    7  C   UNK N   1      32.345  14.205   8.025  0.00  0.00     0.188 A 
HETATM    8  N   UNK N   1      31.996  14.108   6.710  0.00  0.00    -0.346 N 
HETATM    9  C   UNK N   1      33.173  14.024   6.059  0.00  0.00     0.130 A 
ATOM     10  HN  UNK N   1      31.058  14.099   6.310  1.00  0.00     0.167 HD
HETATM   11  C   UNK N   1      34.185  14.063   6.943  0.00  0.00     0.157 A 
HETATM   12  C   UNK N   1      33.437  13.929   4.702  0.00  0.00     0.186 A 
HETATM   13  N   UNK N   1      35.486  14.019   6.561  0.00  0.00    -0.174 N 
HETATM   14  C   UNK N   1      35.764  13.917   5.226  0.00  0.00     0.679 A 
HETATM   15  H   UNK N   1      36.210  14.058   7.227  0.00  0.00     0.186 HD
HETATM   16  N   UNK N   1      36.980  13.864   4.834  0.00  0.00    -0.234 N 
HETATM   17  N   UNK N   1      34.745  13.874   4.306  0.00  0.00    -0.168 N 
HETATM   18  H   UNK N   1      37.720  13.868   5.482  0.00  0.00     0.174 HD
ATOM     19  HN  UNK N   1      37.184  13.817   3.835  1.00  0.00     0.174 HD
ATOM     20  HN  UNK N   1      34.967  13.799   3.314  1.00  0.00     0.186 HD
BRANCH  12  21
HETATM   21  O   UNK N   1      32.446  13.899   3.796  0.00  0.00    -0.344 OA
HETATM   22  H   UNK N   1      31.744  13.283   3.867  0.00  0.00     0.219 HD
ENDBRANCH  12  21
ENDBRANCH   4   6
BRANCH   3  23
HETATM   23  O   UNK N   1      34.304  16.743   9.603  0.00  0.00    -0.284 OA
BRANCH  23  24
HETATM   24  P   UNK N   1      34.216  17.840   8.232  0.00  0.00     0.391 P 
HETATM   25  O   UNK N   1      34.713  17.212   6.905  0.00  0.00    -0.632 OA
BRANCH  24  26
HETATM   26  O   UNK N   1      32.609  18.451   7.995  0.00  0.00    -0.307 OA
HETATM   27  H   UNK N   1      32.075  19.179   8.350  0.00  0.00     0.222 HD
ENDBRANCH  24  26
BRANCH  24  28
HETATM   28  O   UNK N   1      35.283  19.176   8.525  0.00  0.00    -0.307 OA
HETATM   29  H   UNK N   1      35.158  19.840   9.222  0.00  0.00     0.222 HD
ENDBRANCH  24  28
ENDBRANCH  23  24
ENDBRANCH   3  23
BRANCH   2  30
HETATM   30  O   UNK N   1      37.164  16.163  10.851  0.00  0.00    -0.390 OA
HETATM   31  H   UNK N   1      37.301  17.122  10.860  0.00  0.00     0.210 HD
ENDBRANCH   2  30
BRANCH   1  32
HETATM   32  C   UNK N   1      37.164  13.001  11.224  0.00  0.00     0.198 C 
BRANCH  32  33
HETATM   33  O   UNK N   1      37.245  13.682  12.439  0.00  0.00    -0.398 OA
HETATM   34  H   UNK N   1      36.983  13.347  13.311  0.00  0.00     0.209 HD
ENDBRANCH  32  33
ENDBRANCH   1  32
TORSDOF 9
ENDMDL
MODEL 6
REMARK VINA RESULT:      -6.3      4.040      6.931
REMARK  9 active torsions:
REMARK  status: ('A' for Active; 'I' for Inactive)
REMARK    1  A    between atoms: C_3  and  C_1 
REMARK    2  A    between atoms: O_19  and  C_1 
REMARK    3  A    between atoms: C_5  and  O_20 
REMARK    4  A    between atoms: C_6  and  O_26 
REMARK    5  A    between atoms: O_21  and  C_8 
REMARK    6  A    between atoms: C_9  and  N_18 
REMARK       I    between atoms: N_11  and  C_10 
REMARK    7  A    between atoms: P_27  and  O_22 
REMARK    8  A    between atoms: P_27  and  O_23 
REMARK    9  A    between atoms: P_27  and  O_26 
ROOT
HETATM    1  C   UNK N   1      30.612  15.603   4.937  0.00  0.00     0.179 C 
HETATM    2  C   UNK N   1      31.807  15.693   5.888  0.00  0.00     0.183 C 
HETATM    3  C   UNK N   1      31.316  16.837   6.747  0.00  0.00     0.214 C 
HETATM    4  C   UNK N   1      29.892  16.336   6.970  0.00  0.00     0.263 C 
HETATM    5  O   UNK N   1      29.447  15.833   5.718  0.00  0.00    -0.353 OA
ENDROOT
BRANCH   4   6
HETATM    6  N   UNK N   1      29.006  17.387   7.480  0.00  0.00    -0.297 N 
HETATM    7  C   UNK N   1      28.649  17.619   8.772  0.00  0.00     0.188 A 
HETATM    8  N   UNK N   1      27.837  18.710   8.876  0.00  0.00    -0.346 N 
HETATM    9  C   UNK N   1      27.709  19.152   7.610  0.00  0.00     0.130 A 
ATOM     10  HN  UNK N   1      27.420  19.101   9.721  1.00  0.00     0.167 HD
HETATM   11  C   UNK N   1      28.407  18.359   6.779  0.00  0.00     0.157 A 
HETATM   12  C   UNK N   1      27.015  20.243   7.112  0.00  0.00     0.186 A 
HETATM   13  N   UNK N   1      28.474  18.584   5.443  0.00  0.00    -0.174 N 
HETATM   14  C   UNK N   1      27.789  19.653   4.935  0.00  0.00     0.679 A 
HETATM   15  H   UNK N   1      29.000  17.995   4.856  0.00  0.00     0.186 HD
HETATM   16  N   UNK N   1      27.823  19.888   3.678  0.00  0.00    -0.234 N 
HETATM   17  N   UNK N   1      27.067  20.475   5.765  0.00  0.00    -0.168 N 
HETATM   18  H   UNK N   1      28.314  19.294   3.066  0.00  0.00     0.174 HD
ATOM     19  HN  UNK N   1      27.335  20.703   3.305  1.00  0.00     0.174 HD
ATOM     20  HN  UNK N   1      26.562  21.268   5.372  1.00  0.00     0.186 HD
BRANCH  12  21
HETATM   21  O   UNK N   1      26.318  21.058   7.920  0.00  0.00    -0.344 OA
HETATM   22  H   UNK N   1      26.752  21.640   8.512  0.00  0.00     0.219 HD
ENDBRANCH  12  21
ENDBRANCH   4   6
BRANCH   3  23
HETATM   23  O   UNK N   1      31.965  17.254   7.939  0.00  0.00    -0.284 OA
BRANCH  23  24
HETATM   24  P   UNK N   1      33.706  17.064   8.093  0.00  0.00     0.391 P 
HETATM   25  O   UNK N   1      34.182  15.594   7.976  0.00  0.00    -0.632 OA
BRANCH  24  26
HETATM   26  O   UNK N   1      34.567  18.024   6.931  0.00  0.00    -0.307 OA
HETATM   27  H   UNK N   1      35.034  18.874   6.931  0.00  0.00     0.222 HD
ENDBRANCH  24  26
BRANCH  24  28
HETATM   28  O   UNK N   1      34.176  17.564   9.687  0.00  0.00    -0.307 OA
HETATM   29  H   UNK N   1      33.631  17.458  10.482  0.00  0.00     0.222 HD
ENDBRANCH  24  28
ENDBRANCH  23  24
ENDBRANCH   3  23
BRANCH   2  30
HETATM   30  O   UNK N   1      33.010  15.965   5.234  0.00  0.00    -0.390 OA
HETATM   31  H   UNK N   1      33.315  16.382   4.413  0.00  0.00     0.210 HD
ENDBRANCH   2  30
BRANCH   1  32
HETATM   32  C   UNK N   1      30.520  14.248   4.240  0.00  0.00     0.198 C 
BRANCH  32  33
HETATM   33  O   UNK N   1      30.588  13.207   5.167  0.00  0.00    -0.398 OA
HETATM   34  H   UNK N   1      31.314  13.025   5.783  0.00  0.00     0.209 HD
ENDBRANCH  32  33
ENDBRANCH   1  32
TORSDOF 9
ENDMDL
MODEL 7
REMARK VINA RESULT:      -6.2      2.142      3.961
REMARK  9 active torsions:
REMARK  status: ('A' for Active; 'I' for Inactive)
REMARK    1  A    between atoms: C_3  and  C_1 
REMARK    2  A    between atoms: O_19  and  C_1 
REMARK    3  A    between atoms: C_5  and  O_20 
REMARK    4  A    between atoms: C_6  and  O_26 
REMARK    5  A    between atoms: O_21  and  C_8 
REMARK    6  A    between atoms: C_9  and  N_18 
REMARK       I    between atoms: N_11  and  C_10 
REMARK    7  A    between atoms: P_27  and  O_22 
REMARK    8  A    between atoms: P_27  and  O_23 
REMARK    9  A    between atoms: P_27  and  O_26 
ROOT
HETATM    1  C   UNK N   1      30.349  15.149   5.426  0.00  0.00     0.179 C 
HETATM    2  C   UNK N   1      29.452  16.351   5.733  0.00  0.00     0.183 C 
HETATM    3  C   UNK N   1      30.096  16.777   7.032  0.00  0.00     0.214 C 
HETATM    4  C   UNK N   1      31.551  16.702   6.582  0.00  0.00     0.263 C 
HETATM    5  O   UNK N   1      31.668  15.513   5.812  0.00  0.00    -0.353 OA
ENDROOT
BRANCH   4   6
HETATM    6  N   UNK N   1      32.485  16.712   7.712  0.00  0.00    -0.297 N 
HETATM    7  C   UNK N   1      33.110  17.788   8.263  0.00  0.00     0.188 A 
HETATM    8  N   UNK N   1      33.881  17.423   9.328  0.00  0.00    -0.346 N 
HETATM    9  C   UNK N   1      33.707  16.091   9.425  0.00  0.00     0.130 A 
ATOM     10  HN  UNK N   1      34.458  18.023   9.916  1.00  0.00     0.167 HD
HETATM   11  C   UNK N   1      32.874  15.670   8.457  0.00  0.00     0.157 A 
HETATM   12  C   UNK N   1      34.229  15.187  10.336  0.00  0.00     0.186 A 
HETATM   13  N   UNK N   1      32.504  14.371   8.330  0.00  0.00    -0.174 N 
HETATM   14  C   UNK N   1      33.016  13.465   9.217  0.00  0.00     0.679 A 
HETATM   15  H   UNK N   1      31.885  14.088   7.619  0.00  0.00     0.186 HD
HETATM   16  N   UNK N   1      32.695  12.231   9.119  0.00  0.00    -0.234 N 
HETATM   17  N   UNK N   1      33.871  13.872  10.212  0.00  0.00    -0.168 N 
HETATM   18  H   UNK N   1      32.104  11.918   8.397  0.00  0.00     0.174 HD
ATOM     19  HN  UNK N   1      33.055  11.562   9.800  1.00  0.00     0.174 HD
ATOM     20  HN  UNK N   1      34.244  13.186  10.866  1.00  0.00     0.186 HD
BRANCH  12  21
HETATM   21  O   UNK N   1      35.055  15.581  11.319  0.00  0.00    -0.344 OA
HETATM   22  H   UNK N   1      35.465  16.422  11.298  0.00  0.00     0.219 HD
ENDBRANCH  12  21
ENDBRANCH   4   6
BRANCH   3  23
HETATM   23  O   UNK N   1      29.771  17.985   7.706  0.00  0.00    -0.284 OA
BRANCH  23  24
HETATM   24  P   UNK N   1      29.235  17.930   9.380  0.00  0.00     0.391 P 
HETATM   25  O   UNK N   1      29.736  19.125  10.230  0.00  0.00    -0.632 OA
BRANCH  24  26
HETATM   26  O   UNK N   1      27.506  17.842   9.503  0.00  0.00    -0.307 OA
HETATM   27  H   UNK N   1      26.865  17.480  10.134  0.00  0.00     0.222 HD
ENDBRANCH  24  26
BRANCH  24  28
HETATM   28  O   UNK N   1      29.920  16.524  10.132  0.00  0.00    -0.307 OA
HETATM   29  H   UNK N   1      29.406  15.780  10.483  0.00  0.00     0.222 HD
ENDBRANCH  24  28
ENDBRANCH  23  24
ENDBRANCH   3  23
BRANCH   2  30
HETATM   30  O   UNK N   1      28.104  16.009   5.865  0.00  0.00    -0.390 OA
HETATM   31  H   UNK N   1      27.491  15.328   5.550  0.00  0.00     0.210 HD
ENDBRANCH   2  30
BRANCH   1  32
HETATM   32  C   UNK N   1      30.320  14.759   3.951  0.00  0.00     0.198 C 
BRANCH  32  33
HETATM   33  O   UNK N   1      30.608  13.403   3.789  0.00  0.00    -0.398 OA
HETATM   34  H   UNK N   1      31.385  13.024   3.351  0.00  0.00     0.209 HD
ENDBRANCH  32  33
ENDBRANCH   1  32
TORSDOF 9
ENDMDL
MODEL 8
REMARK VINA RESULT:      -6.2      3.292      4.617
REMARK  9 active torsions:
REMARK  status: ('A' for Active; 'I' for Inactive)
REMARK    1  A    between atoms: C_3  and  C_1 
REMARK    2  A    between atoms: O_19  and  C_1 
REMARK    3  A    between atoms: C_5  and  O_20 
REMARK    4  A    between atoms: C_6  and  O_26 
REMARK    5  A    between atoms: O_21  and  C_8 
REMARK    6  A    between atoms: C_9  and  N_18 
REMARK       I    between atoms: N_11  and  C_10 
REMARK    7  A    between atoms: P_27  and  O_22 
REMARK    8  A    between atoms: P_27  and  O_23 
REMARK    9  A    between atoms: P_27  and  O_26 
ROOT
HETATM    1  C   UNK N   1      33.439  13.252   8.166  0.00  0.00     0.179 C 
HETATM    2  C   UNK N   1      33.830  14.605   7.567  0.00  0.00     0.183 C 
HETATM    3  C   UNK N   1      34.337  15.264   8.830  0.00  0.00     0.214 C 
HETATM    4  C   UNK N   1      35.192  14.110   9.342  0.00  0.00     0.263 C 
HETATM    5  O   UNK N   1      34.433  12.927   9.130  0.00  0.00    -0.353 OA
ENDROOT
BRANCH   4   6
HETATM    6  N   UNK N   1      35.562  14.273  10.751  0.00  0.00    -0.297 N 
HETATM    7  C   UNK N   1      36.228  15.314  11.320  0.00  0.00     0.188 A 
HETATM    8  N   UNK N   1      36.363  15.142  12.667  0.00  0.00    -0.346 N 
HETATM    9  C   UNK N   1      35.752  13.967  12.915  0.00  0.00     0.130 A 
ATOM     10  HN  UNK N   1      36.823  15.761  13.333  1.00  0.00     0.167 HD
HETATM   11  C   UNK N   1      35.277  13.451  11.769  0.00  0.00     0.157 A 
HETATM   12  C   UNK N   1      35.561  13.297  14.113  0.00  0.00     0.186 A 
HETATM   13  N   UNK N   1      34.594  12.279  11.727  0.00  0.00    -0.174 N 
HETATM   14  C   UNK N   1      34.403  11.602  12.899  0.00  0.00     0.679 A 
HETATM   15  H   UNK N   1      34.247  11.926  10.876  0.00  0.00     0.186 HD
HETATM   16  N   UNK N   1      33.772  10.490  12.893  0.00  0.00    -0.234 N 
HETATM   17  N   UNK N   1      34.883  12.110  14.082  0.00  0.00    -0.168 N 
HETATM   18  H   UNK N   1      33.444  10.099  12.051  0.00  0.00     0.174 HD
ATOM     19  HN  UNK N   1      33.605  10.001  13.773  1.00  0.00     0.174 HD
ATOM     20  HN  UNK N   1      34.731  11.594  14.948  1.00  0.00     0.186 HD
BRANCH  12  21
HETATM   21  O   UNK N   1      36.016  13.795  15.275  0.00  0.00    -0.344 OA
HETATM   22  H   UNK N   1      35.851  14.684  15.518  0.00  0.00     0.219 HD
ENDBRANCH  12  21
ENDBRANCH   4   6
BRANCH   3  23
HETATM   23  O   UNK N   1      35.006  16.517   8.843  0.00  0.00    -0.284 OA
BRANCH  23  24
HETATM   24  P   UNK N   1      34.289  17.894   8.019  0.00  0.00     0.391 P 
HETATM   25  O   UNK N   1      34.913  19.253   8.426  0.00  0.00    -0.632 OA
BRANCH  24  26
HETATM   26  O   UNK N   1      34.377  17.733   6.293  0.00  0.00    -0.307 OA
HETATM   27  H   UNK N   1      33.880  18.068   5.530  0.00  0.00     0.222 HD
ENDBRANCH  24  26
BRANCH  24  28
HETATM   28  O   UNK N   1      32.621  18.008   8.484  0.00  0.00    -0.307 OA
HETATM   29  H   UNK N   1      32.277  18.611   9.162  0.00  0.00     0.222 HD
ENDBRANCH  24  28
ENDBRANCH  23  24
ENDBRANCH   3  23
BRANCH   2  30
HETATM   30  O   UNK N   1      32.755  15.276   6.981  0.00  0.00    -0.390 OA
HETATM   31  H   UNK N   1      31.945  15.068   6.491  0.00  0.00     0.210 HD
ENDBRANCH   2  30
BRANCH   1  32
HETATM   32  C   UNK N   1      33.346  12.151   7.114  0.00  0.00     0.198 C 
BRANCH  32  33
HETATM   33  O   UNK N   1      32.297  12.397   6.227  0.00  0.00    -0.398 OA
HETATM   34  H   UNK N   1      31.703  11.739   5.835  0.00  0.00     0.209 HD
ENDBRANCH  32  33
ENDBRANCH   1  32
TORSDOF 9
ENDMDL
MODEL 9
REMARK VINA RESULT:      -6.1      3.586      5.354
REMARK  9 active torsions:
REMARK  status: ('A' for Active; 'I' for Inactive)
REMARK    1  A    between atoms: C_3  and  C_1 
REMARK    2  A    between atoms: O_19  and  C_1 
REMARK    3  A    between atoms: C_5  and  O_20 
REMARK    4  A    between atoms: C_6  and  O_26 
REMARK    5  A    between atoms: O_21  and  C_8 
REMARK    6  A    between atoms: C_9  and  N_18 
REMARK       I    between atoms: N_11  and  C_10 
REMARK    7  A    between atoms: P_27  and  O_22 
REMARK    8  A    between atoms: P_27  and  O_23 
REMARK    9  A    between atoms: P_27  and  O_26 
ROOT
HETATM    1  C   UNK N   1      29.297  17.343   7.946  0.00  0.00     0.179 C 
HETATM    2  C   UNK N   1      30.445  17.327   8.958  0.00  0.00     0.183 C 
HETATM    3  C   UNK N   1      31.488  16.657   8.092  0.00  0.00     0.214 C 
HETATM    4  C   UNK N   1      31.277  17.485   6.828  0.00  0.00     0.263 C 
HETATM    5  O   UNK N   1      29.871  17.630   6.678  0.00  0.00    -0.353 OA
ENDROOT
BRANCH   4   6
HETATM    6  N   UNK N   1      31.890  16.868   5.648  0.00  0.00    -0.297 N 
HETATM    7  C   UNK N   1      32.985  17.293   4.962  0.00  0.00     0.188 A 
HETATM    8  N   UNK N   1      33.290  16.446   3.938  0.00  0.00    -0.346 N 
HETATM    9  C   UNK N   1      32.357  15.478   4.016  0.00  0.00     0.130 A 
ATOM     10  HN  UNK N   1      34.052  16.527   3.265  1.00  0.00     0.167 HD
HETATM   11  C   UNK N   1      31.522  15.734   5.038  0.00  0.00     0.157 A 
HETATM   12  C   UNK N   1      32.183  14.341   3.244  0.00  0.00     0.186 A 
HETATM   13  N   UNK N   1      30.495  14.909   5.363  0.00  0.00    -0.174 N 
HETATM   14  C   UNK N   1      30.306  13.786   4.606  0.00  0.00     0.679 A 
HETATM   15  H   UNK N   1      29.902  15.113   6.122  0.00  0.00     0.186 HD
HETATM   16  N   UNK N   1      29.341  12.992   4.880  0.00  0.00    -0.234 N 
HETATM   17  N   UNK N   1      31.145  13.506   3.556  0.00  0.00    -0.168 N 
HETATM   18  H   UNK N   1      28.715  13.191   5.612  0.00  0.00     0.174 HD
ATOM     19  HN  UNK N   1      29.220  12.140   4.331  1.00  0.00     0.174 HD
ATOM     20  HN  UNK N   1      30.993  12.665   3.001  1.00  0.00     0.186 HD
BRANCH  12  21
HETATM   21  O   UNK N   1      33.009  14.054   2.223  0.00  0.00    -0.344 OA
HETATM   22  H   UNK N   1      33.132  13.172   1.934  0.00  0.00     0.219 HD
ENDBRANCH  12  21
ENDBRANCH   4   6
BRANCH   3  23
HETATM   23  O   UNK N   1      32.852  16.531   8.468  0.00  0.00    -0.284 OA
BRANCH  23  24
HETATM   24  P   UNK N   1      33.384  15.103   9.345  0.00  0.00     0.391 P 
HETATM   25  O   UNK N   1      34.926  14.962   9.422  0.00  0.00    -0.632 OA
BRANCH  24  26
HETATM   26  O   UNK N   1      32.737  15.055  10.955  0.00  0.00    -0.307 OA
HETATM   27  H   UNK N   1      31.855  15.004  11.355  0.00  0.00     0.222 HD
ENDBRANCH  24  26
BRANCH  24  28
HETATM   28  O   UNK N   1      32.846  13.696   8.485  0.00  0.00    -0.307 OA
HETATM   29  H   UNK N   1      33.165  12.794   8.646  0.00  0.00     0.222 HD
ENDBRANCH  24  28
ENDBRANCH  23  24
ENDBRANCH   3  23
BRANCH   2  30
HETATM   30  O   UNK N   1      30.143  16.612  10.118  0.00  0.00    -0.390 OA
HETATM   31  H   UNK N   1      30.331  16.651  11.068  0.00  0.00     0.210 HD
ENDBRANCH   2  30
BRANCH   1  32
HETATM   32  C   UNK N   1      28.231  18.381   8.288  0.00  0.00     0.198 C 
BRANCH  32  33
HETATM   33  O   UNK N   1      27.514  18.002   9.423  0.00  0.00    -0.398 OA
HETATM   34  H   UNK N   1      27.182  17.114   9.630  0.00  0.00     0.209 HD
ENDBRANCH  32  33
ENDBRANCH   1  32
TORSDOF 9
ENDMDL
