MODEL 1
REMARK VINA RESULT:      -5.3      0.000      0.000
REMARK  7 active torsions:
REMARK  status: ('A' for Active; 'I' for Inactive)
REMARK       I    between atoms: C_2  and  N_4 
REMARK    1  A    between atoms: C_5  and  N_4 
REMARK    2  A    between atoms: C_5  and  C_6 
REMARK    3  A    between atoms: C_5  and  C_14 
REMARK    4  A    between atoms: C_6  and  C_7 
REMARK    5  A    between atoms: C_7  and  C_8 
REMARK    6  A    between atoms: C_8  and  N_9 
REMARK       I    between atoms: N_9  and  C_10 
REMARK       I    between atoms: C_10  and  N_11 
REMARK    7  A    between atoms: C_14  and  O_15 
ROOT
HETATM    1  C   UNK N   1      22.098  17.538   3.353  0.00  0.00     0.038 C 
ENDROOT
BRANCH   1   2
HETATM    2  C   UNK N   1      22.580  18.533   4.399  0.00  0.00     0.182 C 
BRANCH   2   3
HETATM    3  N   UNK N   1      23.902  19.008   3.994  0.00  0.00    -0.347 N 
HETATM    4  C   UNK N   1      24.333  20.158   3.409  0.00  0.00     0.214 C 
HETATM    5  C   UNK N   1      25.787  20.321   3.139  0.00  0.00     0.117 C 
HETATM    6  O   UNK N   1      23.570  21.049   3.087  0.00  0.00    -0.274 OA
HETATM    7  H   UNK N   1      24.626  18.369   4.183  0.00  0.00     0.163 HD
ENDBRANCH   2   3
BRANCH   2   8
HETATM    8  C   UNK N   1      22.304  18.015   5.806  0.00  0.00     0.163 C 
HETATM    9  O   UNK N   1      21.575  18.596   6.586  0.00  0.00    -0.648 OA
BRANCH   8  10
HETATM   10  O   UNK N   1      22.931  16.897   6.219  0.00  0.00    -0.775 OA
HETATM   11  H   UNK N   1      23.212  16.229   5.625  0.00  0.00     0.167 HD
ENDBRANCH   8  10
ENDBRANCH   2   8
ENDBRANCH   1   2
BRANCH   1  12
HETATM   12  C   UNK N   1      20.588  17.456   3.351  0.00  0.00     0.023 C 
BRANCH  12  13
HETATM   13  C   UNK N   1      19.998  18.850   3.245  0.00  0.00     0.138 C 
BRANCH  13  14
HETATM   14  N   UNK N   1      20.048  19.312   1.878  0.00  0.00    -0.227 N 
HETATM   15  C   UNK N   1      20.511  20.605   1.517  0.00  0.00     0.665 C 
HETATM   16  N   UNK N   1      20.568  20.972   0.158  0.00  0.00    -0.235 N 
HETATM   17  N   UNK N   1      20.878  21.445   2.418  0.00  0.00    -0.235 N 
HETATM   18  H   UNK N   1      20.870  21.840  -0.196  0.00  0.00     0.174 HD
HETATM   19  H   UNK N   1      20.278  20.299  -0.499  0.00  0.00     0.174 HD
HETATM   20  H   UNK N   1      20.493  21.396   3.323  0.00  0.00     0.174 HD
ATOM     21  HN  UNK N   1      21.568  22.162   2.196  1.00  0.00     0.174 HD
HETATM   22  H   UNK N   1      19.749  18.703   1.164  0.00  0.00     0.177 HD
ENDBRANCH  13  14
ENDBRANCH  12  13
ENDBRANCH   1  12
TORSDOF 7
ENDMDL
MODEL 2
REMARK VINA RESULT:      -5.3     12.149     14.827
REMARK  7 active torsions:
REMARK  status: ('A' for Active; 'I' for Inactive)
REMARK       I    between atoms: C_2  and  N_4 
REMARK    1  A    between atoms: C_5  and  N_4 
REMARK    2  A    between atoms: C_5  and  C_6 
REMARK    3  A    between atoms: C_5  and  C_14 
REMARK    4  A    between atoms: C_6  and  C_7 
REMARK    5  A    between atoms: C_7  and  C_8 
REMARK    6  A    between atoms: C_8  and  N_9 
REMARK       I    between atoms: N_9  and  C_10 
REMARK       I    between atoms: C_10  and  N_11 
REMARK    7  A    between atoms: C_14  and  O_15 
ROOT
HETATM    1  C   UNK N   1      34.182  15.876   8.766  0.00  0.00     0.038 C 
ENDROOT
BRANCH   1   2
HETATM    2  C   UNK N   1      33.764  17.325   8.973  0.00  0.00     0.182 C 
BRANCH   2   3
HETATM    3  N   UNK N   1      32.304  17.371   9.026  0.00  0.00    -0.347 N 
HETATM    4  C   UNK N   1      31.341  17.346   8.065  0.00  0.00     0.214 C 
HETATM    5  C   UNK N   1      29.914  17.402   8.481  0.00  0.00     0.117 C 
HETATM    6  O   UNK N   1      31.607  17.295   6.879  0.00  0.00    -0.274 OA
HETATM    7  H   UNK N   1      31.944  17.432   9.940  0.00  0.00     0.163 HD
ENDBRANCH   2   3
BRANCH   2   8
HETATM    8  C   UNK N   1      34.568  18.255   8.071  0.00  0.00     0.163 C 
HETATM    9  O   UNK N   1      35.259  19.154   8.507  0.00  0.00    -0.648 OA
BRANCH   8  10
HETATM   10  O   UNK N   1      34.472  18.105   6.735  0.00  0.00    -0.775 OA
HETATM   11  H   UNK N   1      33.674  18.261   6.269  0.00  0.00     0.167 HD
ENDBRANCH   8  10
ENDBRANCH   2   8
ENDBRANCH   1   2
BRANCH   1  12
HETATM   12  C   UNK N   1      33.662  15.007   9.889  0.00  0.00     0.023 C 
BRANCH  12  13
HETATM   13  C   UNK N   1      34.795  14.178  10.464  0.00  0.00     0.138 C 
BRANCH  13  14
HETATM   14  N   UNK N   1      35.116  14.627  11.798  0.00  0.00    -0.227 N 
HETATM   15  C   UNK N   1      36.356  14.344  12.430  0.00  0.00     0.665 C 
HETATM   16  N   UNK N   1      36.614  14.848  13.720  0.00  0.00    -0.235 N 
HETATM   17  N   UNK N   1      37.247  13.632  11.837  0.00  0.00    -0.235 N 
HETATM   18  H   UNK N   1      37.436  14.709  14.244  0.00  0.00     0.174 HD
HETATM   19  H   UNK N   1      35.905  15.389  14.138  0.00  0.00     0.174 HD
HETATM   20  H   UNK N   1      36.976  12.961  11.169  0.00  0.00     0.174 HD
ATOM     21  HN  UNK N   1      38.234  13.762  12.058  1.00  0.00     0.174 HD
HETATM   22  H   UNK N   1      34.445  15.152  12.292  0.00  0.00     0.177 HD
ENDBRANCH  13  14
ENDBRANCH  12  13
ENDBRANCH   1  12
TORSDOF 7
ENDMDL
MODEL 3
REMARK VINA RESULT:      -5.2      5.921      8.295
REMARK  7 active torsions:
REMARK  status: ('A' for Active; 'I' for Inactive)
REMARK       I    between atoms: C_2  and  N_4 
REMARK    1  A    between atoms: C_5  and  N_4 
REMARK    2  A    between atoms: C_5  and  C_6 
REMARK    3  A    between atoms: C_5  and  C_14 
REMARK    4  A    between atoms: C_6  and  C_7 
REMARK    5  A    between atoms: C_7  and  C_8 
REMARK    6  A    between atoms: C_8  and  N_9 
REMARK       I    between atoms: N_9  and  C_10 
REMARK       I    between atoms: C_10  and  N_11 
REMARK    7  A    between atoms: C_14  and  O_15 
ROOT
HETATM    1  C   UNK N   1      20.807  15.586   8.891  0.00  0.00     0.038 C 
ENDROOT
BRANCH   1   2
HETATM    2  C   UNK N   1      19.721  16.133   7.976  0.00  0.00     0.182 C 
BRANCH   2   3
HETATM    3  N   UNK N   1      20.372  16.759   6.826  0.00  0.00    -0.347 N 
HETATM    4  C   UNK N   1      20.910  17.992   6.624  0.00  0.00     0.214 C 
HETATM    5  C   UNK N   1      21.515  18.299   5.300  0.00  0.00     0.117 C 
HETATM    6  O   UNK N   1      20.901  18.854   7.482  0.00  0.00    -0.274 OA
HETATM    7  H   UNK N   1      20.434  16.170   6.040  0.00  0.00     0.163 HD
ENDBRANCH   2   3
BRANCH   2   8
HETATM    8  C   UNK N   1      18.644  16.850   8.781  0.00  0.00     0.163 C 
HETATM    9  O   UNK N   1      17.580  16.332   9.059  0.00  0.00    -0.648 OA
BRANCH   8  10
HETATM   10  O   UNK N   1      18.858  18.125   9.160  0.00  0.00    -0.775 OA
HETATM   11  H   UNK N   1      19.483  18.677   8.733  0.00  0.00     0.167 HD
ENDBRANCH   8  10
ENDBRANCH   2   8
ENDBRANCH   1   2
BRANCH   1  12
HETATM   12  C   UNK N   1      20.923  14.086   8.744  0.00  0.00     0.023 C 
BRANCH  12  13
HETATM   13  C   UNK N   1      21.342  13.470  10.065  0.00  0.00     0.138 C 
BRANCH  13  14
HETATM   14  N   UNK N   1      22.782  13.451  10.174  0.00  0.00    -0.227 N 
HETATM   15  C   UNK N   1      23.494  12.395  10.801  0.00  0.00     0.665 C 
HETATM   16  N   UNK N   1      24.902  12.426  10.835  0.00  0.00    -0.235 N 
HETATM   17  N   UNK N   1      22.868  11.410  11.338  0.00  0.00    -0.235 N 
HETATM   18  H   UNK N   1      25.488  11.748  11.244  0.00  0.00     0.174 HD
HETATM   19  H   UNK N   1      25.342  13.198  10.411  0.00  0.00     0.174 HD
HETATM   20  H   UNK N   1      21.955  11.537  11.684  0.00  0.00     0.174 HD
ATOM     21  HN  UNK N   1      23.315  10.496  11.406  1.00  0.00     0.174 HD
HETATM   22  H   UNK N   1      23.292  14.204   9.797  0.00  0.00     0.177 HD
ENDBRANCH  13  14
ENDBRANCH  12  13
ENDBRANCH   1  12
TORSDOF 7
ENDMDL
MODEL 4
REMARK VINA RESULT:      -5.1      9.436     11.545
REMARK  7 active torsions:
REMARK  status: ('A' for Active; 'I' for Inactive)
REMARK       I    between atoms: C_2  and  N_4 
REMARK    1  A    between atoms: C_5  and  N_4 
REMARK    2  A    between atoms: C_5  and  C_6 
REMARK    3  A    between atoms: C_5  and  C_14 
REMARK    4  A    between atoms: C_6  and  C_7 
REMARK    5  A    between atoms: C_7  and  C_8 
REMARK    6  A    between atoms: C_8  and  N_9 
REMARK       I    between atoms: N_9  and  C_10 
REMARK       I    between atoms: C_10  and  N_11 
REMARK    7  A    between atoms: C_14  and  O_15 
ROOT
HETATM    1  C   UNK N   1      32.424  17.569   8.202  0.00  0.00     0.038 C 
ENDROOT
BRANCH   1   2
HETATM    2  C   UNK N   1      33.734  17.957   7.530  0.00  0.00     0.182 C 
BRANCH   2   3
HETATM    3  N   UNK N   1      34.010  16.978   6.480  0.00  0.00    -0.347 N 
HETATM    4  C   UNK N   1      34.628  15.766   6.482  0.00  0.00     0.214 C 
HETATM    5  C   UNK N   1      34.730  15.013   5.203  0.00  0.00     0.117 C 
HETATM    6  O   UNK N   1      35.113  15.285   7.489  0.00  0.00    -0.274 OA
HETATM    7  H   UNK N   1      33.683  17.250   5.592  0.00  0.00     0.163 HD
ENDBRANCH   2   3
BRANCH   2   8
HETATM    8  C   UNK N   1      34.781  18.343   8.568  0.00  0.00     0.163 C 
HETATM    9  O   UNK N   1      35.388  19.395   8.525  0.00  0.00    -0.648 OA
BRANCH   8  10
HETATM   10  O   UNK N   1      35.082  17.464   9.544  0.00  0.00    -0.775 OA
HETATM   11  H   UNK N   1      35.700  17.657  10.221  0.00  0.00     0.167 HD
ENDBRANCH   8  10
ENDBRANCH   2   8
ENDBRANCH   1   2
BRANCH   1  12
HETATM   12  C   UNK N   1      31.384  17.203   7.168  0.00  0.00     0.023 C 
BRANCH  12  13
HETATM   13  C   UNK N   1      30.013  17.148   7.815  0.00  0.00     0.138 C 
BRANCH  13  14
HETATM   14  N   UNK N   1      29.146  18.147   7.237  0.00  0.00    -0.227 N 
HETATM   15  C   UNK N   1      28.081  18.753   7.955  0.00  0.00     0.665 C 
HETATM   16  N   UNK N   1      27.300  19.750   7.337  0.00  0.00    -0.235 N 
HETATM   17  N   UNK N   1      27.821  18.401   9.164  0.00  0.00    -0.235 N 
HETATM   18  H   UNK N   1      26.542  20.229   7.744  0.00  0.00     0.174 HD
HETATM   19  H   UNK N   1      27.534  19.990   6.411  0.00  0.00     0.174 HD
HETATM   20  H   UNK N   1      28.044  17.492   9.471  0.00  0.00     0.174 HD
ATOM     21  HN  UNK N   1      27.383  19.062   9.805  1.00  0.00     0.174 HD
HETATM   22  H   UNK N   1      29.300  18.420   6.304  0.00  0.00     0.177 HD
ENDBRANCH  13  14
ENDBRANCH  12  13
ENDBRANCH   1  12
TORSDOF 7
ENDMDL
MODEL 5
REMARK VINA RESULT:      -5.1     10.335     12.444
REMARK  7 active torsions:
REMARK  status: ('A' for Active; 'I' for Inactive)
REMARK       I    between atoms: C_2  and  N_4 
REMARK    1  A    between atoms: C_5  and  N_4 
REMARK    2  A    between atoms: C_5  and  C_6 
REMARK    3  A    between atoms: C_5  and  C_14 
REMARK    4  A    between atoms: C_6  and  C_7 
REMARK    5  A    between atoms: C_7  and  C_8 
REMARK    6  A    between atoms: C_8  and  N_9 
REMARK       I    between atoms: N_9  and  C_10 
REMARK       I    between atoms: C_10  and  N_11 
REMARK    7  A    between atoms: C_14  and  O_15 
ROOT
HETATM    1  C   UNK N   1      32.543  16.382   8.684  0.00  0.00     0.038 C 
ENDROOT
BRANCH   1   2
HETATM    2  C   UNK N   1      33.915  15.919   8.215  0.00  0.00     0.182 C 
BRANCH   2   3
HETATM    3  N   UNK N   1      34.707  15.582   9.397  0.00  0.00    -0.347 N 
HETATM    4  C   UNK N   1      35.388  16.337  10.301  0.00  0.00     0.214 C 
HETATM    5  C   UNK N   1      36.095  15.652  11.416  0.00  0.00     0.117 C 
HETATM    6  O   UNK N   1      35.451  17.549  10.220  0.00  0.00    -0.274 OA
HETATM    7  H   UNK N   1      34.757  14.616   9.576  0.00  0.00     0.163 HD
ENDBRANCH   2   3
BRANCH   2   8
HETATM    8  C   UNK N   1      34.450  16.832   7.119  0.00  0.00     0.163 C 
HETATM    9  O   UNK N   1      34.781  16.419   6.026  0.00  0.00    -0.648 OA
BRANCH   8  10
HETATM   10  O   UNK N   1      34.609  18.143   7.388  0.00  0.00    -0.775 OA
HETATM   11  H   UNK N   1      34.911  18.452   8.220  0.00  0.00     0.167 HD
ENDBRANCH   8  10
ENDBRANCH   2   8
ENDBRANCH   1   2
BRANCH   1  12
HETATM   12  C   UNK N   1      31.523  16.232   7.579  0.00  0.00     0.023 C 
BRANCH  12  13
HETATM   13  C   UNK N   1      30.887  17.576   7.280  0.00  0.00     0.138 C 
BRANCH  13  14
HETATM   14  N   UNK N   1      29.510  17.586   7.715  0.00  0.00    -0.227 N 
HETATM   15  C   UNK N   1      29.091  18.179   8.936  0.00  0.00     0.665 C 
HETATM   16  N   UNK N   1      27.724  18.184   9.277  0.00  0.00    -0.235 N 
HETATM   17  N   UNK N   1      29.947  18.711   9.734  0.00  0.00    -0.235 N 
HETATM   18  H   UNK N   1      27.332  18.565  10.095  0.00  0.00     0.174 HD
HETATM   19  H   UNK N   1      27.103  17.767   8.637  0.00  0.00     0.174 HD
HETATM   20  H   UNK N   1      30.877  18.388   9.745  0.00  0.00     0.174 HD
ATOM     21  HN  UNK N   1      29.663  19.467  10.356  1.00  0.00     0.174 HD
HETATM   22  H   UNK N   1      28.832  17.163   7.140  0.00  0.00     0.177 HD
ENDBRANCH  13  14
ENDBRANCH  12  13
ENDBRANCH   1  12
TORSDOF 7
ENDMDL
MODEL 6
REMARK VINA RESULT:      -4.9      9.914     12.011
REMARK  7 active torsions:
REMARK  status: ('A' for Active; 'I' for Inactive)
REMARK       I    between atoms: C_2  and  N_4 
REMARK    1  A    between atoms: C_5  and  N_4 
REMARK    2  A    between atoms: C_5  and  C_6 
REMARK    3  A    between atoms: C_5  and  C_14 
REMARK    4  A    between atoms: C_6  and  C_7 
REMARK    5  A    between atoms: C_7  and  C_8 
REMARK    6  A    between atoms: C_8  and  N_9 
REMARK       I    between atoms: N_9  and  C_10 
REMARK       I    between atoms: C_10  and  N_11 
REMARK    7  A    between atoms: C_14  and  O_15 
ROOT
HETATM    1  C   UNK N   1      32.626  17.975   8.340  0.00  0.00     0.038 C 
ENDROOT
BRANCH   1   2
HETATM    2  C   UNK N   1      33.455  16.737   8.029  0.00  0.00     0.182 C 
BRANCH   2   3
HETATM    3  N   UNK N   1      34.035  16.255   9.282  0.00  0.00    -0.347 N 
HETATM    4  C   UNK N   1      34.986  16.757  10.115  0.00  0.00     0.214 C 
HETATM    5  C   UNK N   1      35.337  15.991  11.342  0.00  0.00     0.117 C 
HETATM    6  O   UNK N   1      35.568  17.800   9.885  0.00  0.00    -0.274 OA
HETATM    7  H   UNK N   1      33.662  15.396   9.584  0.00  0.00     0.163 HD
ENDBRANCH   2   3
BRANCH   2   8
HETATM    8  C   UNK N   1      34.301  16.950   6.779  0.00  0.00     0.163 C 
HETATM    9  O   UNK N   1      34.199  17.940   6.081  0.00  0.00    -0.648 OA
BRANCH   8  10
HETATM   10  O   UNK N   1      35.162  15.984   6.406  0.00  0.00    -0.775 OA
HETATM   11  H   UNK N   1      35.171  15.626   5.540  0.00  0.00     0.167 HD
ENDBRANCH   8  10
ENDBRANCH   2   8
ENDBRANCH   1   2
BRANCH   1  12
HETATM   12  C   UNK N   1      31.155  17.632   8.389  0.00  0.00     0.023 C 
BRANCH  12  13
HETATM   13  C   UNK N   1      30.839  16.573   7.350  0.00  0.00     0.138 C 
BRANCH  13  14
HETATM   14  N   UNK N   1      29.887  17.082   6.391  0.00  0.00    -0.227 N 
HETATM   15  C   UNK N   1      30.258  17.507   5.087  0.00  0.00     0.665 C 
HETATM   16  N   UNK N   1      29.267  17.956   4.191  0.00  0.00    -0.235 N 
HETATM   17  N   UNK N   1      31.488  17.487   4.716  0.00  0.00    -0.235 N 
HETATM   18  H   UNK N   1      29.418  18.272   3.271  0.00  0.00     0.174 HD
HETATM   19  H   UNK N   1      28.338  17.954   4.516  0.00  0.00     0.174 HD
HETATM   20  H   UNK N   1      32.205  17.576   5.385  0.00  0.00     0.174 HD
ATOM     21  HN  UNK N   1      31.722  17.380   3.729  1.00  0.00     0.174 HD
HETATM   22  H   UNK N   1      28.939  17.136   6.652  0.00  0.00     0.177 HD
ENDBRANCH  13  14
ENDBRANCH  12  13
ENDBRANCH   1  12
TORSDOF 7
ENDMDL
MODEL 7
REMARK VINA RESULT:      -4.8      3.269      5.672
REMARK  7 active torsions:
REMARK  status: ('A' for Active; 'I' for Inactive)
REMARK       I    between atoms: C_2  and  N_4 
REMARK    1  A    between atoms: C_5  and  N_4 
REMARK    2  A    between atoms: C_5  and  C_6 
REMARK    3  A    between atoms: C_5  and  C_14 
REMARK    4  A    between atoms: C_6  and  C_7 
REMARK    5  A    between atoms: C_7  and  C_8 
REMARK    6  A    between atoms: C_8  and  N_9 
REMARK       I    between atoms: N_9  and  C_10 
REMARK       I    between atoms: C_10  and  N_11 
REMARK    7  A    between atoms: C_14  and  O_15 
ROOT
HETATM    1  C   UNK N   1      20.669  19.558   3.626  0.00  0.00     0.038 C 
ENDROOT
BRANCH   1   2
HETATM    2  C   UNK N   1      20.318  19.266   2.174  0.00  0.00     0.182 C 
BRANCH   2   3
HETATM    3  N   UNK N   1      20.343  17.816   1.986  0.00  0.00    -0.347 N 
HETATM    4  C   UNK N   1      20.343  17.026   0.879  0.00  0.00     0.214 C 
HETATM    5  C   UNK N   1      20.385  15.549   1.055  0.00  0.00     0.117 C 
HETATM    6  O   UNK N   1      20.297  17.484  -0.247  0.00  0.00    -0.274 OA
HETATM    7  H   UNK N   1      20.365  17.310   2.830  0.00  0.00     0.163 HD
ENDBRANCH   2   3
BRANCH   2   8
HETATM    8  C   UNK N   1      21.056  20.214   1.236  0.00  0.00     0.163 C 
HETATM    9  O   UNK N   1      22.051  20.824   1.572  0.00  0.00    -0.648 OA
BRANCH   8  10
HETATM   10  O   UNK N   1      20.559  20.422   0.001  0.00  0.00    -0.775 OA
HETATM   11  H   UNK N   1      21.100  20.434  -0.763  0.00  0.00     0.167 HD
ENDBRANCH   8  10
ENDBRANCH   2   8
ENDBRANCH   1   2
BRANCH   1  12
HETATM   12  C   UNK N   1      21.618  18.512   4.165  0.00  0.00     0.023 C 
BRANCH  12  13
HETATM   13  C   UNK N   1      21.398  18.340   5.656  0.00  0.00     0.138 C 
BRANCH  13  14
HETATM   14  N   UNK N   1      20.695  17.107   5.919  0.00  0.00    -0.227 N 
HETATM   15  C   UNK N   1      21.342  15.935   6.393  0.00  0.00     0.665 C 
HETATM   16  N   UNK N   1      20.583  14.779   6.664  0.00  0.00    -0.235 N 
HETATM   17  N   UNK N   1      22.614  15.917   6.576  0.00  0.00    -0.235 N 
HETATM   18  H   UNK N   1      20.933  13.919   6.992  0.00  0.00     0.174 HD
HETATM   19  H   UNK N   1      19.613  14.836   6.511  0.00  0.00     0.174 HD
HETATM   20  H   UNK N   1      23.196  16.509   6.047  0.00  0.00     0.174 HD
ATOM     21  HN  UNK N   1      23.021  15.290   7.270  1.00  0.00     0.174 HD
HETATM   22  H   UNK N   1      19.723  17.077   5.763  0.00  0.00     0.177 HD
ENDBRANCH  13  14
ENDBRANCH  12  13
ENDBRANCH   1  12
TORSDOF 7
ENDMDL
MODEL 8
REMARK VINA RESULT:      -4.8     10.517     12.439
REMARK  7 active torsions:
REMARK  status: ('A' for Active; 'I' for Inactive)
REMARK       I    between atoms: C_2  and  N_4 
REMARK    1  A    between atoms: C_5  and  N_4 
REMARK    2  A    between atoms: C_5  and  C_6 
REMARK    3  A    between atoms: C_5  and  C_14 
REMARK    4  A    between atoms: C_6  and  C_7 
REMARK    5  A    between atoms: C_7  and  C_8 
REMARK    6  A    between atoms: C_8  and  N_9 
REMARK       I    between atoms: N_9  and  C_10 
REMARK       I    between atoms: C_10  and  N_11 
REMARK    7  A    between atoms: C_14  and  O_15 
ROOT
HETATM    1  C   UNK N   1      30.619  22.436  -4.780  0.00  0.00     0.038 C 
ENDROOT
BRANCH   1   2
HETATM    2  C   UNK N   1      29.730  22.706  -3.575  0.00  0.00     0.182 C 
BRANCH   2   3
HETATM    3  N   UNK N   1      28.849  23.826  -3.905  0.00  0.00    -0.347 N 
HETATM    4  C   UNK N   1      27.669  24.260  -3.386  0.00  0.00     0.214 C 
HETATM    5  C   UNK N   1      27.033  25.470  -3.972  0.00  0.00     0.117 C 
HETATM    6  O   UNK N   1      27.110  23.685  -2.471  0.00  0.00    -0.274 OA
HETATM    7  H   UNK N   1      29.175  24.377  -4.653  0.00  0.00     0.163 HD
ENDBRANCH   2   3
BRANCH   2   8
HETATM    8  C   UNK N   1      30.540  22.671  -2.284  0.00  0.00     0.163 C 
HETATM    9  O   UNK N   1      30.126  23.132  -1.239  0.00  0.00    -0.648 OA
BRANCH   8  10
HETATM   10  O   UNK N   1      31.783  22.153  -2.313  0.00  0.00    -0.775 OA
HETATM   11  H   UNK N   1      32.234  21.886  -1.537  0.00  0.00     0.167 HD
ENDBRANCH   8  10
ENDBRANCH   2   8
ENDBRANCH   1   2
BRANCH   1  12
HETATM   12  C   UNK N   1      30.235  21.134  -5.444  0.00  0.00     0.023 C 
BRANCH  12  13
HETATM   13  C   UNK N   1      31.365  20.131  -5.302  0.00  0.00     0.138 C 
BRANCH  13  14
HETATM   14  N   UNK N   1      32.579  20.800  -4.898  0.00  0.00    -0.227 N 
HETATM   15  C   UNK N   1      33.636  20.137  -4.219  0.00  0.00     0.665 C 
HETATM   16  N   UNK N   1      34.808  20.847  -3.891  0.00  0.00    -0.235 N 
HETATM   17  N   UNK N   1      33.534  18.896  -3.902  0.00  0.00    -0.235 N 
HETATM   18  H   UNK N   1      35.594  20.483  -3.422  0.00  0.00     0.174 HD
HETATM   19  H   UNK N   1      34.844  21.795  -4.153  0.00  0.00     0.174 HD
HETATM   20  H   UNK N   1      32.647  18.499  -3.744  0.00  0.00     0.174 HD
ATOM     21  HN  UNK N   1      34.372  18.322  -3.812  1.00  0.00     0.174 HD
HETATM   22  H   UNK N   1      32.678  21.758  -5.101  0.00  0.00     0.177 HD
ENDBRANCH  13  14
ENDBRANCH  12  13
ENDBRANCH   1  12
TORSDOF 7
ENDMDL
MODEL 9
REMARK VINA RESULT:      -4.7      9.960     11.148
REMARK  7 active torsions:
REMARK  status: ('A' for Active; 'I' for Inactive)
REMARK       I    between atoms: C_2  and  N_4 
REMARK    1  A    between atoms: C_5  and  N_4 
REMARK    2  A    between atoms: C_5  and  C_6 
REMARK    3  A    between atoms: C_5  and  C_14 
REMARK    4  A    between atoms: C_6  and  C_7 
REMARK    5  A    between atoms: C_7  and  C_8 
REMARK    6  A    between atoms: C_8  and  N_9 
REMARK       I    between atoms: N_9  and  C_10 
REMARK       I    between atoms: C_10  and  N_11 
REMARK    7  A    between atoms: C_14  and  O_15 
ROOT
HETATM    1  C   UNK N   1      28.215  24.178  -5.571  0.00  0.00     0.038 C 
ENDROOT
BRANCH   1   2
HETATM    2  C   UNK N   1      28.501  24.034  -4.083  0.00  0.00     0.182 C 
BRANCH   2   3
HETATM    3  N   UNK N   1      29.524  23.002  -3.917  0.00  0.00    -0.347 N 
HETATM    4  C   UNK N   1      30.440  22.755  -2.942  0.00  0.00     0.214 C 
HETATM    5  C   UNK N   1      31.344  21.583  -3.092  0.00  0.00     0.117 C 
HETATM    6  O   UNK N   1      30.554  23.466  -1.962  0.00  0.00    -0.274 OA
HETATM    7  H   UNK N   1      29.557  22.357  -4.659  0.00  0.00     0.163 HD
ENDBRANCH   2   3
BRANCH   2   8
HETATM    8  C   UNK N   1      27.206  24.022  -3.280  0.00  0.00     0.163 C 
HETATM    9  O   UNK N   1      27.173  23.755  -2.095  0.00  0.00    -0.648 OA
BRANCH   8  10
HETATM   10  O   UNK N   1      26.046  24.269  -3.919  0.00  0.00    -0.775 OA
HETATM   11  H   UNK N   1      25.236  24.388  -3.462  0.00  0.00     0.167 HD
ENDBRANCH   8  10
ENDBRANCH   2   8
ENDBRANCH   1   2
BRANCH   1  12
HETATM   12  C   UNK N   1      28.326  22.840  -6.266  0.00  0.00     0.023 C 
BRANCH  12  13
HETATM   13  C   UNK N   1      27.261  22.729  -7.341  0.00  0.00     0.138 C 
BRANCH  13  14
HETATM   14  N   UNK N   1      25.973  22.465  -6.744  0.00  0.00    -0.227 N 
HETATM   15  C   UNK N   1      24.981  21.665  -7.372  0.00  0.00     0.665 C 
HETATM   16  N   UNK N   1      23.761  21.419  -6.712  0.00  0.00    -0.235 N 
HETATM   17  N   UNK N   1      25.184  21.165  -8.538  0.00  0.00    -0.235 N 
HETATM   18  H   UNK N   1      23.012  20.883  -7.058  0.00  0.00     0.174 HD
HETATM   19  H   UNK N   1      23.648  21.821  -5.820  0.00  0.00     0.174 HD
HETATM   20  H   UNK N   1      25.793  21.615  -9.168  0.00  0.00     0.174 HD
ATOM     21  HN  UNK N   1      24.715  20.302  -8.812  1.00  0.00     0.174 HD
HETATM   22  H   UNK N   1      25.774  22.856  -5.863  0.00  0.00     0.177 HD
ENDBRANCH  13  14
ENDBRANCH  12  13
ENDBRANCH   1  12
TORSDOF 7
ENDMDL
