MODEL 1
REMARK VINA RESULT:      -4.6      0.000      0.000
REMARK  4 active torsions:
REMARK  status: ('A' for Active; 'I' for Inactive)
REMARK    1  A    between atoms: C_2  and  C_1 
REMARK    2  A    between atoms: C_1  and  C_4 
REMARK    3  A    between atoms: C_4  and  C_5 
REMARK    4  A    between atoms: O_6  and  C_5 
ROOT
HETATM    1  C   UNK N   1      30.699  17.596   8.400  0.00  0.00     0.048 A 
HETATM    2  C   UNK N   1      29.600  17.516   7.576  0.00  0.00     0.118 A 
HETATM    3  N   UNK N   1      30.314  17.988   9.625  0.00  0.00    -0.351 N 
ATOM      4  HN  UNK N   1      30.904  18.135  10.444  1.00  0.00     0.166 HD
HETATM    5  N   UNK N   1      28.520  17.862   8.297  0.00  0.00    -0.360 N 
HETATM    6  C   UNK N   1      28.978  18.144   9.537  0.00  0.00     0.180 A 
HETATM    7  H   UNK N   1      27.587  17.902   7.986  0.00  0.00     0.166 HD
ENDROOT
BRANCH   1   8
HETATM    8  C   UNK N   1      32.089  17.304   8.026  0.00  0.00     0.037 C 
BRANCH   8   9
HETATM    9  C   UNK N   1      33.087  17.997   8.581  0.00  0.00     0.083 C 
BRANCH   9  10
HETATM   10  C   UNK N   1      34.339  18.310   7.874  0.00  0.00     0.165 C 
HETATM   11  O   UNK N   1      34.559  17.863   6.759  0.00  0.00    -0.647 OA
BRANCH  10  12
HETATM   12  O   UNK N   1      35.249  19.101   8.471  0.00  0.00    -0.773 OA
HETATM   13  H   UNK N   1      36.119  19.154   8.128  0.00  0.00     0.167 HD
ENDBRANCH  10  12
ENDBRANCH   9  10
ENDBRANCH   8   9
ENDBRANCH   1   8
TORSDOF 4
ENDMDL
MODEL 2
REMARK VINA RESULT:      -4.4     12.786     13.465
REMARK  4 active torsions:
REMARK  status: ('A' for Active; 'I' for Inactive)
REMARK    1  A    between atoms: C_2  and  C_1 
REMARK    2  A    between atoms: C_1  and  C_4 
REMARK    3  A    between atoms: C_4  and  C_5 
REMARK    4  A    between atoms: O_6  and  C_5 
ROOT
HETATM    1  C   UNK N   1      20.257  17.520   1.874  0.00  0.00     0.048 A 
HETATM    2  C   UNK N   1      20.026  16.204   2.203  0.00  0.00     0.118 A 
HETATM    3  N   UNK N   1      19.930  17.724   0.589  0.00  0.00    -0.351 N 
ATOM      4  HN  UNK N   1      19.993  18.597   0.063  1.00  0.00     0.166 HD
HETATM    5  N   UNK N   1      19.550  15.585   1.110  0.00  0.00    -0.360 N 
HETATM    6  C   UNK N   1      19.500  16.527   0.143  0.00  0.00     0.180 A 
HETATM    7  H   UNK N   1      19.290  14.638   1.029  0.00  0.00     0.166 HD
ENDROOT
BRANCH   1   8
HETATM    8  C   UNK N   1      20.780  18.561   2.769  0.00  0.00     0.037 C 
BRANCH   8   9
HETATM    9  C   UNK N   1      20.289  19.801   2.704  0.00  0.00     0.083 C 
BRANCH   9  10
HETATM   10  C   UNK N   1      20.990  20.908   2.035  0.00  0.00     0.165 C 
HETATM   11  O   UNK N   1      20.835  21.119   0.842  0.00  0.00    -0.647 OA
BRANCH  10  12
HETATM   12  O   UNK N   1      21.810  21.695   2.754  0.00  0.00    -0.773 OA
HETATM   13  H   UNK N   1      22.689  21.420   2.929  0.00  0.00     0.167 HD
ENDBRANCH  10  12
ENDBRANCH   9  10
ENDBRANCH   8   9
ENDBRANCH   1   8
TORSDOF 4
ENDMDL
MODEL 3
REMARK VINA RESULT:      -4.4     10.623     11.316
REMARK  4 active torsions:
REMARK  status: ('A' for Active; 'I' for Inactive)
REMARK    1  A    between atoms: C_2  and  C_1 
REMARK    2  A    between atoms: C_1  and  C_4 
REMARK    3  A    between atoms: C_4  and  C_5 
REMARK    4  A    between atoms: O_6  and  C_5 
ROOT
HETATM    1  C   UNK N   1      21.347  13.015   9.660  0.00  0.00     0.048 A 
HETATM    2  C   UNK N   1      20.804  14.276   9.570  0.00  0.00     0.118 A 
HETATM    3  N   UNK N   1      21.502  12.505   8.428  0.00  0.00    -0.351 N 
ATOM      4  HN  UNK N   1      21.880  11.591   8.177  1.00  0.00     0.166 HD
HETATM    5  N   UNK N   1      20.620  14.553   8.269  0.00  0.00    -0.360 N 
HETATM    6  C   UNK N   1      21.051  13.464   7.594  0.00  0.00     0.180 A 
HETATM    7  H   UNK N   1      20.248  15.380   7.884  0.00  0.00     0.166 HD
ENDROOT
BRANCH   1   8
HETATM    8  C   UNK N   1      21.709  12.310  10.896  0.00  0.00     0.037 C 
BRANCH   8   9
HETATM    9  C   UNK N   1      22.890  11.692  10.988  0.00  0.00     0.083 C 
BRANCH   9  10
HETATM   10  C   UNK N   1      23.902  12.039  11.998  0.00  0.00     0.165 C 
HETATM   11  O   UNK N   1      23.638  12.005  13.190  0.00  0.00    -0.647 OA
BRANCH  10  12
HETATM   12  O   UNK N   1      25.134  12.399  11.595  0.00  0.00    -0.773 OA
HETATM   13  H   UNK N   1      25.872  12.247  12.152  0.00  0.00     0.167 HD
ENDBRANCH  10  12
ENDBRANCH   9  10
ENDBRANCH   8   9
ENDBRANCH   1   8
TORSDOF 4
ENDMDL
MODEL 4
REMARK VINA RESULT:      -4.3     10.568     11.703
REMARK  4 active torsions:
REMARK  status: ('A' for Active; 'I' for Inactive)
REMARK    1  A    between atoms: C_2  and  C_1 
REMARK    2  A    between atoms: C_1  and  C_4 
REMARK    3  A    between atoms: C_4  and  C_5 
REMARK    4  A    between atoms: O_6  and  C_5 
ROOT
HETATM    1  C   UNK N   1      23.205  12.815   9.987  0.00  0.00     0.048 A 
HETATM    2  C   UNK N   1      24.579  12.874   9.929  0.00  0.00     0.118 A 
HETATM    3  N   UNK N   1      22.830  12.233  11.136  0.00  0.00    -0.351 N 
ATOM      4  HN  UNK N   1      21.880  12.051  11.459  1.00  0.00     0.166 HD
HETATM    5  N   UNK N   1      25.062  12.323  11.054  0.00  0.00    -0.360 N 
HETATM    6  C   UNK N   1      23.983  11.941  11.772  0.00  0.00     0.180 A 
HETATM    7  H   UNK N   1      26.009  12.218  11.305  0.00  0.00     0.166 HD
ENDROOT
BRANCH   1   8
HETATM    8  C   UNK N   1      22.270  13.304   8.966  0.00  0.00     0.037 C 
BRANCH   8   9
HETATM    9  C   UNK N   1      21.401  14.273   9.269  0.00  0.00     0.083 C 
BRANCH   9  10
HETATM   10  C   UNK N   1      20.053  14.007   9.793  0.00  0.00     0.165 C 
HETATM   11  O   UNK N   1      19.813  12.989  10.425  0.00  0.00    -0.647 OA
BRANCH  10  12
HETATM   12  O   UNK N   1      19.074  14.902   9.569  0.00  0.00    -0.773 OA
HETATM   13  H   UNK N   1      19.194  15.799   9.811  0.00  0.00     0.167 HD
ENDBRANCH  10  12
ENDBRANCH   9  10
ENDBRANCH   8   9
ENDBRANCH   1   8
TORSDOF 4
ENDMDL
MODEL 5
REMARK VINA RESULT:      -4.3     11.016     11.986
REMARK  4 active torsions:
REMARK  status: ('A' for Active; 'I' for Inactive)
REMARK    1  A    between atoms: C_2  and  C_1 
REMARK    2  A    between atoms: C_1  and  C_4 
REMARK    3  A    between atoms: C_4  and  C_5 
REMARK    4  A    between atoms: O_6  and  C_5 
ROOT
HETATM    1  C   UNK N   1      22.055  13.159  10.249  0.00  0.00     0.048 A 
HETATM    2  C   UNK N   1      21.312  12.309  11.036  0.00  0.00     0.118 A 
HETATM    3  N   UNK N   1      23.360  12.971  10.496  0.00  0.00    -0.351 N 
ATOM      4  HN  UNK N   1      24.150  13.454  10.067  1.00  0.00     0.166 HD
HETATM    5  N   UNK N   1      22.165  11.587  11.781  0.00  0.00    -0.360 N 
HETATM    6  C   UNK N   1      23.402  12.005  11.436  0.00  0.00     0.180 A 
HETATM    7  H   UNK N   1      21.935  10.894  12.442  0.00  0.00     0.166 HD
ENDROOT
BRANCH   1   8
HETATM    8  C   UNK N   1      21.529  14.129   9.280  0.00  0.00     0.037 C 
BRANCH   8   9
HETATM    9  C   UNK N   1      20.278  14.580   9.401  0.00  0.00     0.083 C 
BRANCH   9  10
HETATM   10  C   UNK N   1      19.825  15.857   8.830  0.00  0.00     0.165 C 
HETATM   11  O   UNK N   1      18.677  15.999   8.439  0.00  0.00    -0.647 OA
BRANCH  10  12
HETATM   12  O   UNK N   1      20.695  16.880   8.740  0.00  0.00    -0.773 OA
HETATM   13  H   UNK N   1      20.671  17.452   7.998  0.00  0.00     0.167 HD
ENDBRANCH  10  12
ENDBRANCH   9  10
ENDBRANCH   8   9
ENDBRANCH   1   8
TORSDOF 4
ENDMDL
MODEL 6
REMARK VINA RESULT:      -4.3      9.548     10.488
REMARK  4 active torsions:
REMARK  status: ('A' for Active; 'I' for Inactive)
REMARK    1  A    between atoms: C_2  and  C_1 
REMARK    2  A    between atoms: C_1  and  C_4 
REMARK    3  A    between atoms: C_4  and  C_5 
REMARK    4  A    between atoms: O_6  and  C_5 
ROOT
HETATM    1  C   UNK N   1      35.940  13.391  15.137  0.00  0.00     0.048 A 
HETATM    2  C   UNK N   1      36.829  14.435  15.019  0.00  0.00     0.118 A 
HETATM    3  N   UNK N   1      35.327  13.191  13.960  0.00  0.00    -0.351 N 
ATOM      4  HN  UNK N   1      34.619  12.490  13.740  1.00  0.00     0.166 HD
HETATM    5  N   UNK N   1      36.767  14.887  13.756  0.00  0.00    -0.360 N 
HETATM    6  C   UNK N   1      35.849  14.118  13.132  0.00  0.00     0.180 A 
HETATM    7  H   UNK N   1      37.285  15.628  13.365  0.00  0.00     0.166 HD
ENDROOT
BRANCH   1   8
HETATM    8  C   UNK N   1      35.681  12.601  16.347  0.00  0.00     0.037 C 
BRANCH   8   9
HETATM    9  C   UNK N   1      34.832  13.059  17.272  0.00  0.00     0.083 C 
BRANCH   9  10
HETATM   10  C   UNK N   1      35.271  13.770  18.482  0.00  0.00     0.165 C 
HETATM   11  O   UNK N   1      35.276  13.215  19.570  0.00  0.00    -0.647 OA
BRANCH  10  12
HETATM   12  O   UNK N   1      35.670  15.051  18.382  0.00  0.00    -0.773 OA
HETATM   13  H   UNK N   1      35.268  15.710  18.912  0.00  0.00     0.167 HD
ENDBRANCH  10  12
ENDBRANCH   9  10
ENDBRANCH   8   9
ENDBRANCH   1   8
TORSDOF 4
ENDMDL
MODEL 7
REMARK VINA RESULT:      -4.3      6.656      7.676
REMARK  4 active torsions:
REMARK  status: ('A' for Active; 'I' for Inactive)
REMARK    1  A    between atoms: C_2  and  C_1 
REMARK    2  A    between atoms: C_1  and  C_4 
REMARK    3  A    between atoms: C_4  and  C_5 
REMARK    4  A    between atoms: O_6  and  C_5 
ROOT
HETATM    1  C   UNK N   1      35.937  14.004  13.549  0.00  0.00     0.048 A 
HETATM    2  C   UNK N   1      35.403  13.234  14.556  0.00  0.00     0.118 A 
HETATM    3  N   UNK N   1      36.880  14.813  14.056  0.00  0.00    -0.351 N 
ATOM      4  HN  UNK N   1      37.449  15.495  13.554  1.00  0.00     0.166 HD
HETATM    5  N   UNK N   1      36.020  13.568  15.701  0.00  0.00    -0.360 N 
HETATM    6  C   UNK N   1      36.913  14.528  15.374  0.00  0.00     0.180 A 
HETATM    7  H   UNK N   1      35.856  13.191  16.596  0.00  0.00     0.166 HD
ENDROOT
BRANCH   1   8
HETATM    8  C   UNK N   1      35.556  13.969  12.131  0.00  0.00     0.037 C 
BRANCH   8   9
HETATM    9  C   UNK N   1      34.873  14.987  11.600  0.00  0.00     0.083 C 
BRANCH   9  10
HETATM   10  C   UNK N   1      35.522  16.145  10.966  0.00  0.00     0.165 C 
HETATM   11  O   UNK N   1      36.730  16.167  10.786  0.00  0.00    -0.647 OA
BRANCH  10  12
HETATM   12  O   UNK N   1      34.768  17.190  10.581  0.00  0.00    -0.773 OA
HETATM   13  H   UNK N   1      34.551  17.304   9.677  0.00  0.00     0.167 HD
ENDBRANCH  10  12
ENDBRANCH   9  10
ENDBRANCH   8   9
ENDBRANCH   1   8
TORSDOF 4
ENDMDL
MODEL 8
REMARK VINA RESULT:      -4.3     16.450     17.362
REMARK  4 active torsions:
REMARK  status: ('A' for Active; 'I' for Inactive)
REMARK    1  A    between atoms: C_2  and  C_1 
REMARK    2  A    between atoms: C_1  and  C_4 
REMARK    3  A    between atoms: C_4  and  C_5 
REMARK    4  A    between atoms: O_6  and  C_5 
ROOT
HETATM    1  C   UNK N   1      25.426  25.564  -5.900  0.00  0.00     0.048 A 
HETATM    2  C   UNK N   1      25.826  24.664  -4.938  0.00  0.00     0.118 A 
HETATM    3  N   UNK N   1      25.481  24.981  -7.108  0.00  0.00    -0.351 N 
ATOM      4  HN  UNK N   1      25.245  25.398  -8.009  1.00  0.00     0.166 HD
HETATM    5  N   UNK N   1      26.132  23.511  -5.556  0.00  0.00    -0.360 N 
HETATM    6  C   UNK N   1      25.915  23.727  -6.872  0.00  0.00     0.180 A 
HETATM    7  H   UNK N   1      26.449  22.679  -5.135  0.00  0.00     0.166 HD
ENDROOT
BRANCH   1   8
HETATM    8  C   UNK N   1      25.001  26.951  -5.670  0.00  0.00     0.037 C 
BRANCH   8   9
HETATM    9  C   UNK N   1      25.874  27.844  -5.196  0.00  0.00     0.083 C 
BRANCH   9  10
HETATM   10  C   UNK N   1      25.763  28.443  -3.857  0.00  0.00     0.165 C 
HETATM   11  O   UNK N   1      25.508  27.755  -2.881  0.00  0.00    -0.647 OA
BRANCH  10  12
HETATM   12  O   UNK N   1      25.946  29.768  -3.714  0.00  0.00    -0.773 OA
HETATM   13  H   UNK N   1      26.797  30.140  -3.843  0.00  0.00     0.167 HD
ENDBRANCH  10  12
ENDBRANCH   9  10
ENDBRANCH   8   9
ENDBRANCH   1   8
TORSDOF 4
ENDMDL
MODEL 9
REMARK VINA RESULT:      -4.2     12.895     13.496
REMARK  4 active torsions:
REMARK  status: ('A' for Active; 'I' for Inactive)
REMARK    1  A    between atoms: C_2  and  C_1 
REMARK    2  A    between atoms: C_1  and  C_4 
REMARK    3  A    between atoms: C_4  and  C_5 
REMARK    4  A    between atoms: O_6  and  C_5 
ROOT
HETATM    1  C   UNK N   1      20.220  19.179   2.341  0.00  0.00     0.048 A 
HETATM    2  C   UNK N   1      20.564  20.122   3.282  0.00  0.00     0.118 A 
HETATM    3  N   UNK N   1      20.348  19.704   1.113  0.00  0.00    -0.351 N 
ATOM      4  HN  UNK N   1      20.166  19.247   0.219  1.00  0.00     0.166 HD
HETATM    5  N   UNK N   1      20.909  21.245   2.632  0.00  0.00    -0.360 N 
HETATM    6  C   UNK N   1      20.771  20.968   1.317  0.00  0.00     0.180 A 
HETATM    7  H   UNK N   1      21.203  22.096   3.032  0.00  0.00     0.166 HD
ENDROOT
BRANCH   1   8
HETATM    8  C   UNK N   1      19.778  17.804   2.608  0.00  0.00     0.037 C 
BRANCH   8   9
HETATM    9  C   UNK N   1      20.564  16.776   2.277  0.00  0.00     0.083 C 
BRANCH   9  10
HETATM   10  C   UNK N   1      20.640  16.230   0.913  0.00  0.00     0.165 C 
HETATM   11  O   UNK N   1      20.102  16.801  -0.023  0.00  0.00    -0.647 OA
BRANCH  10  12
HETATM   12  O   UNK N   1      21.313  15.085   0.701  0.00  0.00    -0.773 OA
HETATM   13  H   UNK N   1      21.777  14.677   1.407  0.00  0.00     0.167 HD
ENDBRANCH  10  12
ENDBRANCH   9  10
ENDBRANCH   8   9
ENDBRANCH   1   8
TORSDOF 4
ENDMDL
