REMARK  4 active torsions:
REMARK  status: ('A' for Active; 'I' for Inactive)
REMARK    1  A    between atoms: C_2  and  C_1 
REMARK    2  A    between atoms: C_1  and  C_4 
REMARK    3  A    between atoms: C_4  and  C_5 
REMARK    4  A    between atoms: O_6  and  C_5 
ROOT
HETATM    1  C   UNK N   1      -1.196   0.209   0.000  0.00  0.00     0.048 A 
HETATM    2  C   UNK N   1      -1.271  -1.165  -0.000  0.00  0.00     0.118 A 
HETATM    3  N   UNK N   1      -2.435   0.725   0.000  0.00  0.00    -0.351 N 
ATOM      4  HN  UNK N   1      -2.697   1.711   0.000  1.00  0.00     0.166 HD
HETATM    5  N   UNK N   1      -2.570  -1.506  -0.000  0.00  0.00    -0.360 N 
HETATM    6  C   UNK N   1      -3.258  -0.343  -0.000  0.00  0.00     0.180 A 
HETATM    7  H   UNK N   1      -2.945  -2.417  -0.000  0.00  0.00     0.166 HD
ENDROOT
BRANCH   1   8
HETATM    8  C   UNK N   1       0.033   1.013   0.000  0.00  0.00     0.037 C 
BRANCH   8   9
HETATM    9  C   UNK N   1       1.224   0.408   0.000  0.00  0.00     0.083 C 
BRANCH   9  10
HETATM   10  C   UNK N   1       2.498   1.143   0.000  0.00  0.00     0.165 C 
HETATM   11  O   UNK N   1       2.519   2.364  -0.000  0.00  0.00    -0.647 OA
BRANCH  10  12
HETATM   12  O   UNK N   1       3.653   0.453   0.000  0.00  0.00    -0.773 OA
HETATM   13  H   UNK N   1       3.639  -0.484   0.000  0.00  0.00     0.167 HD
ENDBRANCH  10  12
ENDBRANCH   9  10
ENDBRANCH   8   9
ENDBRANCH   1   8
TORSDOF 4
