REMARK  19 active torsions:
REMARK  status: ('A' for Active; 'I' for Inactive)
REMARK    1  A    between atoms: C_4  and  C_1 
REMARK    2  A    between atoms: O_22  and  C_1 
REMARK    3  A    between atoms: C_5  and  C_2 
REMARK    4  A    between atoms: O_23  and  C_2 
REMARK    5  A    between atoms: C_6  and  C_3 
REMARK    6  A    between atoms: O_24  and  C_3 
REMARK    7  A    between atoms: C_7  and  O_25 
REMARK    8  A    between atoms: C_8  and  O_26 
REMARK    9  A    between atoms: C_9  and  O_27 
REMARK   10  A    between atoms: C_10  and  O_28 
REMARK   11  A    between atoms: C_11  and  O_29 
REMARK   12  A    between atoms: C_12  and  O_30 
REMARK   13  A    between atoms: C_13  and  O_31 
REMARK   14  A    between atoms: C_14  and  O_35 
REMARK   15  A    between atoms: C_15  and  O_36 
REMARK   16  A    between atoms: N_21  and  C_16 
REMARK   17  A    between atoms: C_17  and  O_36 
REMARK   18  A    between atoms: C_18  and  O_35 
REMARK   19  A    between atoms: O_32  and  N_21 
ROOT
HETATM    1  C   UNK N   1       1.579   5.066  -0.238  0.00  0.00     0.180 C 
HETATM    2  C   UNK N   1       1.003   7.492   0.180  0.00  0.00     0.183 C 
HETATM    3  C   UNK N   1      -0.476   6.967   0.325  0.00  0.00     0.204 C 
HETATM    4  C   UNK N   1       1.924   6.320   0.581  0.00  0.00     0.187 C 
HETATM    5  C   UNK N   1      -0.704   5.615  -0.456  0.00  0.00     0.292 C 
HETATM    6  O   UNK N   1       0.467   5.235  -1.110  0.00  0.00    -0.348 OA
ENDROOT
BRANCH   5   7
HETATM    7  O   UNK N   1      -1.164   4.514   0.324  0.00  0.00    -0.348 OA
BRANCH   7   8
HETATM    8  C   UNK N   1      -1.742   3.450  -0.459  0.00  0.00     0.181 C 
HETATM    9  C   UNK N   1      -0.771   2.321  -1.046  0.00  0.00     0.138 C 
HETATM   10  N   UNK N   1      -0.523   1.265  -0.084  0.00  0.00    -0.367 N 
HETATM   11  C   UNK N   1      -1.518   0.704   0.514  0.00  0.00     0.129 C 
ATOM     12  HN  UNK N   1       0.432   0.967   0.117  1.00  0.00     0.161 HD
HETATM   13  C   UNK N   1      -2.920   1.245   0.282  0.00  0.00     0.218 C 
HETATM   14  C   UNK N   1      -2.808   2.772   0.472  0.00  0.00     0.185 C 
BRANCH   9  15
HETATM   15  C   UNK N   1       0.496   2.715  -1.790  0.00  0.00     0.191 C 
BRANCH  15  16
HETATM   16  O   UNK N   1       1.206   1.590  -2.217  0.00  0.00    -0.399 OA
HETATM   17  H   UNK N   1       0.776   0.773  -2.514  0.00  0.00     0.209 HD
ENDBRANCH  15  16
ENDBRANCH   9  15
BRANCH  11  18
HETATM   18  N   UNK N   1      -1.305  -0.335   1.453  0.00  0.00    -0.255 N 
HETATM   19  H   UNK N   1      -2.067  -0.695   1.963  0.00  0.00     0.195 HD
BRANCH  18  20
HETATM   20  O   UNK N   1      -0.075  -0.834   1.655  0.00  0.00    -0.288 OA
HETATM   21  H   UNK N   1       0.058  -1.784   1.801  0.00  0.00     0.244 HD
ENDBRANCH  18  20
ENDBRANCH  11  18
BRANCH  13  22
HETATM   22  O   UNK N   1      -3.361   0.940  -1.009  0.00  0.00    -0.385 OA
HETATM   23  H   UNK N   1      -3.698   1.099  -1.905  0.00  0.00     0.210 HD
ENDBRANCH  13  22
BRANCH  14  24
HETATM   24  O   UNK N   1      -4.048   3.400   0.342  0.00  0.00    -0.390 OA
HETATM   25  H   UNK N   1      -4.101   4.365   0.252  0.00  0.00     0.210 HD
ENDBRANCH  14  24
ENDBRANCH   7   8
ENDBRANCH   5   7
BRANCH   3  26
HETATM   26  O   UNK N   1      -0.796   6.792   1.676  0.00  0.00    -0.388 OA
HETATM   27  H   UNK N   1      -1.011   6.924   2.613  0.00  0.00     0.210 HD
ENDBRANCH   3  26
BRANCH   2  28
HETATM   28  O   UNK N   1       1.239   7.883  -1.142  0.00  0.00    -0.390 OA
HETATM   29  H   UNK N   1       1.557   7.877  -2.058  0.00  0.00     0.210 HD
ENDBRANCH   2  28
BRANCH   1  30
HETATM   30  C   UNK N   1       1.589   3.790   0.636  0.00  0.00     0.198 C 
BRANCH  30  31
HETATM   31  O   UNK N   1       0.844   3.911   1.813  0.00  0.00    -0.398 OA
HETATM   32  H   UNK N   1       0.659   4.401   2.629  0.00  0.00     0.209 HD
ENDBRANCH  30  31
ENDBRANCH   1  30
BRANCH   4  33
HETATM   33  O   UNK N   1       3.325   6.495   0.789  0.00  0.00    -0.348 OA
BRANCH  33  34
HETATM   34  C   UNK N   1       4.154   6.849  -0.317  0.00  0.00     0.292 C 
HETATM   35  C   UNK N   1       5.502   7.351   0.233  0.00  0.00     0.204 C 
HETATM   36  C   UNK N   1       6.256   6.194   0.916  0.00  0.00     0.183 C 
HETATM   37  C   UNK N   1       6.498   5.104  -0.132  0.00  0.00     0.180 C 
HETATM   38  C   UNK N   1       5.176   4.686  -0.803  0.00  0.00     0.179 C 
HETATM   39  O   UNK N   1       4.376   5.787  -1.256  0.00  0.00    -0.348 OA
BRANCH  35  40
HETATM   40  O   UNK N   1       5.300   8.399   1.133  0.00  0.00    -0.388 OA
HETATM   41  H   UNK N   1       5.861   8.885   1.759  0.00  0.00     0.210 HD
ENDBRANCH  35  40
BRANCH  36  42
HETATM   42  O   UNK N   1       5.523   5.685   1.996  0.00  0.00    -0.390 OA
HETATM   43  H   UNK N   1       4.964   5.949   2.743  0.00  0.00     0.210 HD
ENDBRANCH  36  42
BRANCH  37  44
HETATM   44  O   UNK N   1       7.369   5.594  -1.109  0.00  0.00    -0.390 OA
HETATM   45  H   UNK N   1       7.966   5.241  -1.787  0.00  0.00     0.210 HD
ENDBRANCH  37  44
BRANCH  38  46
HETATM   46  C   UNK N   1       4.390   3.711   0.062  0.00  0.00     0.198 C 
BRANCH  46  47
HETATM   47  O   UNK N   1       5.017   2.463   0.106  0.00  0.00    -0.398 OA
HETATM   48  H   UNK N   1       4.484   1.653   0.137  0.00  0.00     0.209 HD
ENDBRANCH  46  47
ENDBRANCH  38  46
ENDBRANCH  33  34
ENDBRANCH   4  33
TORSDOF 19
