REMARK  9 active torsions:
REMARK  status: ('A' for Active; 'I' for Inactive)
REMARK    1  A    between atoms: C_4  and  C_3 
REMARK    2  A    between atoms: O_15  and  C_3 
REMARK    3  A    between atoms: C_6  and  O_16 
REMARK    4  A    between atoms: C_7  and  O_22 
REMARK    5  A    between atoms: C_8  and  N_14 
REMARK    6  A    between atoms: O_17  and  C_9 
REMARK    7  A    between atoms: P_23  and  O_18 
REMARK    8  A    between atoms: P_23  and  O_19 
REMARK    9  A    between atoms: P_23  and  O_22 
ROOT
HETATM    1  C   UNK N   1       4.096  -0.231  -0.704  0.00  0.00     0.180 C 
HETATM    2  C   UNK N   1       2.077  -0.194   0.384  0.00  0.00     0.199 C 
HETATM    3  C   UNK N   1       3.355   0.623   0.327  0.00  0.00     0.197 C 
HETATM    4  C   UNK N   1       2.703  -1.590   0.461  0.00  0.00     0.262 C 
HETATM    5  O   UNK N   1       3.756  -1.589  -0.484  0.00  0.00    -0.353 OA
ENDROOT
BRANCH   4   6
HETATM    6  N   UNK N   1       1.827  -2.772   0.255  0.00  0.00    -0.293 N 
HETATM    7  C   UNK N   1       2.459  -3.982   0.307  0.00  0.00     0.101 A 
HETATM    8  C   UNK N   1       1.760  -5.172   0.144  0.00  0.00     0.065 A 
HETATM    9  C   UNK N   1       0.393  -5.111  -0.070  0.00  0.00     0.102 A 
HETATM   10  N   UNK N   1      -0.281  -6.186  -0.217  0.00  0.00    -0.385 N 
HETATM   11  N   UNK N   1      -0.227  -3.908  -0.117  0.00  0.00    -0.308 N 
HETATM   12  H   UNK N   1      -1.258  -6.151  -0.331  0.00  0.00     0.157 HD
ATOM     13  HN  UNK N   1       0.196  -7.088  -0.217  1.00  0.00     0.157 HD
HETATM   14  C   UNK N   1       0.461  -2.744   0.041  0.00  0.00     0.227 A 
ATOM     15  HN  UNK N   1      -1.234  -3.873  -0.275  1.00  0.00     0.171 HD
BRANCH  14  16
HETATM   16  O   UNK N   1      -0.224  -1.592  -0.006  0.00  0.00    -0.332 OA
HETATM   17  H   UNK N   1       0.233  -0.775  -0.038  0.00  0.00     0.221 HD
ENDBRANCH  14  16
ENDBRANCH   4   6
BRANCH   2  18
HETATM   18  O   UNK N   1       1.298   0.093   1.509  0.00  0.00    -0.388 OA
HETATM   19  H   UNK N   1       1.200   0.661   2.289  0.00  0.00     0.210 HD
ENDBRANCH   2  18
BRANCH   3  20
HETATM   20  O   UNK N   1       3.367   1.988  -0.083  0.00  0.00    -0.286 OA
BRANCH  20  21
HETATM   21  P   UNK N   1       1.809   2.798  -0.148  0.00  0.00     0.391 P 
HETATM   22  O   UNK N   1       0.924   2.128  -1.232  0.00  0.00    -0.632 OA
BRANCH  21  23
HETATM   23  O   UNK N   1       0.947   2.803   1.359  0.00  0.00    -0.307 OA
HETATM   24  H   UNK N   1       0.709   3.222   2.201  0.00  0.00     0.222 HD
ENDBRANCH  21  23
BRANCH  21  25
HETATM   25  O   UNK N   1       2.039   4.430  -0.689  0.00  0.00    -0.307 OA
HETATM   26  H   UNK N   1       2.894   4.775  -0.992  0.00  0.00     0.222 HD
ENDBRANCH  21  25
ENDBRANCH  20  21
ENDBRANCH   3  20
BRANCH   1  27
HETATM   27  C   UNK N   1       5.608  -0.035  -0.655  0.00  0.00     0.198 C 
BRANCH  27  28
HETATM   28  O   UNK N   1       6.131  -0.542   0.536  0.00  0.00    -0.398 OA
HETATM   29  H   UNK N   1       6.008  -1.033   1.363  0.00  0.00     0.209 HD
ENDBRANCH  27  28
ENDBRANCH   1  27
TORSDOF 9
