REMARK  21 active torsions:
REMARK  status: ('A' for Active; 'I' for Inactive)
REMARK    1  A    between atoms: C_3  and  C_2 
REMARK    2  A    between atoms: C_4  and  C_3 
REMARK    3  A    between atoms: C_5  and  C_4 
REMARK    4  A    between atoms: C_6  and  C_5 
REMARK    5  A    between atoms: C_7  and  C_6 
REMARK    6  A    between atoms: C_8  and  C_7 
REMARK    7  A    between atoms: C_15  and  C_8 
REMARK    8  A    between atoms: C_10  and  C_9 
REMARK    9  A    between atoms: N_18  and  C_9 
REMARK   10  A    between atoms: O_19  and  C_10 
REMARK   11  A    between atoms: C_13  and  C_11 
REMARK   12  A    between atoms: N_18  and  C_11 
REMARK   13  A    between atoms: C_14  and  C_12 
REMARK   14  A    between atoms: O_20  and  C_12 
REMARK   15  A    between atoms: C_16  and  C_13 
REMARK   16  A    between atoms: C_13  and  O_21 
REMARK   17  A    between atoms: C_17  and  C_14 
REMARK   18  A    between atoms: C_14  and  O_22 
REMARK       I    between atoms: N_18  and  C_15 
REMARK   19  A    between atoms: C_17  and  C_16 
REMARK   20  A    between atoms: C_16  and  O_24 
REMARK   21  A    between atoms: C_17  and  O_25 
ROOT
HETATM    1  C   UNK N   1      10.989   3.117  -0.989  0.00  0.00     0.160 C 
ENDROOT
BRANCH   1   2
HETATM    2  C   UNK N   1      12.083   3.020   0.080  0.00  0.00     0.167 C 
BRANCH   2   3
HETATM    3  C   UNK N   1      13.415   3.534  -0.493  0.00  0.00     0.179 C 
BRANCH   3   4
HETATM    4  C   UNK N   1      14.589   3.362   0.504  0.00  0.00     0.180 C 
BRANCH   4   5
HETATM    5  C   UNK N   1      15.918   3.892  -0.065  0.00  0.00     0.173 C 
BRANCH   5   6
HETATM    6  C   UNK N   1      17.056   3.609   0.909  0.00  0.00     0.198 C 
BRANCH   6   7
HETATM    7  O   UNK N   1      18.275   4.006   0.358  0.00  0.00    -0.398 OA
HETATM    8  H   UNK N   1      18.938   3.411  -0.025  0.00  0.00     0.209 HD
ENDBRANCH   6   7
ENDBRANCH   5   6
BRANCH   5   9
HETATM    9  O   UNK N   1      15.844   5.270  -0.284  0.00  0.00    -0.391 OA
HETATM   10  H   UNK N   1      16.647   5.793  -0.436  0.00  0.00     0.210 HD
ENDBRANCH   5   9
ENDBRANCH   4   5
BRANCH   4  11
HETATM   11  O   UNK N   1      14.753   2.003   0.797  0.00  0.00    -0.390 OA
HETATM   12  H   UNK N   1      13.994   1.434   1.001  0.00  0.00     0.210 HD
ENDBRANCH   4  11
ENDBRANCH   3   4
BRANCH   3  13
HETATM   13  O   UNK N   1      13.261   4.884  -0.827  0.00  0.00    -0.390 OA
HETATM   14  H   UNK N   1      14.018   5.445  -1.058  0.00  0.00     0.210 HD
ENDBRANCH   3  13
ENDBRANCH   2   3
BRANCH   2  15
HETATM   15  O   UNK N   1      12.206   1.688   0.478  0.00  0.00    -0.391 OA
HETATM   16  H   UNK N   1      11.448   1.151   0.755  0.00  0.00     0.210 HD
ENDBRANCH   2  15
ENDBRANCH   1   2
BRANCH   1  17
HETATM   17  N   UNK N   1       9.717   2.607  -0.509  0.00  0.00    -0.348 N 
HETATM   18  C   UNK N   1       8.986   3.339   0.401  0.00  0.00     0.219 C 
HETATM   19  O   UNK N   1       9.426   4.407   0.795  0.00  0.00    -0.273 OA
BRANCH  17  20
HETATM   20  C   UNK N   1       9.243   1.366  -1.077  0.00  0.00     0.151 C 
BRANCH  20  21
HETATM   21  C   UNK N   1      10.113   0.189  -0.677  0.00  0.00     0.183 C 
BRANCH  21  22
HETATM   22  O   UNK N   1       9.613  -0.977  -1.254  0.00  0.00    -0.399 OA
HETATM   23  H   UNK N   1       8.737  -1.081  -1.656  0.00  0.00     0.209 HD
ENDBRANCH  21  22
ENDBRANCH  20  21
ENDBRANCH  17  20
BRANCH  18  24
HETATM   24  C   UNK N   1       7.641   2.920   0.977  0.00  0.00     0.103 C 
BRANCH  24  25
HETATM   25  C   UNK N   1       6.909   1.668   0.492  0.00  0.00     0.009 C 
BRANCH  25  26
HETATM   26  C   UNK N   1       6.384   1.787  -0.942  0.00  0.00     0.000 C 
BRANCH  26  27
HETATM   27  C   UNK N   1       5.750   3.138  -1.253  0.00  0.00     0.000 C 
BRANCH  27  28
HETATM   28  C   UNK N   1       4.288   3.162  -0.852  0.00  0.00     0.000 C 
BRANCH  28  29
HETATM   29  C   UNK N   1       4.151   3.233   0.657  0.00  0.00    -0.000 C 
BRANCH  29  30
HETATM   30  C   UNK N   1       2.738   2.873   1.068  0.00  0.00    -0.005 C 
HETATM   31  C   UNK N   1       1.824   4.069   0.903  0.00  0.00     0.005 C 
ENDBRANCH  29  30
ENDBRANCH  28  29
ENDBRANCH  27  28
ENDBRANCH  26  27
ENDBRANCH  25  26
ENDBRANCH  24  25
ENDBRANCH  18  24
ENDBRANCH   1  17
TORSDOF 21
