MODEL 1
REMARK VINA RESULT:      -8.0      0.000      0.000
REMARK  16 active torsions:
REMARK  status: ('A' for Active; 'I' for Inactive)
REMARK    1  A    between atoms: C_41  and  C_25 
REMARK    2  A    between atoms: C_42  and  C_26 
REMARK    3  A    between atoms: C_43  and  C_27 
REMARK    4  A    between atoms: C_44  and  C_28 
REMARK    5  A    between atoms: S_63  and  C_29 
REMARK    6  A    between atoms: S_64  and  C_30 
REMARK    7  A    between atoms: S_65  and  C_31 
REMARK    8  A    between atoms: S_66  and  C_32 
REMARK    9  A    between atoms: S_64  and  O_55 
REMARK   10  A    between atoms: S_64  and  O_56 
REMARK   11  A    between atoms: S_65  and  O_57 
REMARK   12  A    between atoms: S_65  and  O_58 
REMARK   13  A    between atoms: S_65  and  O_59 
REMARK   14  A    between atoms: S_66  and  O_60 
REMARK   15  A    between atoms: S_66  and  O_61 
REMARK   16  A    between atoms: S_66  and  O_62 
ROOT
HETATM    1  C   UNK N   1      38.074  13.476   9.191  0.00  0.00     0.033 A 
HETATM    2  C   UNK N   1      33.174  14.309   9.270  0.00  0.00     0.033 A 
HETATM    3  C   UNK N   1      38.950  13.147   8.215  0.00  0.00     0.033 A 
HETATM    4  C   UNK N   1      32.320  14.760   8.380  0.00  0.00     0.033 A 
HETATM    5  C   UNK N   1      38.522  11.997   3.400  0.00  0.00     0.033 A 
HETATM    6  C   UNK N   1      32.737  15.519   3.500  0.00  0.00     0.033 A 
HETATM    7  C   UNK N   1      37.642  12.188   2.449  0.00  0.00     0.033 A 
HETATM    8  C   UNK N   1      33.547  15.056   2.517  0.00  0.00     0.033 A 
HETATM    9  C   UNK N   1      36.858  13.655   8.568  0.00  0.00     0.046 A 
HETATM   10  C   UNK N   1      34.426  14.005   8.550  0.00  0.00     0.046 A 
HETATM   11  C   UNK N   1      38.227  13.124   7.034  0.00  0.00     0.046 A 
HETATM   12  C   UNK N   1      33.033  14.727   7.106  0.00  0.00     0.046 A 
HETATM   13  C   UNK N   1      37.980  12.620   4.618  0.00  0.00     0.046 A 
HETATM   14  C   UNK N   1      33.218  14.979   4.672  0.00  0.00     0.046 A 
HETATM   15  C   UNK N   1      36.552  12.943   3.061  0.00  0.00     0.046 A 
HETATM   16  C   UNK N   1      34.482  14.248   3.131  0.00  0.00     0.046 A 
HETATM   17  C   UNK N   1      35.704  13.814   9.228  0.00  0.00     0.028 C 
HETATM   18  C   UNK N   1      38.724  12.667   5.874  0.00  0.00     0.028 C 
HETATM   19  C   UNK N   1      32.534  15.134   5.948  0.00  0.00     0.028 C 
HETATM   20  C   UNK N   1      35.532  13.516   2.407  0.00  0.00     0.028 C 
HETATM   21  N   UNK N   1      36.959  13.506   7.234  0.00  0.00    -0.355 N 
HETATM   22  N   UNK N   1      34.318  14.234   7.303  0.00  0.00    -0.355 N 
ATOM     23  HN  UNK N   1      35.032  14.085   6.589  1.00  0.00     0.166 HD
HETATM   24  N   UNK N   1      36.821  13.110   4.423  0.00  0.00    -0.355 N 
ATOM     25  HN  UNK N   1      36.212  13.538   5.120  1.00  0.00     0.166 HD
HETATM   26  N   UNK N   1      34.294  14.212   4.457  0.00  0.00    -0.355 N 
HETATM   27  H   UNK N   1      36.259  13.647   6.557  0.00  0.00     0.166 HD
HETATM   28  H   UNK N   1      34.829  13.727   5.126  0.00  0.00     0.166 HD
ENDROOT
BRANCH  19  29
HETATM   29  C   UNK N   1      31.208  15.702   5.932  0.00  0.00    -0.021 A 
HETATM   30  C   UNK N   1      30.101  14.904   5.626  0.00  0.00     0.014 A 
HETATM   31  C   UNK N   1      28.843  15.483   5.590  0.00  0.00     0.024 A 
HETATM   32  C   UNK N   1      28.714  16.857   5.820  0.00  0.00     0.056 A 
HETATM   33  C   UNK N   1      29.824  17.645   6.106  0.00  0.00     0.024 A 
HETATM   34  C   UNK N   1      31.071  17.063   6.178  0.00  0.00     0.014 A 
BRANCH  32  35
HETATM   35  S   UNK N   1      27.066  17.636   5.753  0.00  0.00     0.115 S 
BRANCH  35  36
HETATM   36  O   UNK N   1      25.513  18.417   5.687  0.00  0.00    -0.304 OA
HETATM   37  H   UNK N   1      24.920  18.255   4.937  0.00  0.00     0.230 HD
ENDBRANCH  35  36
BRANCH  35  38
HETATM   38  O   UNK N   1      27.670  18.802   4.583  0.00  0.00    -0.304 OA
HETATM   39  H   UNK N   1      28.451  18.598   4.044  0.00  0.00     0.230 HD
ENDBRANCH  35  38
BRANCH  35  40
HETATM   40  O   UNK N   1      26.423  16.437   6.862  0.00  0.00    -0.304 OA
HETATM   41  H   UNK N   1      25.577  15.998   6.685  0.00  0.00     0.230 HD
ENDBRANCH  35  40
ENDBRANCH  32  35
ENDBRANCH  19  29
BRANCH  17  42
HETATM   42  C   UNK N   1      35.686  13.815  10.691  0.00  0.00    -0.021 A 
HETATM   43  C   UNK N   1      35.308  12.665  11.386  0.00  0.00     0.014 A 
HETATM   44  C   UNK N   1      35.325  12.661  12.767  0.00  0.00     0.027 A 
HETATM   45  C   UNK N   1      35.693  13.813  13.455  0.00  0.00     0.080 A 
HETATM   46  C   UNK N   1      36.051  14.974  12.774  0.00  0.00     0.027 A 
HETATM   47  C   UNK N   1      36.062  14.970  11.388  0.00  0.00     0.014 A 
BRANCH  45  48
HETATM   48  S   UNK N   1      35.686  13.791  15.281  0.00  0.00     0.137 S 
HETATM   49  O   UNK N   1      35.688  13.770  17.020  0.00  0.00    -0.591 OA
HETATM   50  O   UNK N   1      37.187  14.698  15.303  0.00  0.00    -0.591 OA
HETATM   51  O   UNK N   1      34.192  12.865  15.275  0.00  0.00    -0.591 OA
ENDBRANCH  45  48
ENDBRANCH  17  42
BRANCH  20  52
HETATM   52  C   UNK N   1      35.515  13.521   0.925  0.00  0.00    -0.021 A 
HETATM   53  C   UNK N   1      34.767  12.585   0.207  0.00  0.00     0.014 A 
HETATM   54  C   UNK N   1      34.699  12.657  -1.173  0.00  0.00     0.024 A 
HETATM   55  C   UNK N   1      35.345  13.694  -1.851  0.00  0.00     0.056 A 
HETATM   56  C   UNK N   1      36.062  14.651  -1.138  0.00  0.00     0.024 A 
HETATM   57  C   UNK N   1      36.144  14.562   0.234  0.00  0.00     0.014 A 
BRANCH  55  58
HETATM   58  S   UNK N   1      35.367  13.712  -3.697  0.00  0.00     0.115 S 
BRANCH  58  59
HETATM   59  O   UNK N   1      35.312  13.798  -5.435  0.00  0.00    -0.304 OA
HETATM   60  H   UNK N   1      35.761  14.521  -5.901  0.00  0.00     0.230 HD
ENDBRANCH  58  59
BRANCH  58  61
HETATM   61  O   UNK N   1      36.846  14.655  -3.706  0.00  0.00    -0.304 OA
HETATM   62  H   UNK N   1      36.860  15.554  -3.343  0.00  0.00     0.230 HD
ENDBRANCH  58  61
BRANCH  58  63
HETATM   63  O   UNK N   1      33.897  12.748  -3.735  0.00  0.00    -0.304 OA
HETATM   64  H   UNK N   1      33.934  11.788  -3.596  0.00  0.00     0.230 HD
ENDBRANCH  58  63
ENDBRANCH  55  58
ENDBRANCH  20  52
BRANCH  18  65
HETATM   65  C   UNK N   1      40.031  12.019   5.879  0.00  0.00    -0.021 A 
HETATM   66  C   UNK N   1      41.205  12.698   5.535  0.00  0.00     0.014 A 
HETATM   67  C   UNK N   1      42.415  12.016   5.570  0.00  0.00     0.025 A 
HETATM   68  C   UNK N   1      42.429  10.652   5.880  0.00  0.00     0.064 A 
HETATM   69  C   UNK N   1      41.249   9.966   6.135  0.00  0.00     0.025 A 
HETATM   70  C   UNK N   1      40.060  10.646   6.134  0.00  0.00     0.014 A 
BRANCH  68  71
HETATM   71  S   UNK N   1      44.009   9.808   6.249  0.00  0.00     0.122 S 
HETATM   72  O   UNK N   1      45.539   9.049   6.579  0.00  0.00    -0.604 OA
BRANCH  71  73
HETATM   73  O   UNK N   1      44.644  11.308   6.918  0.00  0.00    -0.298 OA
HETATM   74  H   UNK N   1      44.759  11.425   7.873  0.00  0.00     0.231 HD
ENDBRANCH  71  73
BRANCH  71  75
HETATM   75  O   UNK N   1      43.411   8.308   5.563  0.00  0.00    -0.298 OA
HETATM   76  H   UNK N   1      42.887   7.689   6.095  0.00  0.00     0.231 HD
ENDBRANCH  71  75
ENDBRANCH  68  71
ENDBRANCH  18  65
TORSDOF 16
ENDMDL
MODEL 2
REMARK VINA RESULT:      -7.9      7.286     11.456
REMARK  16 active torsions:
REMARK  status: ('A' for Active; 'I' for Inactive)
REMARK    1  A    between atoms: C_41  and  C_25 
REMARK    2  A    between atoms: C_42  and  C_26 
REMARK    3  A    between atoms: C_43  and  C_27 
REMARK    4  A    between atoms: C_44  and  C_28 
REMARK    5  A    between atoms: S_63  and  C_29 
REMARK    6  A    between atoms: S_64  and  C_30 
REMARK    7  A    between atoms: S_65  and  C_31 
REMARK    8  A    between atoms: S_66  and  C_32 
REMARK    9  A    between atoms: S_64  and  O_55 
REMARK   10  A    between atoms: S_64  and  O_56 
REMARK   11  A    between atoms: S_65  and  O_57 
REMARK   12  A    between atoms: S_65  and  O_58 
REMARK   13  A    between atoms: S_65  and  O_59 
REMARK   14  A    between atoms: S_66  and  O_60 
REMARK   15  A    between atoms: S_66  and  O_61 
REMARK   16  A    between atoms: S_66  and  O_62 
ROOT
HETATM    1  C   UNK N   1      30.202  13.979   2.800  0.00  0.00     0.033 A 
HETATM    2  C   UNK N   1      27.140  15.458   6.425  0.00  0.00     0.033 A 
HETATM    3  C   UNK N   1      30.106  13.061   1.812  0.00  0.00     0.033 A 
HETATM    4  C   UNK N   1      25.832  15.499   6.543  0.00  0.00     0.033 A 
HETATM    5  C   UNK N   1      26.726   9.640   0.561  0.00  0.00     0.033 A 
HETATM    6  C   UNK N   1      22.212  13.518   3.798  0.00  0.00     0.033 A 
HETATM    7  C   UNK N   1      25.451   9.435   0.781  0.00  0.00     0.033 A 
HETATM    8  C   UNK N   1      22.120  12.493   2.916  0.00  0.00     0.033 A 
HETATM    9  C   UNK N   1      28.979  13.987   3.435  0.00  0.00     0.046 A 
HETATM   10  C   UNK N   1      27.439  14.638   5.236  0.00  0.00     0.046 A 
HETATM   11  C   UNK N   1      28.829  12.532   1.895  0.00  0.00     0.046 A 
HETATM   12  C   UNK N   1      25.317  14.697   5.436  0.00  0.00     0.046 A 
HETATM   13  C   UNK N   1      27.088  10.882   1.263  0.00  0.00     0.046 A 
HETATM   14  C   UNK N   1      23.544  13.606   4.138  0.00  0.00     0.046 A 
HETATM   15  C   UNK N   1      25.004  10.554   1.608  0.00  0.00     0.046 A 
HETATM   16  C   UNK N   1      23.398  11.996   2.762  0.00  0.00     0.046 A 
HETATM   17  C   UNK N   1      28.743  14.640   4.579  0.00  0.00     0.028 C 
HETATM   18  C   UNK N   1      28.424  11.467   1.186  0.00  0.00     0.028 C 
HETATM   19  C   UNK N   1      24.033  14.508   5.171  0.00  0.00     0.028 C 
HETATM   20  C   UNK N   1      23.731  10.845   1.910  0.00  0.00     0.028 C 
HETATM   21  N   UNK N   1      28.109  13.148   2.842  0.00  0.00    -0.355 N 
HETATM   22  N   UNK N   1      26.379  14.193   4.692  0.00  0.00    -0.355 N 
ATOM     23  HN  UNK N   1      26.318  13.587   3.874  1.00  0.00     0.166 HD
HETATM   24  N   UNK N   1      26.102  11.365   1.908  0.00  0.00    -0.355 N 
ATOM     25  HN  UNK N   1      26.112  12.181   2.521  1.00  0.00     0.166 HD
HETATM   26  N   UNK N   1      24.279  12.688   3.498  0.00  0.00    -0.355 N 
HETATM   27  H   UNK N   1      27.158  13.018   3.055  0.00  0.00     0.166 HD
HETATM   28  H   UNK N   1      25.252  12.552   3.556  0.00  0.00     0.166 HD
ENDROOT
BRANCH  19  29
HETATM   29  C   UNK N   1      23.055  15.175   5.995  0.00  0.00    -0.021 A 
HETATM   30  C   UNK N   1      22.462  14.507   7.071  0.00  0.00     0.014 A 
HETATM   31  C   UNK N   1      21.505  15.164   7.827  0.00  0.00     0.024 A 
HETATM   32  C   UNK N   1      21.126  16.463   7.474  0.00  0.00     0.056 A 
HETATM   33  C   UNK N   1      21.709  17.112   6.391  0.00  0.00     0.024 A 
HETATM   34  C   UNK N   1      22.687  16.473   5.661  0.00  0.00     0.014 A 
BRANCH  32  35
HETATM   35  S   UNK N   1      19.850  17.330   8.447  0.00  0.00     0.115 S 
BRANCH  35  36
HETATM   36  O   UNK N   1      18.663  18.186   9.388  0.00  0.00    -0.304 OA
HETATM   37  H   UNK N   1      18.926  18.636  10.206  0.00  0.00     0.230 HD
ENDBRANCH  35  36
BRANCH  35  38
HETATM   38  O   UNK N   1      20.524  18.875   7.944  0.00  0.00    -0.304 OA
HETATM   39  H   UNK N   1      20.182  19.704   8.313  0.00  0.00     0.230 HD
ENDBRANCH  35  38
BRANCH  35  40
HETATM   40  O   UNK N   1      19.117  15.802   8.901  0.00  0.00    -0.304 OA
HETATM   41  H   UNK N   1      19.661  15.009   9.035  0.00  0.00     0.230 HD
ENDBRANCH  35  40
ENDBRANCH  32  35
ENDBRANCH  19  29
BRANCH  17  42
HETATM   42  C   UNK N   1      29.809  15.410   5.222  0.00  0.00    -0.021 A 
HETATM   43  C   UNK N   1      30.710  14.774   6.077  0.00  0.00     0.014 A 
HETATM   44  C   UNK N   1      31.735  15.498   6.655  0.00  0.00     0.027 A 
HETATM   45  C   UNK N   1      31.844  16.862   6.400  0.00  0.00     0.080 A 
HETATM   46  C   UNK N   1      30.937  17.513   5.566  0.00  0.00     0.027 A 
HETATM   47  C   UNK N   1      29.926  16.781   4.964  0.00  0.00     0.014 A 
BRANCH  45  48
HETATM   48  S   UNK N   1      33.192  17.804   7.193  0.00  0.00     0.137 S 
HETATM   49  O   UNK N   1      34.482  18.696   7.944  0.00  0.00    -0.591 OA
HETATM   50  O   UNK N   1      34.203  17.557   5.781  0.00  0.00    -0.591 OA
HETATM   51  O   UNK N   1      32.199  18.042   8.623  0.00  0.00    -0.591 OA
ENDBRANCH  45  48
ENDBRANCH  17  42
BRANCH  20  52
HETATM   52  C   UNK N   1      22.630  10.076   1.284  0.00  0.00    -0.021 A 
HETATM   53  C   UNK N   1      22.259  10.295  -0.046  0.00  0.00     0.014 A 
HETATM   54  C   UNK N   1      21.284   9.510  -0.635  0.00  0.00     0.024 A 
HETATM   55  C   UNK N   1      20.696   8.467   0.085  0.00  0.00     0.056 A 
HETATM   56  C   UNK N   1      21.087   8.222   1.398  0.00  0.00     0.024 A 
HETATM   57  C   UNK N   1      22.043   9.019   1.988  0.00  0.00     0.014 A 
BRANCH  55  58
HETATM   58  S   UNK N   1      19.302   7.510  -0.656  0.00  0.00     0.115 S 
BRANCH  58  59
HETATM   59  O   UNK N   1      18.048   6.587  -1.435  0.00  0.00    -0.304 OA
HETATM   60  H   UNK N   1      17.470   6.012  -0.911  0.00  0.00     0.230 HD
ENDBRANCH  58  59
BRANCH  58  61
HETATM   61  O   UNK N   1      19.565   6.188   0.466  0.00  0.00    -0.304 OA
HETATM   62  H   UNK N   1      20.293   6.222   1.105  0.00  0.00     0.230 HD
ENDBRANCH  58  61
BRANCH  58  63
HETATM   63  O   UNK N   1      18.988   8.822  -1.786  0.00  0.00    -0.304 OA
HETATM   64  H   UNK N   1      18.148   9.305  -1.757  0.00  0.00     0.230 HD
ENDBRANCH  58  63
ENDBRANCH  55  58
ENDBRANCH  20  52
BRANCH  18  65
HETATM   65  C   UNK N   1      29.412  10.729   0.406  0.00  0.00    -0.021 A 
HETATM   66  C   UNK N   1      30.153   9.671   0.943  0.00  0.00     0.014 A 
HETATM   67  C   UNK N   1      31.071   9.012   0.136  0.00  0.00     0.025 A 
HETATM   68  C   UNK N   1      31.288   9.460  -1.172  0.00  0.00     0.064 A 
HETATM   69  C   UNK N   1      30.611  10.566  -1.668  0.00  0.00     0.025 A 
HETATM   70  C   UNK N   1      29.680  11.194  -0.883  0.00  0.00     0.014 A 
BRANCH  68  71
HETATM   71  S   UNK N   1      32.236   8.433  -2.352  0.00  0.00     0.122 S 
HETATM   72  O   UNK N   1      33.184   7.486  -3.461  0.00  0.00    -0.604 OA
BRANCH  71  73
HETATM   73  O   UNK N   1      33.505   8.236  -1.148  0.00  0.00    -0.298 OA
HETATM   74  H   UNK N   1      33.554   8.810  -0.368  0.00  0.00     0.231 HD
ENDBRANCH  71  73
BRANCH  71  75
HETATM   75  O   UNK N   1      31.000   8.637  -3.579  0.00  0.00    -0.298 OA
HETATM   76  H   UNK N   1      30.961   8.052  -4.352  0.00  0.00     0.231 HD
ENDBRANCH  71  75
ENDBRANCH  68  71
ENDBRANCH  18  65
TORSDOF 16
ENDMDL
MODEL 3
REMARK VINA RESULT:      -7.7      0.321     13.236
REMARK  16 active torsions:
REMARK  status: ('A' for Active; 'I' for Inactive)
REMARK    1  A    between atoms: C_41  and  C_25 
REMARK    2  A    between atoms: C_42  and  C_26 
REMARK    3  A    between atoms: C_43  and  C_27 
REMARK    4  A    between atoms: C_44  and  C_28 
REMARK    5  A    between atoms: S_63  and  C_29 
REMARK    6  A    between atoms: S_64  and  C_30 
REMARK    7  A    between atoms: S_65  and  C_31 
REMARK    8  A    between atoms: S_66  and  C_32 
REMARK    9  A    between atoms: S_64  and  O_55 
REMARK   10  A    between atoms: S_64  and  O_56 
REMARK   11  A    between atoms: S_65  and  O_57 
REMARK   12  A    between atoms: S_65  and  O_58 
REMARK   13  A    between atoms: S_65  and  O_59 
REMARK   14  A    between atoms: S_66  and  O_60 
REMARK   15  A    between atoms: S_66  and  O_61 
REMARK   16  A    between atoms: S_66  and  O_62 
ROOT
HETATM    1  C   UNK N   1      33.562  15.240   2.616  0.00  0.00     0.033 A 
HETATM    2  C   UNK N   1      37.468  12.168   2.536  0.00  0.00     0.033 A 
HETATM    3  C   UNK N   1      32.755  15.700   3.598  0.00  0.00     0.033 A 
HETATM    4  C   UNK N   1      38.400  11.867   3.413  0.00  0.00     0.033 A 
HETATM    5  C   UNK N   1      32.314  14.768   8.459  0.00  0.00     0.033 A 
HETATM    6  C   UNK N   1      38.806  12.845   8.255  0.00  0.00     0.033 A 
HETATM    7  C   UNK N   1      33.072  14.275   9.407  0.00  0.00     0.033 A 
HETATM    8  C   UNK N   1      37.945  13.166   9.251  0.00  0.00     0.033 A 
HETATM    9  C   UNK N   1      34.527  14.480   3.239  0.00  0.00     0.046 A 
HETATM   10  C   UNK N   1      36.422  12.915   3.260  0.00  0.00     0.046 A 
HETATM   11  C   UNK N   1      33.253  15.188   4.784  0.00  0.00     0.046 A 
HETATM   12  C   UNK N   1      37.929  12.415   4.683  0.00  0.00     0.046 A 
HETATM   13  C   UNK N   1      33.109  14.745   7.220  0.00  0.00     0.046 A 
HETATM   14  C   UNK N   1      38.053  12.800   7.103  0.00  0.00     0.046 A 
HETATM   15  C   UNK N   1      34.348  13.955   8.772  0.00  0.00     0.046 A 
HETATM   16  C   UNK N   1      36.703  13.296   8.664  0.00  0.00     0.046 A 
HETATM   17  C   UNK N   1      35.404  13.711   2.581  0.00  0.00     0.028 C 
HETATM   18  C   UNK N   1      32.611  15.286   5.958  0.00  0.00     0.028 C 
HETATM   19  C   UNK N   1      38.595  12.357   5.826  0.00  0.00     0.028 C 
HETATM   20  C   UNK N   1      35.474  13.606   9.410  0.00  0.00     0.028 C 
HETATM   21  N   UNK N   1      34.383  14.498   4.577  0.00  0.00    -0.355 N 
HETATM   22  N   UNK N   1      36.695  13.029   4.497  0.00  0.00    -0.355 N 
ATOM     23  HN  UNK N   1      36.124  13.481   5.211  1.00  0.00     0.166 HD
HETATM   24  N   UNK N   1      34.255  14.222   7.403  0.00  0.00    -0.355 N 
ATOM     25  HN  UNK N   1      34.963  14.035   6.693  1.00  0.00     0.166 HD
HETATM   26  N   UNK N   1      36.768  13.089   7.341  0.00  0.00    -0.355 N 
HETATM   27  H   UNK N   1      34.975  14.097   5.252  0.00  0.00     0.166 HD
HETATM   28  H   UNK N   1      36.033  13.138   6.689  0.00  0.00     0.166 HD
ENDROOT
BRANCH  19  29
HETATM   29  C   UNK N   1      39.907  11.756   5.828  0.00  0.00    -0.021 A 
HETATM   30  C   UNK N   1      40.060  10.394   6.101  0.00  0.00     0.014 A 
HETATM   31  C   UNK N   1      41.334   9.850   6.124  0.00  0.00     0.024 A 
HETATM   32  C   UNK N   1      42.439  10.684   5.915  0.00  0.00     0.056 A 
HETATM   33  C   UNK N   1      42.276  12.041   5.662  0.00  0.00     0.024 A 
HETATM   34  C   UNK N   1      41.007  12.575   5.602  0.00  0.00     0.014 A 
BRANCH  32  35
HETATM   35  S   UNK N   1      44.123   9.986   5.965  0.00  0.00     0.115 S 
BRANCH  35  36
HETATM   36  O   UNK N   1      45.714   9.285   6.034  0.00  0.00    -0.304 OA
HETATM   37  H   UNK N   1      45.827   8.367   6.328  0.00  0.00     0.230 HD
ENDBRANCH  35  36
BRANCH  35  38
HETATM   38  O   UNK N   1      43.467   8.392   5.614  0.00  0.00    -0.304 OA
HETATM   39  H   UNK N   1      43.859   7.600   6.014  0.00  0.00     0.230 HD
ENDBRANCH  35  38
BRANCH  35  40
HETATM   40  O   UNK N   1      44.805  11.578   6.243  0.00  0.00    -0.304 OA
HETATM   41  H   UNK N   1      45.013  12.167   5.501  0.00  0.00     0.230 HD
ENDBRANCH  35  40
ENDBRANCH  32  35
ENDBRANCH  19  29
BRANCH  17  42
HETATM   42  C   UNK N   1      35.379  13.651   1.119  0.00  0.00    -0.021 A 
HETATM   43  C   UNK N   1      36.125  14.563   0.370  0.00  0.00     0.014 A 
HETATM   44  C   UNK N   1      36.124  14.481  -1.008  0.00  0.00     0.027 A 
HETATM   45  C   UNK N   1      35.359  13.506  -1.641  0.00  0.00     0.080 A 
HETATM   46  C   UNK N   1      34.593  12.604  -0.905  0.00  0.00     0.027 A 
HETATM   47  C   UNK N   1      34.615  12.667   0.479  0.00  0.00     0.014 A 
BRANCH  45  48
HETATM   48  S   UNK N   1      35.356  13.431  -3.465  0.00  0.00     0.137 S 
HETATM   49  O   UNK N   1      35.358  13.367  -5.203  0.00  0.00    -0.591 OA
HETATM   50  O   UNK N   1      36.937  14.190  -3.505  0.00  0.00    -0.591 OA
HETATM   51  O   UNK N   1      33.763  12.689  -3.443  0.00  0.00    -0.591 OA
ENDBRANCH  45  48
ENDBRANCH  17  42
BRANCH  20  52
HETATM   52  C   UNK N   1      35.527  13.645  10.890  0.00  0.00    -0.021 A 
HETATM   53  C   UNK N   1      35.341  12.488  11.651  0.00  0.00     0.014 A 
HETATM   54  C   UNK N   1      35.475  12.531  13.028  0.00  0.00     0.024 A 
HETATM   55  C   UNK N   1      35.840  13.723  13.658  0.00  0.00     0.056 A 
HETATM   56  C   UNK N   1      36.063  14.870  12.901  0.00  0.00     0.024 A 
HETATM   57  C   UNK N   1      35.907  14.828  11.533  0.00  0.00     0.014 A 
BRANCH  55  58
HETATM   58  S   UNK N   1      35.886  13.811  15.502  0.00  0.00     0.115 S 
BRANCH  58  59
HETATM   59  O   UNK N   1      35.912  13.996  17.232  0.00  0.00    -0.304 OA
HETATM   60  H   UNK N   1      36.409  14.725  17.637  0.00  0.00     0.230 HD
ENDBRANCH  58  59
BRANCH  58  61
HETATM   61  O   UNK N   1      34.290  13.091  15.612  0.00  0.00    -0.304 OA
HETATM   62  H   UNK N   1      33.900  12.637  14.849  0.00  0.00     0.230 HD
ENDBRANCH  58  61
BRANCH  58  63
HETATM   63  O   UNK N   1      37.497  14.516  15.438  0.00  0.00    -0.304 OA
HETATM   64  H   UNK N   1      37.768  15.182  16.090  0.00  0.00     0.230 HD
ENDBRANCH  58  63
ENDBRANCH  55  58
ENDBRANCH  20  52
BRANCH  18  65
HETATM   65  C   UNK N   1      31.253  15.819   5.970  0.00  0.00    -0.021 A 
HETATM   66  C   UNK N   1      30.964  17.123   6.387  0.00  0.00     0.014 A 
HETATM   67  C   UNK N   1      29.646  17.563   6.364  0.00  0.00     0.025 A 
HETATM   68  C   UNK N   1      28.630  16.676   5.994  0.00  0.00     0.064 A 
HETATM   69  C   UNK N   1      28.917  15.358   5.666  0.00  0.00     0.025 A 
HETATM   70  C   UNK N   1      30.220  14.935   5.655  0.00  0.00     0.014 A 
BRANCH  68  71
HETATM   71  S   UNK N   1      26.946  17.300   5.643  0.00  0.00     0.122 S 
HETATM   72  O   UNK N   1      25.326  17.840   5.314  0.00  0.00    -0.604 OA
BRANCH  71  73
HETATM   73  O   UNK N   1      26.314  16.302   6.949  0.00  0.00    -0.298 OA
HETATM   74  H   UNK N   1      25.550  16.584   7.475  0.00  0.00     0.231 HD
ENDBRANCH  71  73
BRANCH  71  75
HETATM   75  O   UNK N   1      27.545  18.282   4.319  0.00  0.00    -0.298 OA
HETATM   76  H   UNK N   1      28.294  17.988   3.777  0.00  0.00     0.231 HD
ENDBRANCH  71  75
ENDBRANCH  68  71
ENDBRANCH  18  65
TORSDOF 16
ENDMDL
MODEL 4
REMARK VINA RESULT:      -7.6      7.177     15.324
REMARK  16 active torsions:
REMARK  status: ('A' for Active; 'I' for Inactive)
REMARK    1  A    between atoms: C_41  and  C_25 
REMARK    2  A    between atoms: C_42  and  C_26 
REMARK    3  A    between atoms: C_43  and  C_27 
REMARK    4  A    between atoms: C_44  and  C_28 
REMARK    5  A    between atoms: S_63  and  C_29 
REMARK    6  A    between atoms: S_64  and  C_30 
REMARK    7  A    between atoms: S_65  and  C_31 
REMARK    8  A    between atoms: S_66  and  C_32 
REMARK    9  A    between atoms: S_64  and  O_55 
REMARK   10  A    between atoms: S_64  and  O_56 
REMARK   11  A    between atoms: S_65  and  O_57 
REMARK   12  A    between atoms: S_65  and  O_58 
REMARK   13  A    between atoms: S_65  and  O_59 
REMARK   14  A    between atoms: S_66  and  O_60 
REMARK   15  A    between atoms: S_66  and  O_61 
REMARK   16  A    between atoms: S_66  and  O_62 
ROOT
HETATM    1  C   UNK N   1      22.315  12.770   2.528  0.00  0.00     0.033 A 
HETATM    2  C   UNK N   1      25.595   9.503   0.721  0.00  0.00     0.033 A 
HETATM    3  C   UNK N   1      22.404  13.796   3.406  0.00  0.00     0.033 A 
HETATM    4  C   UNK N   1      26.891   9.548   0.505  0.00  0.00     0.033 A 
HETATM    5  C   UNK N   1      26.016  15.582   6.312  0.00  0.00     0.033 A 
HETATM    6  C   UNK N   1      30.357  12.793   1.924  0.00  0.00     0.033 A 
HETATM    7  C   UNK N   1      27.324  15.531   6.347  0.00  0.00     0.033 A 
HETATM    8  C   UNK N   1      30.469  13.717   2.909  0.00  0.00     0.033 A 
HETATM    9  C   UNK N   1      23.598  12.293   2.368  0.00  0.00     0.046 A 
HETATM   10  C   UNK N   1      25.257  10.675   1.550  0.00  0.00     0.046 A 
HETATM   11  C   UNK N   1      23.739  13.892   3.759  0.00  0.00     0.046 A 
HETATM   12  C   UNK N   1      27.360  10.739   1.208  0.00  0.00     0.046 A 
HETATM   13  C   UNK N   1      25.587  14.796   5.145  0.00  0.00     0.046 A 
HETATM   14  C   UNK N   1      29.081  12.287   2.023  0.00  0.00     0.046 A 
HETATM   15  C   UNK N   1      27.722  14.726   5.195  0.00  0.00     0.046 A 
HETATM   16  C   UNK N   1      29.259  13.729   3.571  0.00  0.00     0.046 A 
HETATM   17  C   UNK N   1      23.891  11.164   1.712  0.00  0.00     0.028 C 
HETATM   18  C   UNK N   1      24.187  14.684   4.745  0.00  0.00     0.028 C 
HETATM   19  C   UNK N   1      28.613  11.168   1.217  0.00  0.00     0.028 C 
HETATM   20  C   UNK N   1      28.974  14.574   4.740  0.00  0.00     0.028 C 
HETATM   21  N   UNK N   1      24.487  13.020   3.070  0.00  0.00    -0.355 N 
HETATM   22  N   UNK N   1      26.288  11.363   1.836  0.00  0.00    -0.355 N 
ATOM     23  HN  UNK N   1      26.323  12.204   2.412  1.00  0.00     0.166 HD
HETATM   24  N   UNK N   1      26.575  14.261   4.546  0.00  0.00    -0.355 N 
ATOM     25  HN  UNK N   1      26.537  13.623   3.751  1.00  0.00     0.166 HD
HETATM   26  N   UNK N   1      28.397  12.863   3.020  0.00  0.00    -0.355 N 
HETATM   27  H   UNK N   1      25.467  12.932   3.074  0.00  0.00     0.166 HD
HETATM   28  H   UNK N   1      27.466  12.690   3.288  0.00  0.00     0.166 HD
ENDROOT
BRANCH  19  29
HETATM   29  C   UNK N   1      29.592  10.449   0.440  0.00  0.00    -0.021 A 
HETATM   30  C   UNK N   1      30.329   9.410   1.017  0.00  0.00     0.014 A 
HETATM   31  C   UNK N   1      31.283   8.756   0.254  0.00  0.00     0.024 A 
HETATM   32  C   UNK N   1      31.515   9.175  -1.060  0.00  0.00     0.056 A 
HETATM   33  C   UNK N   1      30.789  10.221  -1.619  0.00  0.00     0.024 A 
HETATM   34  C   UNK N   1      29.815  10.848  -0.873  0.00  0.00     0.014 A 
BRANCH  32  35
HETATM   35  S   UNK N   1      32.784   8.337  -2.068  0.00  0.00     0.115 S 
BRANCH  35  36
HETATM   36  O   UNK N   1      34.019   7.573  -3.025  0.00  0.00    -0.304 OA
HETATM   37  H   UNK N   1      34.954   7.692  -2.795  0.00  0.00     0.230 HD
ENDBRANCH  35  36
BRANCH  35  38
HETATM   38  O   UNK N   1      34.041   9.028  -1.050  0.00  0.00    -0.304 OA
HETATM   39  H   UNK N   1      34.786   9.506  -1.445  0.00  0.00     0.230 HD
ENDBRANCH  35  38
BRANCH  35  40
HETATM   40  O   UNK N   1      31.544   7.578  -3.050  0.00  0.00    -0.304 OA
HETATM   41  H   UNK N   1      31.781   7.003  -3.794  0.00  0.00     0.230 HD
ENDBRANCH  35  40
ENDBRANCH  32  35
ENDBRANCH  19  29
BRANCH  17  42
HETATM   42  C   UNK N   1      22.824  10.365   1.106  0.00  0.00    -0.021 A 
HETATM   43  C   UNK N   1      22.590  10.442  -0.268  0.00  0.00     0.014 A 
HETATM   44  C   UNK N   1      21.604   9.662  -0.839  0.00  0.00     0.027 A 
HETATM   45  C   UNK N   1      20.834   8.825  -0.037  0.00  0.00     0.080 A 
HETATM   46  C   UNK N   1      21.044   8.756   1.339  0.00  0.00     0.027 A 
HETATM   47  C   UNK N   1      22.051   9.518   1.909  0.00  0.00     0.014 A 
BRANCH  45  48
HETATM   48  S   UNK N   1      19.521   7.820  -0.811  0.00  0.00     0.137 S 
HETATM   49  O   UNK N   1      18.272   6.857  -1.543  0.00  0.00    -0.591 OA
HETATM   50  O   UNK N   1      19.146   7.101   0.744  0.00  0.00    -0.591 OA
HETATM   51  O   UNK N   1      19.898   8.517  -2.380  0.00  0.00    -0.591 OA
ENDBRANCH  45  48
ENDBRANCH  17  42
BRANCH  20  52
HETATM   52  C   UNK N   1      30.078  15.360   5.340  0.00  0.00    -0.021 A 
HETATM   53  C   UNK N   1      30.251  16.713   5.035  0.00  0.00     0.014 A 
HETATM   54  C   UNK N   1      31.238  17.449   5.669  0.00  0.00     0.024 A 
HETATM   55  C   UNK N   1      32.035  16.852   6.648  0.00  0.00     0.056 A 
HETATM   56  C   UNK N   1      31.842  15.514   6.982  0.00  0.00     0.024 A 
HETATM   57  C   UNK N   1      30.874  14.780   6.334  0.00  0.00     0.014 A 
BRANCH  55  58
HETATM   58  S   UNK N   1      33.437  17.795   7.393  0.00  0.00     0.115 S 
BRANCH  58  59
HETATM   59  O   UNK N   1      34.723  18.769   8.047  0.00  0.00    -0.304 OA
HETATM   60  H   UNK N   1      35.572  18.829   7.583  0.00  0.00     0.230 HD
ENDBRANCH  58  59
BRANCH  58  61
HETATM   61  O   UNK N   1      32.639  17.815   8.956  0.00  0.00    -0.304 OA
HETATM   62  H   UNK N   1      32.749  18.569   9.556  0.00  0.00     0.230 HD
ENDBRANCH  58  61
BRANCH  58  63
HETATM   63  O   UNK N   1      34.281  17.780   5.850  0.00  0.00    -0.304 OA
HETATM   64  H   UNK N   1      33.833  18.075   5.042  0.00  0.00     0.230 HD
ENDBRANCH  58  63
ENDBRANCH  55  58
ENDBRANCH  20  52
BRANCH  18  65
HETATM   65  C   UNK N   1      23.213  15.362   5.594  0.00  0.00    -0.021 A 
HETATM   66  C   UNK N   1      22.847  16.698   5.396  0.00  0.00     0.014 A 
HETATM   67  C   UNK N   1      21.907  17.274   6.241  0.00  0.00     0.025 A 
HETATM   68  C   UNK N   1      21.397  16.533   7.313  0.00  0.00     0.064 A 
HETATM   69  C   UNK N   1      21.832  15.236   7.554  0.00  0.00     0.025 A 
HETATM   70  C   UNK N   1      22.733  14.657   6.700  0.00  0.00     0.014 A 
BRANCH  68  71
HETATM   71  S   UNK N   1      19.940  17.135   8.239  0.00  0.00     0.122 S 
HETATM   72  O   UNK N   1      18.587  17.746   9.146  0.00  0.00    -0.604 OA
BRANCH  71  73
HETATM   73  O   UNK N   1      20.441  18.795   7.930  0.00  0.00    -0.298 OA
HETATM   74  H   UNK N   1      19.924  19.379   7.354  0.00  0.00     0.231 HD
ENDBRANCH  71  73
BRANCH  71  75
HETATM   75  O   UNK N   1      19.434  15.493   8.586  0.00  0.00    -0.298 OA
HETATM   76  H   UNK N   1      19.348  15.178   9.499  0.00  0.00     0.231 HD
ENDBRANCH  71  75
ENDBRANCH  68  71
ENDBRANCH  18  65
TORSDOF 16
ENDMDL
MODEL 5
REMARK VINA RESULT:      -7.6      0.534      9.465
REMARK  16 active torsions:
REMARK  status: ('A' for Active; 'I' for Inactive)
REMARK    1  A    between atoms: C_41  and  C_25 
REMARK    2  A    between atoms: C_42  and  C_26 
REMARK    3  A    between atoms: C_43  and  C_27 
REMARK    4  A    between atoms: C_44  and  C_28 
REMARK    5  A    between atoms: S_63  and  C_29 
REMARK    6  A    between atoms: S_64  and  C_30 
REMARK    7  A    between atoms: S_65  and  C_31 
REMARK    8  A    between atoms: S_66  and  C_32 
REMARK    9  A    between atoms: S_64  and  O_55 
REMARK   10  A    between atoms: S_64  and  O_56 
REMARK   11  A    between atoms: S_65  and  O_57 
REMARK   12  A    between atoms: S_65  and  O_58 
REMARK   13  A    between atoms: S_65  and  O_59 
REMARK   14  A    between atoms: S_66  and  O_60 
REMARK   15  A    between atoms: S_66  and  O_61 
REMARK   16  A    between atoms: S_66  and  O_62 
ROOT
HETATM    1  C   UNK N   1      37.409  11.955   2.468  0.00  0.00     0.033 A 
HETATM    2  C   UNK N   1      33.542  15.078   2.453  0.00  0.00     0.033 A 
HETATM    3  C   UNK N   1      38.233  11.493   3.435  0.00  0.00     0.033 A 
HETATM    4  C   UNK N   1      32.637  15.400   3.349  0.00  0.00     0.033 A 
HETATM    5  C   UNK N   1      38.804  12.466   8.274  0.00  0.00     0.033 A 
HETATM    6  C   UNK N   1      32.335  14.475   8.208  0.00  0.00     0.033 A 
HETATM    7  C   UNK N   1      38.076  12.978   9.236  0.00  0.00     0.033 A 
HETATM    8  C   UNK N   1      33.216  14.151   9.186  0.00  0.00     0.033 A 
HETATM    9  C   UNK N   1      36.469  12.734   3.107  0.00  0.00     0.046 A 
HETATM   10  C   UNK N   1      34.596  14.325   3.158  0.00  0.00     0.046 A 
HETATM   11  C   UNK N   1      37.771  12.024   4.628  0.00  0.00     0.046 A 
HETATM   12  C   UNK N   1      33.131  14.858   4.612  0.00  0.00     0.046 A 
HETATM   13  C   UNK N   1      37.980  12.488   7.055  0.00  0.00     0.046 A 
HETATM   14  C   UNK N   1      33.060  14.498   7.038  0.00  0.00     0.046 A 
HETATM   15  C   UNK N   1      36.790  13.309   8.629  0.00  0.00     0.046 A 
HETATM   16  C   UNK N   1      34.442  13.999   8.571  0.00  0.00     0.046 A 
HETATM   17  C   UNK N   1      35.587  13.508   2.463  0.00  0.00     0.028 C 
HETATM   18  C   UNK N   1      38.439  11.928   5.787  0.00  0.00     0.028 C 
HETATM   19  C   UNK N   1      32.493  14.937   5.771  0.00  0.00     0.028 C 
HETATM   20  C   UNK N   1      35.684  13.680   9.290  0.00  0.00     0.028 C 
HETATM   21  N   UNK N   1      36.645  12.726   4.442  0.00  0.00    -0.355 N 
HETATM   22  N   UNK N   1      34.352  14.225   4.403  0.00  0.00    -0.355 N 
ATOM     23  HN  UNK N   1      34.934  13.773   5.107  1.00  0.00     0.166 HD
HETATM   24  N   UNK N   1      36.846  13.028   7.261  0.00  0.00    -0.355 N 
ATOM     25  HN  UNK N   1      36.123  13.218   6.566  1.00  0.00     0.166 HD
HETATM   26  N   UNK N   1      34.347  14.194   7.249  0.00  0.00    -0.355 N 
HETATM   27  H   UNK N   1      36.075  13.142   5.127  0.00  0.00     0.166 HD
HETATM   28  H   UNK N   1      35.066  14.129   6.579  0.00  0.00     0.166 HD
ENDROOT
BRANCH  19  29
HETATM   29  C   UNK N   1      31.191  15.555   5.799  0.00  0.00    -0.021 A 
HETATM   30  C   UNK N   1      30.049  14.812   5.482  0.00  0.00     0.014 A 
HETATM   31  C   UNK N   1      28.814  15.440   5.490  0.00  0.00     0.024 A 
HETATM   32  C   UNK N   1      28.742  16.808   5.773  0.00  0.00     0.056 A 
HETATM   33  C   UNK N   1      29.886  17.541   6.068  0.00  0.00     0.024 A 
HETATM   34  C   UNK N   1      31.110  16.910   6.098  0.00  0.00     0.014 A 
BRANCH  32  35
HETATM   35  S   UNK N   1      27.124  17.651   5.764  0.00  0.00     0.115 S 
BRANCH  35  36
HETATM   36  O   UNK N   1      25.585  18.460   5.712  0.00  0.00    -0.304 OA
HETATM   37  H   UNK N   1      25.430  19.243   6.264  0.00  0.00     0.230 HD
ENDBRANCH  35  36
BRANCH  35  38
HETATM   38  O   UNK N   1      26.710  16.827   4.266  0.00  0.00    -0.304 OA
HETATM   39  H   UNK N   1      26.660  17.319   3.432  0.00  0.00     0.230 HD
ENDBRANCH  35  38
BRANCH  35  40
HETATM   40  O   UNK N   1      27.488  18.427   7.295  0.00  0.00    -0.304 OA
HETATM   41  H   UNK N   1      27.907  17.932   8.017  0.00  0.00     0.230 HD
ENDBRANCH  35  40
ENDBRANCH  32  35
ENDBRANCH  19  29
BRANCH  17  42
HETATM   42  C   UNK N   1      35.577  13.554   1.001  0.00  0.00    -0.021 A 
HETATM   43  C   UNK N   1      36.294  14.545   0.328  0.00  0.00     0.014 A 
HETATM   44  C   UNK N   1      36.308  14.564  -1.053  0.00  0.00     0.027 A 
HETATM   45  C   UNK N   1      35.585  13.610  -1.763  0.00  0.00     0.080 A 
HETATM   46  C   UNK N   1      34.848  12.629  -1.103  0.00  0.00     0.027 A 
HETATM   47  C   UNK N   1      34.856  12.592   0.282  0.00  0.00     0.014 A 
BRANCH  45  48
HETATM   48  S   UNK N   1      35.601  13.668  -3.588  0.00  0.00     0.137 S 
HETATM   49  O   UNK N   1      35.620  13.731  -5.326  0.00  0.00    -0.591 OA
HETATM   50  O   UNK N   1      37.159  14.472  -3.555  0.00  0.00    -0.591 OA
HETATM   51  O   UNK N   1      34.030  12.881  -3.637  0.00  0.00    -0.591 OA
ENDBRANCH  45  48
ENDBRANCH  17  42
BRANCH  20  52
HETATM   52  C   UNK N   1      35.667  13.655  10.771  0.00  0.00    -0.021 A 
HETATM   53  C   UNK N   1      35.449  12.466  11.472  0.00  0.00     0.014 A 
HETATM   54  C   UNK N   1      35.518  12.449  12.855  0.00  0.00     0.024 A 
HETATM   55  C   UNK N   1      35.848  13.614  13.552  0.00  0.00     0.056 A 
HETATM   56  C   UNK N   1      36.102  14.793  12.856  0.00  0.00     0.024 A 
HETATM   57  C   UNK N   1      36.011  14.810  11.482  0.00  0.00     0.014 A 
BRANCH  55  58
HETATM   58  S   UNK N   1      35.807  13.622  15.398  0.00  0.00     0.115 S 
BRANCH  58  59
HETATM   59  O   UNK N   1      35.755  13.733  17.134  0.00  0.00    -0.304 OA
HETATM   60  H   UNK N   1      36.574  13.852  17.639  0.00  0.00     0.230 HD
ENDBRANCH  58  59
BRANCH  58  61
HETATM   61  O   UNK N   1      34.179  12.967  15.400  0.00  0.00    -0.304 OA
HETATM   62  H   UNK N   1      34.031  12.016  15.518  0.00  0.00     0.230 HD
ENDBRANCH  58  61
BRANCH  58  63
HETATM   63  O   UNK N   1      37.446  14.259  15.442  0.00  0.00    -0.304 OA
HETATM   64  H   UNK N   1      37.620  15.184  15.207  0.00  0.00     0.230 HD
ENDBRANCH  58  63
ENDBRANCH  55  58
ENDBRANCH  20  52
BRANCH  18  65
HETATM   65  C   UNK N   1      39.790  11.376   5.772  0.00  0.00    -0.021 A 
HETATM   66  C   UNK N   1      40.910  12.148   5.444  0.00  0.00     0.014 A 
HETATM   67  C   UNK N   1      42.167  11.554   5.458  0.00  0.00     0.025 A 
HETATM   68  C   UNK N   1      42.280  10.187   5.728  0.00  0.00     0.064 A 
HETATM   69  C   UNK N   1      41.154   9.410   5.966  0.00  0.00     0.025 A 
HETATM   70  C   UNK N   1      39.919  10.003   5.987  0.00  0.00     0.014 A 
BRANCH  68  71
HETATM   71  S   UNK N   1      43.919   9.449   6.070  0.00  0.00     0.122 S 
HETATM   72  O   UNK N   1      45.501   8.795   6.377  0.00  0.00    -0.604 OA
BRANCH  71  73
HETATM   73  O   UNK N   1      44.423  10.948   6.844  0.00  0.00    -0.298 OA
HETATM   74  H   UNK N   1      44.059  11.804   6.571  0.00  0.00     0.231 HD
ENDBRANCH  71  73
BRANCH  71  75
HETATM   75  O   UNK N   1      43.452   7.955   5.279  0.00  0.00    -0.298 OA
HETATM   76  H   UNK N   1      42.542   7.812   4.976  0.00  0.00     0.231 HD
ENDBRANCH  71  75
ENDBRANCH  68  71
ENDBRANCH  18  65
TORSDOF 16
ENDMDL
MODEL 6
REMARK VINA RESULT:      -7.6      0.680      9.337
REMARK  16 active torsions:
REMARK  status: ('A' for Active; 'I' for Inactive)
REMARK    1  A    between atoms: C_41  and  C_25 
REMARK    2  A    between atoms: C_42  and  C_26 
REMARK    3  A    between atoms: C_43  and  C_27 
REMARK    4  A    between atoms: C_44  and  C_28 
REMARK    5  A    between atoms: S_63  and  C_29 
REMARK    6  A    between atoms: S_64  and  C_30 
REMARK    7  A    between atoms: S_65  and  C_31 
REMARK    8  A    between atoms: S_66  and  C_32 
REMARK    9  A    between atoms: S_64  and  O_55 
REMARK   10  A    between atoms: S_64  and  O_56 
REMARK   11  A    between atoms: S_65  and  O_57 
REMARK   12  A    between atoms: S_65  and  O_58 
REMARK   13  A    between atoms: S_65  and  O_59 
REMARK   14  A    between atoms: S_66  and  O_60 
REMARK   15  A    between atoms: S_66  and  O_61 
REMARK   16  A    between atoms: S_66  and  O_62 
ROOT
HETATM    1  C   UNK N   1      38.310  11.707   8.010  0.00  0.00     0.033 A 
HETATM    2  C   UNK N   1      38.867  12.769   3.187  0.00  0.00     0.033 A 
HETATM    3  C   UNK N   1      37.377  12.024   8.936  0.00  0.00     0.033 A 
HETATM    4  C   UNK N   1      38.022  13.026   2.215  0.00  0.00     0.033 A 
HETATM    5  C   UNK N   1      33.353  14.939   8.956  0.00  0.00     0.033 A 
HETATM    6  C   UNK N   1      33.168  14.025   2.247  0.00  0.00     0.033 A 
HETATM    7  C   UNK N   1      32.542  15.451   8.063  0.00  0.00     0.033 A 
HETATM    8  C   UNK N   1      32.282  14.484   3.165  0.00  0.00     0.033 A 
HETATM    9  C   UNK N   1      37.860  12.231   6.818  0.00  0.00     0.046 A 
HETATM   10  C   UNK N   1      38.105  12.833   4.448  0.00  0.00     0.046 A 
HETATM   11  C   UNK N   1      36.399  12.746   8.271  0.00  0.00     0.046 A 
HETATM   12  C   UNK N   1      36.737  13.262   2.869  0.00  0.00     0.046 A 
HETATM   13  C   UNK N   1      34.361  14.158   8.222  0.00  0.00     0.046 A 
HETATM   14  C   UNK N   1      34.363  13.877   2.914  0.00  0.00     0.046 A 
HETATM   15  C   UNK N   1      33.028  14.981   6.768  0.00  0.00     0.046 A 
HETATM   16  C   UNK N   1      32.978  14.603   4.350  0.00  0.00     0.046 A 
HETATM   17  C   UNK N   1      38.600  12.276   5.703  0.00  0.00     0.028 C 
HETATM   18  C   UNK N   1      35.397  13.381   8.897  0.00  0.00     0.028 C 
HETATM   19  C   UNK N   1      35.603  13.525   2.238  0.00  0.00     0.028 C 
HETATM   20  C   UNK N   1      32.386  15.109   5.598  0.00  0.00     0.028 C 
HETATM   21  N   UNK N   1      36.655  12.813   6.958  0.00  0.00    -0.355 N 
HETATM   22  N   UNK N   1      36.886  13.137   4.246  0.00  0.00    -0.355 N 
ATOM     23  HN  UNK N   1      36.162  13.265   4.953  1.00  0.00     0.166 HD
HETATM   24  N   UNK N   1      34.196  14.238   6.962  0.00  0.00    -0.355 N 
ATOM     25  HN  UNK N   1      34.796  13.840   6.239  1.00  0.00     0.166 HD
HETATM   26  N   UNK N   1      34.252  14.215   4.205  0.00  0.00    -0.355 N 
HETATM   27  H   UNK N   1      36.088  13.199   6.253  0.00  0.00     0.166 HD
HETATM   28  H   UNK N   1      34.953  14.184   4.896  0.00  0.00     0.166 HD
ENDROOT
BRANCH  19  29
HETATM   29  C   UNK N   1      35.604  13.534   0.796  0.00  0.00    -0.021 A 
HETATM   30  C   UNK N   1      35.968  14.689   0.096  0.00  0.00     0.014 A 
HETATM   31  C   UNK N   1      35.932  14.677  -1.289  0.00  0.00     0.024 A 
HETATM   32  C   UNK N   1      35.496  13.526  -1.953  0.00  0.00     0.056 A 
HETATM   33  C   UNK N   1      35.119  12.389  -1.247  0.00  0.00     0.024 A 
HETATM   34  C   UNK N   1      35.190  12.387   0.129  0.00  0.00     0.014 A 
BRANCH  32  35
HETATM   35  S   UNK N   1      35.422  13.505  -3.776  0.00  0.00     0.115 S 
BRANCH  35  36
HETATM   36  O   UNK N   1      35.373  13.523  -5.515  0.00  0.00    -0.304 OA
HETATM   37  H   UNK N   1      35.941  12.922  -6.022  0.00  0.00     0.230 HD
ENDBRANCH  35  36
BRANCH  35  38
HETATM   38  O   UNK N   1      37.055  14.157  -3.843  0.00  0.00    -0.304 OA
HETATM   39  H   UNK N   1      37.822  13.573  -3.741  0.00  0.00     0.230 HD
ENDBRANCH  35  38
BRANCH  35  40
HETATM   40  O   UNK N   1      33.823  12.786  -3.731  0.00  0.00    -0.304 OA
HETATM   41  H   UNK N   1      33.236  12.923  -2.971  0.00  0.00     0.230 HD
ENDBRANCH  35  40
ENDBRANCH  32  35
ENDBRANCH  19  29
BRANCH  17  42
HETATM   42  C   UNK N   1      39.962  11.742   5.700  0.00  0.00    -0.021 A 
HETATM   43  C   UNK N   1      40.186  10.400   5.388  0.00  0.00     0.014 A 
HETATM   44  C   UNK N   1      41.476   9.909   5.354  0.00  0.00     0.027 A 
HETATM   45  C   UNK N   1      42.542  10.750   5.658  0.00  0.00     0.080 A 
HETATM   46  C   UNK N   1      42.331  12.086   5.994  0.00  0.00     0.027 A 
HETATM   47  C   UNK N   1      41.039  12.586   6.000  0.00  0.00     0.014 A 
BRANCH  45  48
HETATM   48  S   UNK N   1      44.237  10.073   5.630  0.00  0.00     0.137 S 
HETATM   49  O   UNK N   1      45.849   9.420   5.601  0.00  0.00    -0.591 OA
HETATM   50  O   UNK N   1      43.728   8.829   4.503  0.00  0.00    -0.591 OA
HETATM   51  O   UNK N   1      44.758  11.301   6.774  0.00  0.00    -0.591 OA
ENDBRANCH  45  48
ENDBRANCH  17  42
BRANCH  20  52
HETATM   52  C   UNK N   1      31.011  15.657   5.566  0.00  0.00    -0.021 A 
HETATM   53  C   UNK N   1      30.780  17.023   5.381  0.00  0.00     0.014 A 
HETATM   54  C   UNK N   1      29.487  17.503   5.272  0.00  0.00     0.024 A 
HETATM   55  C   UNK N   1      28.407  16.617   5.305  0.00  0.00     0.056 A 
HETATM   56  C   UNK N   1      28.633  15.251   5.453  0.00  0.00     0.024 A 
HETATM   57  C   UNK N   1      29.921  14.780   5.582  0.00  0.00     0.014 A 
BRANCH  55  58
HETATM   58  S   UNK N   1      26.681  17.271   5.297  0.00  0.00     0.115 S 
BRANCH  58  59
HETATM   59  O   UNK N   1      25.032  17.825   5.211  0.00  0.00    -0.304 OA
HETATM   60  H   UNK N   1      24.832  18.704   4.853  0.00  0.00     0.230 HD
ENDBRANCH  58  59
BRANCH  58  61
HETATM   61  O   UNK N   1      26.284  16.343   6.732  0.00  0.00    -0.304 OA
HETATM   62  H   UNK N   1      25.373  16.312   7.062  0.00  0.00     0.230 HD
ENDBRANCH  58  61
BRANCH  58  63
HETATM   63  O   UNK N   1      27.041  18.235   3.871  0.00  0.00    -0.304 OA
HETATM   64  H   UNK N   1      27.916  18.641   3.760  0.00  0.00     0.230 HD
ENDBRANCH  58  63
ENDBRANCH  55  58
ENDBRANCH  20  52
BRANCH  18  65
HETATM   65  C   UNK N   1      35.415  13.451  10.354  0.00  0.00    -0.021 A 
HETATM   66  C   UNK N   1      34.815  12.476  11.159  0.00  0.00     0.014 A 
HETATM   67  C   UNK N   1      34.880  12.607  12.540  0.00  0.00     0.025 A 
HETATM   68  C   UNK N   1      35.479  13.741  13.099  0.00  0.00     0.064 A 
HETATM   69  C   UNK N   1      35.994  14.746  12.291  0.00  0.00     0.025 A 
HETATM   70  C   UNK N   1      35.961  14.600  10.929  0.00  0.00     0.014 A 
BRANCH  68  71
HETATM   71  S   UNK N   1      35.867  13.793  14.885  0.00  0.00     0.122 S 
HETATM   72  O   UNK N   1      36.181  13.852  16.595  0.00  0.00    -0.604 OA
BRANCH  71  73
HETATM   73  O   UNK N   1      34.458  12.788  15.211  0.00  0.00    -0.298 OA
HETATM   74  H   UNK N   1      34.536  11.950  15.691  0.00  0.00     0.231 HD
ENDBRANCH  71  73
BRANCH  71  75
HETATM   75  O   UNK N   1      37.259  14.817  14.592  0.00  0.00    -0.298 OA
HETATM   76  H   UNK N   1      38.117  14.437  14.343  0.00  0.00     0.231 HD
ENDBRANCH  71  75
ENDBRANCH  68  71
ENDBRANCH  18  65
TORSDOF 16
ENDMDL
MODEL 7
REMARK VINA RESULT:      -7.2      7.468     15.199
REMARK  16 active torsions:
REMARK  status: ('A' for Active; 'I' for Inactive)
REMARK    1  A    between atoms: C_41  and  C_25 
REMARK    2  A    between atoms: C_42  and  C_26 
REMARK    3  A    between atoms: C_43  and  C_27 
REMARK    4  A    between atoms: C_44  and  C_28 
REMARK    5  A    between atoms: S_63  and  C_29 
REMARK    6  A    between atoms: S_64  and  C_30 
REMARK    7  A    between atoms: S_65  and  C_31 
REMARK    8  A    between atoms: S_66  and  C_32 
REMARK    9  A    between atoms: S_64  and  O_55 
REMARK   10  A    between atoms: S_64  and  O_56 
REMARK   11  A    between atoms: S_65  and  O_57 
REMARK   12  A    between atoms: S_65  and  O_58 
REMARK   13  A    between atoms: S_65  and  O_59 
REMARK   14  A    between atoms: S_66  and  O_60 
REMARK   15  A    between atoms: S_66  and  O_61 
REMARK   16  A    between atoms: S_66  and  O_62 
ROOT
HETATM    1  C   UNK N   1      26.343  10.301   0.172  0.00  0.00     0.033 A 
HETATM    2  C   UNK N   1      30.090  12.073   2.914  0.00  0.00     0.033 A 
HETATM    3  C   UNK N   1      24.996  10.342   0.292  0.00  0.00     0.033 A 
HETATM    4  C   UNK N   1      30.214  13.108   3.714  0.00  0.00     0.033 A 
HETATM    5  C   UNK N   1      21.863  12.027   3.760  0.00  0.00     0.033 A 
HETATM    6  C   UNK N   1      26.856  16.195   5.652  0.00  0.00     0.033 A 
HETATM    7  C   UNK N   1      21.908  12.886   4.748  0.00  0.00     0.033 A 
HETATM    8  C   UNK N   1      25.523  16.146   5.890  0.00  0.00     0.033 A 
HETATM    9  C   UNK N   1      26.841  11.056   1.211  0.00  0.00     0.046 A 
HETATM   10  C   UNK N   1      28.650  11.914   2.636  0.00  0.00     0.046 A 
HETATM   11  C   UNK N   1      24.728  11.110   1.412  0.00  0.00     0.046 A 
HETATM   12  C   UNK N   1      28.853  13.586   3.945  0.00  0.00     0.046 A 
HETATM   13  C   UNK N   1      23.195  12.023   3.135  0.00  0.00     0.046 A 
HETATM   14  C   UNK N   1      27.167  15.027   4.994  0.00  0.00     0.046 A 
HETATM   15  C   UNK N   1      23.261  13.435   4.738  0.00  0.00     0.046 A 
HETATM   16  C   UNK N   1      25.080  14.946   5.373  0.00  0.00     0.046 A 
HETATM   17  C   UNK N   1      28.140  11.106   1.533  0.00  0.00     0.028 C 
HETATM   18  C   UNK N   1      23.504  11.230   1.949  0.00  0.00     0.028 C 
HETATM   19  C   UNK N   1      28.535  14.642   4.678  0.00  0.00     0.028 C 
HETATM   20  C   UNK N   1      23.686  14.484   5.457  0.00  0.00     0.028 C 
HETATM   21  N   UNK N   1      25.853  11.610   1.938  0.00  0.00    -0.355 N 
HETATM   22  N   UNK N   1      27.953  12.781   3.254  0.00  0.00    -0.355 N 
ATOM     23  HN  UNK N   1      26.937  12.869   3.245  1.00  0.00     0.166 HD
HETATM   24  N   UNK N   1      24.005  12.794   3.744  0.00  0.00    -0.355 N 
ATOM     25  HN  UNK N   1      24.998  12.919   3.545  1.00  0.00     0.166 HD
HETATM   26  N   UNK N   1      26.084  14.263   4.806  0.00  0.00    -0.355 N 
HETATM   27  H   UNK N   1      25.939  12.243   2.686  0.00  0.00     0.166 HD
HETATM   28  H   UNK N   1      26.035  13.391   4.352  0.00  0.00     0.166 HD
ENDROOT
BRANCH  19  29
HETATM   29  C   UNK N   1      29.601  15.422   5.259  0.00  0.00    -0.021 A 
HETATM   30  C   UNK N   1      30.104  16.541   4.589  0.00  0.00     0.014 A 
HETATM   31  C   UNK N   1      31.147  17.254   5.158  0.00  0.00     0.024 A 
HETATM   32  C   UNK N   1      31.698  16.815   6.367  0.00  0.00     0.056 A 
HETATM   33  C   UNK N   1      31.201  15.690   7.016  0.00  0.00     0.024 A 
HETATM   34  C   UNK N   1      30.140  15.002   6.469  0.00  0.00     0.014 A 
BRANCH  32  35
HETATM   35  S   UNK N   1      33.086  17.731   7.116  0.00  0.00     0.115 S 
BRANCH  35  36
HETATM   36  O   UNK N   1      34.382  18.627   7.854  0.00  0.00    -0.304 OA
HETATM   37  H   UNK N   1      34.498  19.568   7.651  0.00  0.00     0.230 HD
ENDBRANCH  35  36
BRANCH  35  38
HETATM   38  O   UNK N   1      32.304  17.622   8.687  0.00  0.00    -0.304 OA
HETATM   39  H   UNK N   1      31.578  18.222   8.918  0.00  0.00     0.230 HD
ENDBRANCH  35  38
BRANCH  35  40
HETATM   40  O   UNK N   1      33.918  17.787   5.572  0.00  0.00    -0.304 OA
HETATM   41  H   UNK N   1      34.679  17.212   5.395  0.00  0.00     0.230 HD
ENDBRANCH  35  40
ENDBRANCH  32  35
ENDBRANCH  19  29
BRANCH  17  42
HETATM   42  C   UNK N   1      29.121  10.343   0.760  0.00  0.00    -0.021 A 
HETATM   43  C   UNK N   1      29.464   9.048   1.153  0.00  0.00     0.014 A 
HETATM   44  C   UNK N   1      30.365   8.320   0.402  0.00  0.00     0.027 A 
HETATM   45  C   UNK N   1      30.944   8.892  -0.727  0.00  0.00     0.080 A 
HETATM   46  C   UNK N   1      30.626  10.192  -1.117  0.00  0.00     0.027 A 
HETATM   47  C   UNK N   1      29.701  10.913  -0.379  0.00  0.00     0.014 A 
BRANCH  45  48
HETATM   48  S   UNK N   1      32.150   7.919  -1.692  0.00  0.00     0.137 S 
HETATM   49  O   UNK N   1      33.304   6.990  -2.604  0.00  0.00    -0.591 OA
HETATM   50  O   UNK N   1      32.634   7.066  -0.237  0.00  0.00    -0.591 OA
HETATM   51  O   UNK N   1      31.690   8.777  -3.154  0.00  0.00    -0.591 OA
ENDBRANCH  45  48
ENDBRANCH  17  42
BRANCH  20  52
HETATM   52  C   UNK N   1      22.720  15.270   6.259  0.00  0.00    -0.021 A 
HETATM   53  C   UNK N   1      22.144  16.440   5.754  0.00  0.00     0.014 A 
HETATM   54  C   UNK N   1      21.182  17.114   6.486  0.00  0.00     0.024 A 
HETATM   55  C   UNK N   1      20.752  16.604   7.713  0.00  0.00     0.056 A 
HETATM   56  C   UNK N   1      21.296  15.420   8.203  0.00  0.00     0.024 A 
HETATM   57  C   UNK N   1      22.268  14.763   7.482  0.00  0.00     0.014 A 
BRANCH  55  58
HETATM   58  S   UNK N   1      19.570  17.574   8.748  0.00  0.00     0.115 S 
BRANCH  58  59
HETATM   59  O   UNK N   1      18.506  18.455   9.808  0.00  0.00    -0.304 OA
HETATM   60  H   UNK N   1      18.727  18.554  10.747  0.00  0.00     0.230 HD
ENDBRANCH  58  59
BRANCH  58  61
HETATM   61  O   UNK N   1      20.383  19.073   8.335  0.00  0.00    -0.304 OA
HETATM   62  H   UNK N   1      20.545  19.749   9.011  0.00  0.00     0.230 HD
ENDBRANCH  58  61
BRANCH  58  63
HETATM   63  O   UNK N   1      18.713  16.098   9.172  0.00  0.00    -0.304 OA
HETATM   64  H   UNK N   1      19.200  15.273   9.321  0.00  0.00     0.230 HD
ENDBRANCH  58  63
ENDBRANCH  55  58
ENDBRANCH  20  52
BRANCH  18  65
HETATM   65  C   UNK N   1      22.426  10.395   1.428  0.00  0.00    -0.021 A 
HETATM   66  C   UNK N   1      21.474  10.878   0.524  0.00  0.00     0.014 A 
HETATM   67  C   UNK N   1      20.481  10.020   0.067  0.00  0.00     0.025 A 
HETATM   68  C   UNK N   1      20.411   8.716   0.569  0.00  0.00     0.064 A 
HETATM   69  C   UNK N   1      21.308   8.273   1.531  0.00  0.00     0.025 A 
HETATM   70  C   UNK N   1      22.308   9.108   1.956  0.00  0.00     0.014 A 
BRANCH  68  71
HETATM   71  S   UNK N   1      19.335   7.476  -0.237  0.00  0.00     0.122 S 
HETATM   72  O   UNK N   1      18.321   6.323  -1.053  0.00  0.00    -0.604 OA
BRANCH  71  73
HETATM   73  O   UNK N   1      20.521   7.297  -1.527  0.00  0.00    -0.298 OA
HETATM   74  H   UNK N   1      20.781   6.423  -1.856  0.00  0.00     0.231 HD
ENDBRANCH  71  73
BRANCH  71  75
HETATM   75  O   UNK N   1      18.124   7.655   1.018  0.00  0.00    -0.298 OA
HETATM   76  H   UNK N   1      17.206   7.880   0.800  0.00  0.00     0.231 HD
ENDBRANCH  71  75
ENDBRANCH  68  71
ENDBRANCH  18  65
TORSDOF 16
ENDMDL
MODEL 8
REMARK VINA RESULT:      -7.0      1.919      9.526
REMARK  16 active torsions:
REMARK  status: ('A' for Active; 'I' for Inactive)
REMARK    1  A    between atoms: C_41  and  C_25 
REMARK    2  A    between atoms: C_42  and  C_26 
REMARK    3  A    between atoms: C_43  and  C_27 
REMARK    4  A    between atoms: C_44  and  C_28 
REMARK    5  A    between atoms: S_63  and  C_29 
REMARK    6  A    between atoms: S_64  and  C_30 
REMARK    7  A    between atoms: S_65  and  C_31 
REMARK    8  A    between atoms: S_66  and  C_32 
REMARK    9  A    between atoms: S_64  and  O_55 
REMARK   10  A    between atoms: S_64  and  O_56 
REMARK   11  A    between atoms: S_65  and  O_57 
REMARK   12  A    between atoms: S_65  and  O_58 
REMARK   13  A    between atoms: S_65  and  O_59 
REMARK   14  A    between atoms: S_66  and  O_60 
REMARK   15  A    between atoms: S_66  and  O_61 
REMARK   16  A    between atoms: S_66  and  O_62 
ROOT
HETATM    1  C   UNK N   1      39.176  11.061   9.557  0.00  0.00     0.033 A 
HETATM    2  C   UNK N   1      40.712  11.748   4.881  0.00  0.00     0.033 A 
HETATM    3  C   UNK N   1      38.124  11.520  10.273  0.00  0.00     0.033 A 
HETATM    4  C   UNK N   1      40.089  12.014   3.755  0.00  0.00     0.033 A 
HETATM    5  C   UNK N   1      34.474  14.774   9.391  0.00  0.00     0.033 A 
HETATM    6  C   UNK N   1      35.434  13.437   2.820  0.00  0.00     0.033 A 
HETATM    7  C   UNK N   1      33.896  15.295   8.337  0.00  0.00     0.033 A 
HETATM    8  C   UNK N   1      34.445  14.033   3.530  0.00  0.00     0.033 A 
HETATM    9  C   UNK N   1      39.006  11.542   8.277  0.00  0.00     0.046 A 
HETATM   10  C   UNK N   1      39.740  11.963   5.970  0.00  0.00     0.046 A 
HETATM   11  C   UNK N   1      37.362  12.280   9.401  0.00  0.00     0.046 A 
HETATM   12  C   UNK N   1      38.736  12.405   4.142  0.00  0.00     0.046 A 
HETATM   13  C   UNK N   1      35.517  13.860   8.899  0.00  0.00     0.046 A 
HETATM   14  C   UNK N   1      36.466  13.229   3.708  0.00  0.00     0.046 A 
HETATM   15  C   UNK N   1      34.562  14.700   7.182  0.00  0.00     0.046 A 
HETATM   16  C   UNK N   1      34.920  14.168   4.819  0.00  0.00     0.046 A 
HETATM   17  C   UNK N   1      39.939  11.448   7.321  0.00  0.00     0.028 C 
HETATM   18  C   UNK N   1      36.329  13.041   9.795  0.00  0.00     0.028 C 
HETATM   19  C   UNK N   1      37.768  12.725   3.296  0.00  0.00     0.028 C 
HETATM   20  C   UNK N   1      34.162  14.806   5.906  0.00  0.00     0.028 C 
HETATM   21  N   UNK N   1      37.859  12.237   8.158  0.00  0.00    -0.355 N 
HETATM   22  N   UNK N   1      38.616  12.359   5.527  0.00  0.00    -0.355 N 
ATOM     23  HN  UNK N   1      37.790  12.597   6.077  1.00  0.00     0.166 HD
HETATM   24  N   UNK N   1      35.595  13.871   7.628  0.00  0.00    -0.355 N 
ATOM     25  HN  UNK N   1      36.275  13.374   7.052  1.00  0.00     0.166 HD
HETATM   26  N   UNK N   1      36.154  13.660   4.936  0.00  0.00    -0.355 N 
HETATM   27  H   UNK N   1      37.473  12.624   7.341  0.00  0.00     0.166 HD
HETATM   28  H   UNK N   1      36.710  13.614   5.748  0.00  0.00     0.166 HD
ENDROOT
BRANCH  19  29
HETATM   29  C   UNK N   1      38.035  12.639   1.881  0.00  0.00    -0.021 A 
HETATM   30  C   UNK N   1      37.695  11.487   1.166  0.00  0.00     0.014 A 
HETATM   31  C   UNK N   1      37.990  11.421  -0.186  0.00  0.00     0.024 A 
HETATM   32  C   UNK N   1      38.656  12.490  -0.795  0.00  0.00     0.056 A 
HETATM   33  C   UNK N   1      39.006  13.624  -0.070  0.00  0.00     0.024 A 
HETATM   34  C   UNK N   1      38.680  13.705   1.266  0.00  0.00     0.014 A 
BRANCH  32  35
HETATM   35  S   UNK N   1      39.070  12.406  -2.569  0.00  0.00     0.115 S 
BRANCH  35  36
HETATM   36  O   UNK N   1      39.482  12.367  -4.259  0.00  0.00    -0.304 OA
HETATM   37  H   UNK N   1      38.782  12.405  -4.929  0.00  0.00     0.230 HD
ENDBRANCH  35  36
BRANCH  35  38
HETATM   38  O   UNK N   1      40.594  13.223  -2.246  0.00  0.00    -0.304 OA
HETATM   39  H   UNK N   1      40.603  14.106  -1.844  0.00  0.00     0.230 HD
ENDBRANCH  35  38
BRANCH  35  40
HETATM   40  O   UNK N   1      37.590  11.526  -2.902  0.00  0.00    -0.304 OA
HETATM   41  H   UNK N   1      37.562  10.839  -3.587  0.00  0.00     0.230 HD
ENDBRANCH  35  40
ENDBRANCH  32  35
ENDBRANCH  19  29
BRANCH  17  42
HETATM   42  C   UNK N   1      41.219  10.797   7.602  0.00  0.00    -0.021 A 
HETATM   43  C   UNK N   1      41.359   9.421   7.412  0.00  0.00     0.014 A 
HETATM   44  C   UNK N   1      42.578   8.817   7.647  0.00  0.00     0.027 A 
HETATM   45  C   UNK N   1      43.651   9.580   8.097  0.00  0.00     0.080 A 
HETATM   46  C   UNK N   1      43.518  10.951   8.312  0.00  0.00     0.027 A 
HETATM   47  C   UNK N   1      42.303  11.562   8.050  0.00  0.00     0.014 A 
BRANCH  45  48
HETATM   48  S   UNK N   1      45.247   8.756   8.423  0.00  0.00     0.137 S 
HETATM   49  O   UNK N   1      46.763   7.963   8.736  0.00  0.00    -0.591 OA
HETATM   50  O   UNK N   1      44.495   7.190   8.178  0.00  0.00    -0.591 OA
HETATM   51  O   UNK N   1      46.011  10.315   8.691  0.00  0.00    -0.591 OA
ENDBRANCH  45  48
ENDBRANCH  17  42
BRANCH  20  52
HETATM   52  C   UNK N   1      32.877  15.470   5.588  0.00  0.00    -0.021 A 
HETATM   53  C   UNK N   1      31.656  14.834   5.829  0.00  0.00     0.014 A 
HETATM   54  C   UNK N   1      30.465  15.503   5.602  0.00  0.00     0.024 A 
HETATM   55  C   UNK N   1      30.481  16.832   5.172  0.00  0.00     0.056 A 
HETATM   56  C   UNK N   1      31.695  17.481   4.965  0.00  0.00     0.024 A 
HETATM   57  C   UNK N   1      32.877  16.805   5.172  0.00  0.00     0.014 A 
BRANCH  55  58
HETATM   58  S   UNK N   1      28.897  17.677   4.740  0.00  0.00     0.115 S 
BRANCH  58  59
HETATM   59  O   UNK N   1      27.454  18.564   4.339  0.00  0.00    -0.304 OA
HETATM   60  H   UNK N   1      26.618  18.094   4.197  0.00  0.00     0.230 HD
ENDBRANCH  58  59
BRANCH  58  61
HETATM   61  O   UNK N   1      29.052  17.188   3.063  0.00  0.00    -0.304 OA
HETATM   62  H   UNK N   1      29.794  17.501   2.524  0.00  0.00     0.230 HD
ENDBRANCH  58  61
BRANCH  58  63
HETATM   63  O   UNK N   1      28.692  18.171   6.416  0.00  0.00    -0.304 OA
HETATM   64  H   UNK N   1      28.063  18.872   6.648  0.00  0.00     0.230 HD
ENDBRANCH  58  63
ENDBRANCH  55  58
ENDBRANCH  20  52
BRANCH  18  65
HETATM   65  C   UNK N   1      36.086  13.205  11.224  0.00  0.00    -0.021 A 
HETATM   66  C   UNK N   1      35.245  12.350  11.944  0.00  0.00     0.014 A 
HETATM   67  C   UNK N   1      35.068  12.565  13.305  0.00  0.00     0.025 A 
HETATM   68  C   UNK N   1      35.676  13.669  13.914  0.00  0.00     0.064 A 
HETATM   69  C   UNK N   1      36.437  14.562  13.173  0.00  0.00     0.025 A 
HETATM   70  C   UNK N   1      36.641  14.330  11.838  0.00  0.00     0.014 A 
BRANCH  68  71
HETATM   71  S   UNK N   1      35.731  13.800  15.737  0.00  0.00     0.122 S 
HETATM   72  O   UNK N   1      35.730  13.945  17.471  0.00  0.00    -0.604 OA
BRANCH  71  73
HETATM   73  O   UNK N   1      34.134  13.062  15.830  0.00  0.00    -0.298 OA
HETATM   74  H   UNK N   1      33.525  13.267  16.556  0.00  0.00     0.231 HD
ENDBRANCH  71  73
BRANCH  71  75
HETATM   75  O   UNK N   1      37.308  14.563  15.672  0.00  0.00    -0.298 OA
HETATM   76  H   UNK N   1      38.043  14.153  15.188  0.00  0.00     0.231 HD
ENDBRANCH  71  75
ENDBRANCH  68  71
ENDBRANCH  18  65
TORSDOF 16
ENDMDL
MODEL 9
REMARK VINA RESULT:      -7.0      7.709     12.125
REMARK  16 active torsions:
REMARK  status: ('A' for Active; 'I' for Inactive)
REMARK    1  A    between atoms: C_41  and  C_25 
REMARK    2  A    between atoms: C_42  and  C_26 
REMARK    3  A    between atoms: C_43  and  C_27 
REMARK    4  A    between atoms: C_44  and  C_28 
REMARK    5  A    between atoms: S_63  and  C_29 
REMARK    6  A    between atoms: S_64  and  C_30 
REMARK    7  A    between atoms: S_65  and  C_31 
REMARK    8  A    between atoms: S_66  and  C_32 
REMARK    9  A    between atoms: S_64  and  O_55 
REMARK   10  A    between atoms: S_64  and  O_56 
REMARK   11  A    between atoms: S_65  and  O_57 
REMARK   12  A    between atoms: S_65  and  O_58 
REMARK   13  A    between atoms: S_65  and  O_59 
REMARK   14  A    between atoms: S_66  and  O_60 
REMARK   15  A    between atoms: S_66  and  O_61 
REMARK   16  A    between atoms: S_66  and  O_62 
ROOT
HETATM    1  C   UNK N   1      25.274  16.248   5.663  0.00  0.00     0.033 A 
HETATM    2  C   UNK N   1      21.737  12.886   4.725  0.00  0.00     0.033 A 
HETATM    3  C   UNK N   1      26.602  16.302   5.414  0.00  0.00     0.033 A 
HETATM    4  C   UNK N   1      21.576  11.981   3.786  0.00  0.00     0.033 A 
HETATM    5  C   UNK N   1      29.913  13.129   3.502  0.00  0.00     0.033 A 
HETATM    6  C   UNK N   1      24.675  10.215   0.345  0.00  0.00     0.033 A 
HETATM    7  C   UNK N   1      29.882  12.067   2.735  0.00  0.00     0.033 A 
HETATM    8  C   UNK N   1      26.021  10.159   0.195  0.00  0.00     0.033 A 
HETATM    9  C   UNK N   1      24.822  15.086   5.077  0.00  0.00     0.046 A 
HETATM   10  C   UNK N   1      23.130  13.362   4.629  0.00  0.00     0.046 A 
HETATM   11  C   UNK N   1      26.911  15.159   4.696  0.00  0.00     0.046 A 
HETATM   12  C   UNK N   1      22.868  11.886   3.112  0.00  0.00     0.046 A 
HETATM   13  C   UNK N   1      28.520  13.572   3.675  0.00  0.00     0.046 A 
HETATM   14  C   UNK N   1      24.452  10.935   1.497  0.00  0.00     0.046 A 
HETATM   15  C   UNK N   1      28.475  11.848   2.413  0.00  0.00     0.046 A 
HETATM   16  C   UNK N   1      26.560  10.841   1.267  0.00  0.00     0.046 A 
HETATM   17  C   UNK N   1      23.591  14.594   5.261  0.00  0.00     0.028 C 
HETATM   18  C   UNK N   1      28.167  14.778   4.419  0.00  0.00     0.028 C 
HETATM   19  C   UNK N   1      23.126  11.104   2.074  0.00  0.00     0.028 C 
HETATM   20  C   UNK N   1      28.005  10.983   1.502  0.00  0.00     0.028 C 
HETATM   21  N   UNK N   1      25.810  14.446   4.424  0.00  0.00    -0.355 N 
HETATM   22  N   UNK N   1      23.770  12.762   3.708  0.00  0.00    -0.355 N 
ATOM     23  HN  UNK N   1      24.749  12.895   3.456  1.00  0.00     0.166 HD
HETATM   24  N   UNK N   1      27.700  12.793   3.092  0.00  0.00    -0.355 N 
ATOM     25  HN  UNK N   1      26.681  12.847   3.115  1.00  0.00     0.166 HD
HETATM   26  N   UNK N   1      25.599  11.334   2.060  0.00  0.00    -0.355 N 
HETATM   27  H   UNK N   1      25.739  13.636   3.870  0.00  0.00     0.166 HD
HETATM   28  H   UNK N   1      25.712  11.871   2.877  0.00  0.00     0.166 HD
ENDROOT
BRANCH  19  29
HETATM   29  C   UNK N   1      22.050  10.318   1.522  0.00  0.00    -0.021 A 
HETATM   30  C   UNK N   1      21.910   8.971   1.868  0.00  0.00     0.014 A 
HETATM   31  C   UNK N   1      20.884   8.233   1.299  0.00  0.00     0.024 A 
HETATM   32  C   UNK N   1      20.040   8.840   0.364  0.00  0.00     0.056 A 
HETATM   33  C   UNK N   1      20.200  10.176   0.013  0.00  0.00     0.024 A 
HETATM   34  C   UNK N   1      21.196  10.921   0.606  0.00  0.00     0.014 A 
BRANCH  32  35
HETATM   35  S   UNK N   1      18.700   7.873  -0.409  0.00  0.00     0.115 S 
BRANCH  35  36
HETATM   36  O   UNK N   1      17.399   6.987  -1.151  0.00  0.00    -0.304 OA
HETATM   37  H   UNK N   1      16.745   6.533  -0.597  0.00  0.00     0.230 HD
ENDBRANCH  35  36
BRANCH  35  38
HETATM   38  O   UNK N   1      18.428   9.178  -1.556  0.00  0.00    -0.304 OA
HETATM   39  H   UNK N   1      19.027   9.304  -2.309  0.00  0.00     0.230 HD
ENDBRANCH  35  38
BRANCH  35  40
HETATM   40  O   UNK N   1      19.004   6.530   0.678  0.00  0.00    -0.304 OA
HETATM   41  H   UNK N   1      19.554   5.780   0.402  0.00  0.00     0.230 HD
ENDBRANCH  35  40
ENDBRANCH  32  35
ENDBRANCH  19  29
BRANCH  17  42
HETATM   42  C   UNK N   1      22.635  15.301   6.114  0.00  0.00    -0.021 A 
HETATM   43  C   UNK N   1      22.035  16.478   5.664  0.00  0.00     0.014 A 
HETATM   44  C   UNK N   1      21.109  17.123   6.460  0.00  0.00     0.027 A 
HETATM   45  C   UNK N   1      20.800  16.609   7.716  0.00  0.00     0.080 A 
HETATM   46  C   UNK N   1      21.409  15.446   8.186  0.00  0.00     0.027 A 
HETATM   47  C   UNK N   1      22.318  14.783   7.376  0.00  0.00     0.014 A 
BRANCH  45  48
HETATM   48  S   UNK N   1      19.590  17.491   8.759  0.00  0.00     0.137 S 
HETATM   49  O   UNK N   1      18.443  18.338   9.756  0.00  0.00    -0.591 OA
HETATM   50  O   UNK N   1      20.364  19.018   8.376  0.00  0.00    -0.591 OA
HETATM   51  O   UNK N   1      18.816  15.968   9.169  0.00  0.00    -0.591 OA
ENDBRANCH  45  48
ENDBRANCH  17  42
BRANCH  20  52
HETATM   52  C   UNK N   1      28.948  10.244   0.631  0.00  0.00    -0.021 A 
HETATM   53  C   UNK N   1      29.254   8.902   0.872  0.00  0.00     0.014 A 
HETATM   54  C   UNK N   1      30.073   8.207  -0.001  0.00  0.00     0.024 A 
HETATM   55  C   UNK N   1      30.562   8.833  -1.150  0.00  0.00     0.056 A 
HETATM   56  C   UNK N   1      30.229  10.159  -1.414  0.00  0.00     0.024 A 
HETATM   57  C   UNK N   1      29.431  10.853  -0.532  0.00  0.00     0.014 A 
BRANCH  55  58
HETATM   58  S   UNK N   1      31.761   7.948  -2.240  0.00  0.00     0.115 S 
BRANCH  58  59
HETATM   59  O   UNK N   1      32.842   7.153  -3.348  0.00  0.00    -0.304 OA
HETATM   60  H   UNK N   1      33.744   7.486  -3.473  0.00  0.00     0.230 HD
ENDBRANCH  58  59
BRANCH  58  61
HETATM   61  O   UNK N   1      33.008   9.132  -1.889  0.00  0.00    -0.304 OA
HETATM   62  H   UNK N   1      33.512   9.086  -1.062  0.00  0.00     0.230 HD
ENDBRANCH  58  61
BRANCH  58  63
HETATM   63  O   UNK N   1      30.548   6.728  -2.602  0.00  0.00    -0.304 OA
HETATM   64  H   UNK N   1      29.610   6.898  -2.420  0.00  0.00     0.230 HD
ENDBRANCH  58  63
ENDBRANCH  55  58
ENDBRANCH  20  52
BRANCH  18  65
HETATM   65  C   UNK N   1      29.271  15.512   5.029  0.00  0.00    -0.021 A 
HETATM   66  C   UNK N   1      29.540  15.456   6.401  0.00  0.00     0.014 A 
HETATM   67  C   UNK N   1      30.614  16.177   6.908  0.00  0.00     0.025 A 
HETATM   68  C   UNK N   1      31.360  16.997   6.054  0.00  0.00     0.064 A 
HETATM   69  C   UNK N   1      31.030  17.115   4.711  0.00  0.00     0.025 A 
HETATM   70  C   UNK N   1      29.993  16.376   4.204  0.00  0.00     0.014 A 
BRANCH  68  71
HETATM   71  S   UNK N   1      32.954  17.698   6.611  0.00  0.00     0.122 S 
HETATM   72  O   UNK N   1      34.497  18.332   7.103  0.00  0.00    -0.604 OA
BRANCH  71  73
HETATM   73  O   UNK N   1      33.439  17.907   4.931  0.00  0.00    -0.298 OA
HETATM   74  H   UNK N   1      33.115  18.651   4.401  0.00  0.00     0.231 HD
ENDBRANCH  71  73
BRANCH  71  75
HETATM   75  O   UNK N   1      32.508  17.475   8.292  0.00  0.00    -0.298 OA
HETATM   76  H   UNK N   1      33.108  17.736   9.008  0.00  0.00     0.231 HD
ENDBRANCH  71  75
ENDBRANCH  68  71
ENDBRANCH  18  65
TORSDOF 16
ENDMDL
