REMARK WARNING: 32 MAX_TORS EXCEEDED!!!
REMARK  33 active torsions:
REMARK  status: ('A' for Active; 'I' for Inactive)
REMARK    1  A    between atoms: C_4  and  C_3 
REMARK    2  A    between atoms: C_14  and  C_3 
REMARK    3  A    between atoms: N_31  and  C_4 
REMARK    4  A    between atoms: C_6  and  C_5 
REMARK    5  A    between atoms: N_29  and  C_5 
REMARK    6  A    between atoms: S_60  and  C_6 
REMARK    7  A    between atoms: C_12  and  C_7 
REMARK    8  A    between atoms: O_52  and  C_7 
REMARK    9  A    between atoms: C_13  and  C_8 
REMARK   10  A    between atoms: S_60  and  C_8 
REMARK   11  A    between atoms: C_23  and  C_9 
REMARK   12  A    between atoms: O_53  and  C_9 
REMARK   13  A    between atoms: C_24  and  C_13 
REMARK   14  A    between atoms: N_29  and  C_14 
REMARK   15  A    between atoms: O_41  and  C_14 
REMARK   16  A    between atoms: C_16  and  O_42 
REMARK   17  A    between atoms: C_17  and  O_55 
REMARK   18  A    between atoms: C_21  and  C_18 
REMARK   19  A    between atoms: C_23  and  C_18 
REMARK   20  A    between atoms: C_18  and  O_43 
REMARK   21  A    between atoms: N_28  and  C_19 
REMARK   22  A    between atoms: N_31  and  C_21 
REMARK   23  A    between atoms: O_44  and  C_21 
REMARK   24  A    between atoms: C_22  and  N_39 
REMARK   25  A    between atoms: P_57  and  O_45 
REMARK   26  A    between atoms: P_57  and  O_46 
REMARK   27  A    between atoms: P_58  and  O_48 
REMARK   28  A    between atoms: P_59  and  O_50 
REMARK   29  A    between atoms: P_58  and  O_52 
REMARK   30  A    between atoms: P_59  and  O_53 
REMARK   31  A    between atoms: P_57  and  O_55 
REMARK   32  A    between atoms: P_58  and  O_56 
REMARK   33  A    between atoms: P_59  and  O_56 
ROOT
HETATM    1  O   UNK N   1      -3.749  -2.753  -0.638  0.00  0.00    -0.195 OA
ENDROOT
BRANCH   1   2
HETATM    2  P   UNK N   1      -2.798  -1.955   0.592  0.00  0.00     0.401 P 
HETATM    3  O   UNK N   1      -3.094  -0.436   0.472  0.00  0.00    -0.631 OA
BRANCH   2   4
HETATM    4  O   UNK N   1      -3.300  -2.393   2.196  0.00  0.00    -0.307 OA
HETATM    5  H   UNK N   1      -3.651  -2.272   3.092  0.00  0.00     0.222 HD
ENDBRANCH   2   4
BRANCH   2   6
HETATM    6  O   UNK N   1      -1.078  -2.147   0.408  0.00  0.00    -0.294 OA
BRANCH   6   7
HETATM    7  C   UNK N   1      -0.760  -1.783  -0.906  0.00  0.00     0.215 C 
BRANCH   7   8
HETATM    8  C   UNK N   1       0.505  -0.914  -0.959  0.00  0.00     0.180 C 
HETATM    9  C   UNK N   1       1.668  -1.473  -0.125  0.00  0.00     0.197 C 
HETATM   10  C   UNK N   1       2.491  -0.229   0.007  0.00  0.00     0.199 C 
HETATM   11  C   UNK N   1       1.356   0.745   0.346  0.00  0.00     0.262 C 
HETATM   12  O   UNK N   1       0.263   0.407  -0.497  0.00  0.00    -0.353 OA
BRANCH   9  13
HETATM   13  O   UNK N   1       2.391  -2.505  -0.761  0.00  0.00    -0.286 OA
BRANCH  13  14
HETATM   14  P   UNK N   1       1.786  -4.061  -0.237  0.00  0.00     0.391 P 
HETATM   15  O   UNK N   1       0.686  -4.497  -1.239  0.00  0.00    -0.632 OA
BRANCH  14  16
HETATM   16  O   UNK N   1       1.084  -4.023   1.353  0.00  0.00    -0.307 OA
HETATM   17  H   UNK N   1       0.906  -3.673   2.240  0.00  0.00     0.222 HD
ENDBRANCH  14  16
BRANCH  14  18
HETATM   18  O   UNK N   1       3.030  -5.267  -0.311  0.00  0.00    -0.307 OA
HETATM   19  H   UNK N   1       2.794  -6.207  -0.353  0.00  0.00     0.222 HD
ENDBRANCH  14  18
ENDBRANCH  13  14
ENDBRANCH   9  13
BRANCH  10  20
HETATM   20  O   UNK N   1       3.060   0.085  -1.237  0.00  0.00    -0.388 OA
HETATM   21  H   UNK N   1       3.444  -0.147  -2.096  0.00  0.00     0.210 HD
ENDBRANCH  10  20
BRANCH  11  22
HETATM   22  N   UNK N   1       1.710   2.169   0.222  0.00  0.00    -0.297 N 
HETATM   23  C   UNK N   1       0.810   3.187   0.256  0.00  0.00     0.188 A 
HETATM   24  N   UNK N   1       1.418   4.400   0.133  0.00  0.00    -0.346 N 
HETATM   25  C   UNK N   1       2.726   4.110   0.042  0.00  0.00     0.122 A 
ATOM     26  HN  UNK N   1       0.978   5.320   0.115  1.00  0.00     0.167 HD
HETATM   27  C   UNK N   1       3.816   4.959  -0.078  0.00  0.00     0.131 A 
HETATM   28  C   UNK N   1       2.907   2.776   0.097  0.00  0.00     0.142 A 
HETATM   29  N   UNK N   1       5.061   4.401  -0.126  0.00  0.00    -0.337 N 
HETATM   30  C   UNK N   1       5.227   3.039  -0.055  0.00  0.00     0.183 A 
ATOM     31  HN  UNK N   1       5.880   5.003  -0.215  1.00  0.00     0.168 HD
HETATM   32  N   UNK N   1       4.140   2.213   0.059  0.00  0.00    -0.336 N 
ATOM     33  HN  UNK N   1       4.256   1.201   0.115  1.00  0.00     0.168 HD
BRANCH  27  34
HETATM   34  N   UNK N   1       3.652   6.357  -0.142  0.00  0.00    -0.383 N 
HETATM   35  H   UNK N   1       4.440   6.945  -0.187  0.00  0.00     0.157 HD
HETATM   36  H   UNK N   1       2.748   6.747  -0.142  0.00  0.00     0.157 HD
ENDBRANCH  27  34
ENDBRANCH  11  22
ENDBRANCH   7   8
ENDBRANCH   6   7
ENDBRANCH   2   6
ENDBRANCH   1   2
BRANCH   1  37
HETATM   37  P   UNK N   1      -3.635  -4.471  -0.351  0.00  0.00     0.401 P 
HETATM   38  O   UNK N   1      -4.475  -5.135  -1.477  0.00  0.00    -0.631 OA
BRANCH  37  39
HETATM   39  O   UNK N   1      -4.365  -4.920   1.158  0.00  0.00    -0.307 OA
HETATM   40  H   UNK N   1      -4.786  -4.692   2.002  0.00  0.00     0.222 HD
ENDBRANCH  37  39
BRANCH  37  41
HETATM   41  O   UNK N   1      -1.997  -5.045  -0.507  0.00  0.00    -0.296 OA
BRANCH  41  42
HETATM   42  C   UNK N   1      -2.034  -6.440  -0.686  0.00  0.00     0.192 C 
BRANCH  42  43
HETATM   43  C   UNK N   1      -1.513  -7.196   0.552  0.00  0.00     0.008 C 
HETATM   44  C   UNK N   1      -0.321  -6.463   1.142  0.00  0.00     0.020 C 
HETATM   45  C   UNK N   1      -2.586  -7.232   1.628  0.00  0.00     0.020 C 
BRANCH  43  46
HETATM   46  C   UNK N   1      -1.038  -8.633   0.207  0.00  0.00     0.202 C 
BRANCH  46  47
HETATM   47  C   UNK N   1      -2.083  -9.611  -0.275  0.00  0.00     0.141 C 
BRANCH  47  48
HETATM   48  N   UNK N   1      -3.304  -9.250  -0.472  0.00  0.00    -0.372 N 
ATOM     49  HN  UNK N   1      -3.569  -8.277  -0.322  1.00  0.00     0.161 HD
BRANCH  48  50
HETATM   50  C   UNK N   1      -4.304 -10.200  -0.900  0.00  0.00     0.129 C 
BRANCH  50  51
HETATM   51  C   UNK N   1      -5.594  -9.498  -1.294  0.00  0.00     0.103 C 
BRANCH  51  52
HETATM   52  C   UNK N   1      -6.146  -8.685  -0.171  0.00  0.00     0.112 C 
BRANCH  52  53
HETATM   53  N   UNK N   1      -6.342  -7.425  -0.346  0.00  0.00    -0.374 N 
ATOM     54  HN  UNK N   1      -6.125  -7.014  -1.254  1.00  0.00     0.161 HD
BRANCH  53  55
HETATM   55  C   UNK N   1      -6.856  -6.576   0.699  0.00  0.00     0.131 C 
BRANCH  55  56
HETATM   56  C   UNK N   1      -8.334  -6.315   0.485  0.00  0.00     0.094 C 
BRANCH  56  57
HETATM   57  S   UNK N   1      -9.276  -7.645   1.279  0.00  0.00    -0.160 SA
BRANCH  57  58
HETATM   58  C   UNK N   1      -9.814  -8.367  -0.300  0.00  0.00     0.162 C 
BRANCH  58  59
HETATM   59  C   UNK N   1     -11.230  -8.838  -0.181  0.00  0.00     0.241 C 
HETATM   60  O   UNK N   1     -11.454 -10.038  -0.181  0.00  0.00    -0.287 OA
BRANCH  59  61
HETATM   61  C   UNK N   1     -12.369  -7.860  -0.070  0.00  0.00     0.451 C 
HETATM   62  F   UNK N   1     -12.429  -7.087  -1.214  0.00  0.00    -0.163 F 
HETATM   63  F   UNK N   1     -13.569  -8.534   0.079  0.00  0.00    -0.163 F 
HETATM   64  F   UNK N   1     -12.191  -7.035   1.025  0.00  0.00    -0.163 F 
ENDBRANCH  59  61
ENDBRANCH  58  59
ENDBRANCH  57  58
ENDBRANCH  56  57
ENDBRANCH  55  56
ENDBRANCH  53  55
ENDBRANCH  52  53
BRANCH  52  65
HETATM   65  O   UNK N   1      -6.446  -9.278   1.005  0.00  0.00    -0.350 OA
HETATM   66  H   UNK N   1      -6.906  -9.304   1.820  0.00  0.00     0.219 HD
ENDBRANCH  52  65
ENDBRANCH  51  52
ENDBRANCH  50  51
ENDBRANCH  48  50
ENDBRANCH  47  48
BRANCH  47  67
HETATM   67  O   UNK N   1      -1.711 -10.892  -0.492  0.00  0.00    -0.348 OA
HETATM   68  H   UNK N   1      -2.352 -11.559  -0.642  0.00  0.00     0.219 HD
ENDBRANCH  47  67
ENDBRANCH  46  47
BRANCH  46  69
HETATM   69  O   UNK N   1      -0.016  -8.576  -0.746  0.00  0.00    -0.387 OA
HETATM   70  H   UNK N   1       0.373  -9.170  -1.407  0.00  0.00     0.210 HD
ENDBRANCH  46  69
ENDBRANCH  43  46
ENDBRANCH  42  43
ENDBRANCH  41  42
ENDBRANCH  37  41
ENDBRANCH   1  37
TORSDOF 33
