MODEL 1
REMARK VINA RESULT:      -6.5      0.000      0.000
REMARK  12 active torsions:
REMARK  status: ('A' for Active; 'I' for Inactive)
REMARK    1  A    between atoms: C_4  and  C_1 
REMARK    2  A    between atoms: O_26  and  C_1 
REMARK    3  A    between atoms: C_6  and  O_19 
REMARK    4  A    between atoms: C_7  and  O_28 
REMARK    5  A    between atoms: N_11  and  C_8 
REMARK    6  A    between atoms: C_10  and  N_18 
REMARK    7  A    between atoms: P_29  and  O_20 
REMARK    8  A    between atoms: P_29  and  O_21 
REMARK    9  A    between atoms: P_30  and  O_23 
REMARK   10  A    between atoms: P_30  and  O_24 
REMARK   11  A    between atoms: P_29  and  O_26 
REMARK   12  A    between atoms: P_30  and  O_28 
ROOT
HETATM    1  C   UNK N   1      36.004  13.922  10.385  0.00  0.00     0.180 C 
HETATM    2  C   UNK N   1      35.722  15.370  10.749  0.00  0.00     0.183 C 
HETATM    3  C   UNK N   1      34.903  15.742   9.528  0.00  0.00     0.214 C 
HETATM    4  C   UNK N   1      34.005  14.492   9.498  0.00  0.00     0.263 C 
HETATM    5  O   UNK N   1      34.781  13.380   9.935  0.00  0.00    -0.353 OA
ENDROOT
BRANCH   4   6
HETATM    6  N   UNK N   1      33.419  14.235   8.173  0.00  0.00    -0.297 N 
HETATM    7  C   UNK N   1      33.855  13.311   7.275  0.00  0.00     0.188 A 
HETATM    8  N   UNK N   1      33.083  13.301   6.153  0.00  0.00    -0.346 N 
HETATM    9  C   UNK N   1      32.157  14.251   6.376  0.00  0.00     0.122 A 
ATOM     10  HN  UNK N   1      33.184  12.707   5.330  1.00  0.00     0.167 HD
HETATM   11  C   UNK N   1      31.118  14.685   5.569  0.00  0.00     0.131 A 
HETATM   12  C   UNK N   1      32.356  14.808   7.587  0.00  0.00     0.142 A 
HETATM   13  N   UNK N   1      30.322  15.692   6.036  0.00  0.00    -0.337 N 
HETATM   14  C   UNK N   1      30.543  16.250   7.272  0.00  0.00     0.183 A 
ATOM     15  HN  UNK N   1      29.554  16.035   5.460  1.00  0.00     0.168 HD
HETATM   16  N   UNK N   1      31.566  15.801   8.063  0.00  0.00    -0.336 N 
ATOM     17  HN  UNK N   1      31.730  16.204   8.986  1.00  0.00     0.168 HD
BRANCH  11  18
HETATM   18  N   UNK N   1      30.883  14.112   4.302  0.00  0.00    -0.383 N 
HETATM   19  H   UNK N   1      30.023  14.228   3.839  0.00  0.00     0.157 HD
HETATM   20  H   UNK N   1      31.595  13.586   3.872  0.00  0.00     0.157 HD
ENDBRANCH  11  18
ENDBRANCH   4   6
BRANCH   3  21
HETATM   21  O   UNK N   1      34.080  16.900   9.539  0.00  0.00    -0.284 OA
BRANCH  21  22
HETATM   22  P   UNK N   1      34.297  18.030   8.218  0.00  0.00     0.391 P 
HETATM   23  O   UNK N   1      32.916  18.655   7.880  0.00  0.00    -0.632 OA
BRANCH  22  24
HETATM   24  O   UNK N   1      35.436  19.305   8.514  0.00  0.00    -0.307 OA
HETATM   25  H   UNK N   1      36.294  19.590   8.865  0.00  0.00     0.222 HD
ENDBRANCH  22  24
BRANCH  22  26
HETATM   26  O   UNK N   1      34.777  17.152   6.799  0.00  0.00    -0.307 OA
HETATM   27  H   UNK N   1      34.137  16.815   6.154  0.00  0.00     0.222 HD
ENDBRANCH  22  26
ENDBRANCH  21  22
ENDBRANCH   3  21
BRANCH   2  28
HETATM   28  O   UNK N   1      36.909  16.090  10.879  0.00  0.00    -0.390 OA
HETATM   29  H   UNK N   1      37.600  16.216  11.549  0.00  0.00     0.210 HD
ENDBRANCH   2  28
BRANCH   1  30
HETATM   30  C   UNK N   1      36.620  13.124  11.530  0.00  0.00     0.215 C 
BRANCH  30  31
HETATM   31  O   UNK N   1      35.667  12.762  12.484  0.00  0.00    -0.294 OA
BRANCH  31  32
HETATM   32  P   UNK N   1      36.287  13.400  13.977  0.00  0.00     0.390 P 
HETATM   33  O   UNK N   1      35.117  13.378  14.995  0.00  0.00    -0.632 OA
BRANCH  32  34
HETATM   34  O   UNK N   1      36.783  15.058  13.827  0.00  0.00    -0.307 OA
HETATM   35  H   UNK N   1      36.594  15.900  14.271  0.00  0.00     0.222 HD
ENDBRANCH  32  34
BRANCH  32  36
HETATM   36  O   UNK N   1      37.547  12.403  14.631  0.00  0.00    -0.307 OA
HETATM   37  H   UNK N   1      37.634  12.293  15.591  0.00  0.00     0.222 HD
ENDBRANCH  32  36
ENDBRANCH  31  32
ENDBRANCH  30  31
ENDBRANCH   1  30
TORSDOF 12
ENDMDL
MODEL 2
REMARK VINA RESULT:      -6.4      1.768      2.064
REMARK  12 active torsions:
REMARK  status: ('A' for Active; 'I' for Inactive)
REMARK    1  A    between atoms: C_4  and  C_1 
REMARK    2  A    between atoms: O_26  and  C_1 
REMARK    3  A    between atoms: C_6  and  O_19 
REMARK    4  A    between atoms: C_7  and  O_28 
REMARK    5  A    between atoms: N_11  and  C_8 
REMARK    6  A    between atoms: C_10  and  N_18 
REMARK    7  A    between atoms: P_29  and  O_20 
REMARK    8  A    between atoms: P_29  and  O_21 
REMARK    9  A    between atoms: P_30  and  O_23 
REMARK   10  A    between atoms: P_30  and  O_24 
REMARK   11  A    between atoms: P_29  and  O_26 
REMARK   12  A    between atoms: P_30  and  O_28 
ROOT
HETATM    1  C   UNK N   1      36.922  14.277   9.629  0.00  0.00     0.180 C 
HETATM    2  C   UNK N   1      35.951  15.316  10.162  0.00  0.00     0.183 C 
HETATM    3  C   UNK N   1      35.347  15.745   8.837  0.00  0.00     0.214 C 
HETATM    4  C   UNK N   1      35.133  14.338   8.249  0.00  0.00     0.263 C 
HETATM    5  O   UNK N   1      36.205  13.508   8.687  0.00  0.00    -0.353 OA
ENDROOT
BRANCH   4   6
HETATM    6  N   UNK N   1      35.036  14.337   6.781  0.00  0.00    -0.297 N 
HETATM    7  C   UNK N   1      36.034  14.011   5.916  0.00  0.00     0.188 A 
HETATM    8  N   UNK N   1      35.619  14.082   4.621  0.00  0.00    -0.346 N 
HETATM    9  C   UNK N   1      34.333  14.469   4.704  0.00  0.00     0.122 A 
ATOM     10  HN  UNK N   1      36.160  13.887   3.779  1.00  0.00     0.167 HD
HETATM   11  C   UNK N   1      33.413  14.714   3.698  0.00  0.00     0.131 A 
HETATM   12  C   UNK N   1      33.983  14.618   5.997  0.00  0.00     0.142 A 
HETATM   13  N   UNK N   1      32.159  15.118   4.061  0.00  0.00    -0.337 N 
HETATM   14  C   UNK N   1      31.823  15.267   5.385  0.00  0.00     0.183 A 
ATOM     15  HN  UNK N   1      31.465  15.311   3.340  1.00  0.00     0.168 HD
HETATM   16  N   UNK N   1      32.739  15.009   6.367  0.00  0.00    -0.336 N 
ATOM     17  HN  UNK N   1      32.493  15.108   7.352  1.00  0.00     0.168 HD
BRANCH  11  18
HETATM   18  N   UNK N   1      33.752  14.556   2.339  0.00  0.00    -0.383 N 
HETATM   19  H   UNK N   1      34.623  14.853   1.989  0.00  0.00     0.157 HD
HETATM   20  H   UNK N   1      33.102  14.141   1.726  0.00  0.00     0.157 HD
ENDBRANCH  11  18
ENDBRANCH   4   6
BRANCH   3  21
HETATM   21  O   UNK N   1      34.115  16.451   8.802  0.00  0.00    -0.284 OA
BRANCH  21  22
HETATM   22  P   UNK N   1      34.133  18.024   8.031  0.00  0.00     0.391 P 
HETATM   23  O   UNK N   1      32.730  18.666   8.205  0.00  0.00    -0.632 OA
BRANCH  22  24
HETATM   24  O   UNK N   1      35.336  19.125   8.623  0.00  0.00    -0.307 OA
HETATM   25  H   UNK N   1      35.784  19.543   9.374  0.00  0.00     0.222 HD
ENDBRANCH  22  24
BRANCH  22  26
HETATM   26  O   UNK N   1      34.344  17.810   6.322  0.00  0.00    -0.307 OA
HETATM   27  H   UNK N   1      34.132  16.979   5.871  0.00  0.00     0.222 HD
ENDBRANCH  22  26
ENDBRANCH  21  22
ENDBRANCH   3  21
BRANCH   2  28
HETATM   28  O   UNK N   1      36.629  16.334  10.833  0.00  0.00    -0.390 OA
HETATM   29  H   UNK N   1      37.537  16.517  11.123  0.00  0.00     0.210 HD
ENDBRANCH   2  28
BRANCH   1  30
HETATM   30  C   UNK N   1      37.556  13.429  10.727  0.00  0.00     0.215 C 
BRANCH  30  31
HETATM   31  O   UNK N   1      36.767  12.325  11.053  0.00  0.00    -0.294 OA
BRANCH  31  32
HETATM   32  P   UNK N   1      36.123  12.704  12.623  0.00  0.00     0.390 P 
HETATM   33  O   UNK N   1      36.304  11.437  13.500  0.00  0.00    -0.632 OA
BRANCH  32  34
HETATM   34  O   UNK N   1      34.417  13.031  12.571  0.00  0.00    -0.307 OA
HETATM   35  H   UNK N   1      33.611  12.560  12.308  0.00  0.00     0.222 HD
ENDBRANCH  32  34
BRANCH  32  36
HETATM   36  O   UNK N   1      37.006  13.984  13.392  0.00  0.00    -0.307 OA
HETATM   37  H   UNK N   1      37.848  13.798  13.836  0.00  0.00     0.222 HD
ENDBRANCH  32  36
ENDBRANCH  31  32
ENDBRANCH  30  31
ENDBRANCH   1  30
TORSDOF 12
ENDMDL
MODEL 3
REMARK VINA RESULT:      -6.4      3.083      4.269
REMARK  12 active torsions:
REMARK  status: ('A' for Active; 'I' for Inactive)
REMARK    1  A    between atoms: C_4  and  C_1 
REMARK    2  A    between atoms: O_26  and  C_1 
REMARK    3  A    between atoms: C_6  and  O_19 
REMARK    4  A    between atoms: C_7  and  O_28 
REMARK    5  A    between atoms: N_11  and  C_8 
REMARK    6  A    between atoms: C_10  and  N_18 
REMARK    7  A    between atoms: P_29  and  O_20 
REMARK    8  A    between atoms: P_29  and  O_21 
REMARK    9  A    between atoms: P_30  and  O_23 
REMARK   10  A    between atoms: P_30  and  O_24 
REMARK   11  A    between atoms: P_29  and  O_26 
REMARK   12  A    between atoms: P_30  and  O_28 
ROOT
HETATM    1  C   UNK N   1      33.989  14.097   6.180  0.00  0.00     0.180 C 
HETATM    2  C   UNK N   1      34.939  15.198   6.619  0.00  0.00     0.183 C 
HETATM    3  C   UNK N   1      34.213  16.371   5.988  0.00  0.00     0.214 C 
HETATM    4  C   UNK N   1      32.790  15.995   6.441  0.00  0.00     0.263 C 
HETATM    5  O   UNK N   1      32.684  14.574   6.429  0.00  0.00    -0.353 OA
ENDROOT
BRANCH   4   6
HETATM    6  N   UNK N   1      31.741  16.605   5.609  0.00  0.00    -0.297 N 
HETATM    7  C   UNK N   1      31.725  16.646   4.249  0.00  0.00     0.188 A 
HETATM    8  N   UNK N   1      30.602  17.257   3.779  0.00  0.00    -0.346 N 
HETATM    9  C   UNK N   1      29.922  17.603   4.887  0.00  0.00     0.122 A 
ATOM     10  HN  UNK N   1      30.337  17.417   2.807  1.00  0.00     0.167 HD
HETATM   11  C   UNK N   1      28.711  18.263   5.015  0.00  0.00     0.131 A 
HETATM   12  C   UNK N   1      30.602  17.209   5.982  0.00  0.00     0.142 A 
HETATM   13  N   UNK N   1      28.245  18.507   6.276  0.00  0.00    -0.337 N 
HETATM   14  C   UNK N   1      28.955  18.102   7.381  0.00  0.00     0.183 A 
ATOM     15  HN  UNK N   1      27.360  18.997   6.399  1.00  0.00     0.168 HD
HETATM   16  N   UNK N   1      30.143  17.439   7.237  0.00  0.00    -0.336 N 
ATOM     17  HN  UNK N   1      30.671  17.126   8.052  1.00  0.00     0.168 HD
BRANCH  11  18
HETATM   18  N   UNK N   1      27.976  18.676   3.886  0.00  0.00    -0.383 N 
HETATM   19  H   UNK N   1      27.459  18.035   3.348  0.00  0.00     0.157 HD
HETATM   20  H   UNK N   1      27.981  19.627   3.630  0.00  0.00     0.157 HD
ENDBRANCH  11  18
ENDBRANCH   4   6
BRANCH   3  21
HETATM   21  O   UNK N   1      34.492  17.700   6.406  0.00  0.00    -0.284 OA
BRANCH  21  22
HETATM   22  P   UNK N   1      34.292  18.045   8.112  0.00  0.00     0.391 P 
HETATM   23  O   UNK N   1      32.844  18.559   8.338  0.00  0.00    -0.632 OA
BRANCH  22  24
HETATM   24  O   UNK N   1      34.590  16.709   9.178  0.00  0.00    -0.307 OA
HETATM   25  H   UNK N   1      34.290  16.142   9.905  0.00  0.00     0.222 HD
ENDBRANCH  22  24
BRANCH  22  26
HETATM   26  O   UNK N   1      35.333  19.365   8.545  0.00  0.00    -0.307 OA
HETATM   27  H   UNK N   1      36.061  19.661   7.978  0.00  0.00     0.222 HD
ENDBRANCH  22  26
ENDBRANCH  21  22
ENDBRANCH   3  21
BRANCH   2  28
HETATM   28  O   UNK N   1      36.220  14.982   6.111  0.00  0.00    -0.390 OA
HETATM   29  H   UNK N   1      37.000  15.515   5.889  0.00  0.00     0.210 HD
ENDBRANCH   2  28
BRANCH   1  30
HETATM   30  C   UNK N   1      34.269  12.758   6.855  0.00  0.00     0.215 C 
BRANCH  30  31
HETATM   31  O   UNK N   1      35.173  12.886   7.911  0.00  0.00    -0.294 OA
BRANCH  31  32
HETATM   32  P   UNK N   1      34.191  12.742   9.338  0.00  0.00     0.390 P 
HETATM   33  O   UNK N   1      34.507  13.973  10.227  0.00  0.00    -0.632 OA
BRANCH  32  34
HETATM   34  O   UNK N   1      34.597  11.336  10.275  0.00  0.00    -0.307 OA
HETATM   35  H   UNK N   1      34.173  10.787  10.953  0.00  0.00     0.222 HD
ENDBRANCH  32  34
BRANCH  32  36
HETATM   36  O   UNK N   1      32.497  12.807   8.967  0.00  0.00    -0.307 OA
HETATM   37  H   UNK N   1      32.020  11.998   8.724  0.00  0.00     0.222 HD
ENDBRANCH  32  36
ENDBRANCH  31  32
ENDBRANCH  30  31
ENDBRANCH   1  30
TORSDOF 12
ENDMDL
MODEL 4
REMARK VINA RESULT:      -6.3     17.350     19.640
REMARK  12 active torsions:
REMARK  status: ('A' for Active; 'I' for Inactive)
REMARK    1  A    between atoms: C_4  and  C_1 
REMARK    2  A    between atoms: O_26  and  C_1 
REMARK    3  A    between atoms: C_6  and  O_19 
REMARK    4  A    between atoms: C_7  and  O_28 
REMARK    5  A    between atoms: N_11  and  C_8 
REMARK    6  A    between atoms: C_10  and  N_18 
REMARK    7  A    between atoms: P_29  and  O_20 
REMARK    8  A    between atoms: P_29  and  O_21 
REMARK    9  A    between atoms: P_30  and  O_23 
REMARK   10  A    between atoms: P_30  and  O_24 
REMARK   11  A    between atoms: P_29  and  O_26 
REMARK   12  A    between atoms: P_30  and  O_28 
ROOT
HETATM    1  C   UNK N   1      27.367  26.269  -6.449  0.00  0.00     0.180 C 
HETATM    2  C   UNK N   1      26.039  25.588  -6.732  0.00  0.00     0.183 C 
HETATM    3  C   UNK N   1      26.528  24.152  -6.721  0.00  0.00     0.214 C 
HETATM    4  C   UNK N   1      27.390  24.243  -5.448  0.00  0.00     0.263 C 
HETATM    5  O   UNK N   1      27.970  25.543  -5.400  0.00  0.00    -0.353 OA
ENDROOT
BRANCH   4   6
HETATM    6  N   UNK N   1      28.428  23.202  -5.381  0.00  0.00    -0.297 N 
HETATM    7  C   UNK N   1      28.746  22.328  -6.374  0.00  0.00     0.188 A 
HETATM    8  N   UNK N   1      29.771  21.508  -6.010  0.00  0.00    -0.346 N 
HETATM    9  C   UNK N   1      30.079  21.893  -4.759  0.00  0.00     0.122 A 
ATOM     10  HN  UNK N   1      30.207  20.769  -6.562  1.00  0.00     0.167 HD
HETATM   11  C   UNK N   1      31.038  21.402  -3.889  0.00  0.00     0.131 A 
HETATM   12  C   UNK N   1      29.278  22.910  -4.384  0.00  0.00     0.142 A 
HETATM   13  N   UNK N   1      31.132  21.971  -2.650  0.00  0.00    -0.337 N 
HETATM   14  C   UNK N   1      30.304  23.005  -2.285  0.00  0.00     0.183 A 
ATOM     15  HN  UNK N   1      31.825  21.624  -1.989  1.00  0.00     0.168 HD
HETATM   16  N   UNK N   1      29.369  23.487  -3.160  0.00  0.00    -0.336 N 
ATOM     17  HN  UNK N   1      28.758  24.261  -2.900  1.00  0.00     0.168 HD
BRANCH  11  18
HETATM   18  N   UNK N   1      31.894  20.345  -4.261  0.00  0.00    -0.383 N 
HETATM   19  H   UNK N   1      32.638  20.485  -4.891  0.00  0.00     0.157 HD
HETATM   20  H   UNK N   1      31.745  19.449  -3.882  0.00  0.00     0.157 HD
ENDBRANCH  11  18
ENDBRANCH   4   6
BRANCH   3  21
HETATM   21  O   UNK N   1      25.608  23.079  -6.578  0.00  0.00    -0.284 OA
BRANCH  21  22
HETATM   22  P   UNK N   1      25.141  22.244  -8.045  0.00  0.00     0.391 P 
HETATM   23  O   UNK N   1      25.375  23.202  -9.245  0.00  0.00    -0.632 OA
BRANCH  22  24
HETATM   24  O   UNK N   1      25.971  20.751  -8.345  0.00  0.00    -0.307 OA
HETATM   25  H   UNK N   1      26.733  20.283  -8.721  0.00  0.00     0.222 HD
ENDBRANCH  22  24
BRANCH  22  26
HETATM   26  O   UNK N   1      23.431  21.950  -8.005  0.00  0.00    -0.307 OA
HETATM   27  H   UNK N   1      23.057  21.057  -7.955  0.00  0.00     0.222 HD
ENDBRANCH  22  26
ENDBRANCH  21  22
ENDBRANCH   3  21
BRANCH   2  28
HETATM   28  O   UNK N   1      25.520  26.002  -7.959  0.00  0.00    -0.390 OA
HETATM   29  H   UNK N   1      25.293  26.840  -8.393  0.00  0.00     0.210 HD
ENDBRANCH   2  28
BRANCH   1  30
HETATM   30  C   UNK N   1      27.224  27.755  -6.135  0.00  0.00     0.215 C 
BRANCH  30  31
HETATM   31  O   UNK N   1      25.987  28.050  -5.562  0.00  0.00    -0.294 OA
BRANCH  31  32
HETATM   32  P   UNK N   1      26.372  28.567  -3.947  0.00  0.00     0.390 P 
HETATM   33  O   UNK N   1      25.419  27.801  -2.992  0.00  0.00    -0.632 OA
BRANCH  32  34
HETATM   34  O   UNK N   1      26.060  30.259  -3.707  0.00  0.00    -0.307 OA
HETATM   35  H   UNK N   1      26.511  31.014  -3.300  0.00  0.00     0.222 HD
ENDBRANCH  32  34
BRANCH  32  36
HETATM   36  O   UNK N   1      27.992  28.136  -3.500  0.00  0.00    -0.307 OA
HETATM   37  H   UNK N   1      28.239  28.071  -2.565  0.00  0.00     0.222 HD
ENDBRANCH  32  36
ENDBRANCH  31  32
ENDBRANCH  30  31
ENDBRANCH   1  30
TORSDOF 12
ENDMDL
MODEL 5
REMARK VINA RESULT:      -6.2      4.361      8.005
REMARK  12 active torsions:
REMARK  status: ('A' for Active; 'I' for Inactive)
REMARK    1  A    between atoms: C_4  and  C_1 
REMARK    2  A    between atoms: O_26  and  C_1 
REMARK    3  A    between atoms: C_6  and  O_19 
REMARK    4  A    between atoms: C_7  and  O_28 
REMARK    5  A    between atoms: N_11  and  C_8 
REMARK    6  A    between atoms: C_10  and  N_18 
REMARK    7  A    between atoms: P_29  and  O_20 
REMARK    8  A    between atoms: P_29  and  O_21 
REMARK    9  A    between atoms: P_30  and  O_23 
REMARK   10  A    between atoms: P_30  and  O_24 
REMARK   11  A    between atoms: P_29  and  O_26 
REMARK   12  A    between atoms: P_30  and  O_28 
ROOT
HETATM    1  C   UNK N   1      35.806  15.652  10.754  0.00  0.00     0.180 C 
HETATM    2  C   UNK N   1      35.903  14.401   9.899  0.00  0.00     0.183 C 
HETATM    3  C   UNK N   1      36.186  13.405  11.009  0.00  0.00     0.214 C 
HETATM    4  C   UNK N   1      35.115  13.897  11.999  0.00  0.00     0.263 C 
HETATM    5  O   UNK N   1      35.010  15.312  11.869  0.00  0.00    -0.353 OA
ENDROOT
BRANCH   4   6
HETATM    6  N   UNK N   1      35.401  13.519  13.392  0.00  0.00    -0.297 N 
HETATM    7  C   UNK N   1      36.204  14.200  14.254  0.00  0.00     0.188 A 
HETATM    8  N   UNK N   1      36.242  13.606  15.478  0.00  0.00    -0.346 N 
HETATM    9  C   UNK N   1      35.444  12.531  15.353  0.00  0.00     0.122 A 
ATOM     10  HN  UNK N   1      36.758  13.908  16.304  1.00  0.00     0.167 HD
HETATM   11  C   UNK N   1      35.117  11.554  16.279  0.00  0.00     0.131 A 
HETATM   12  C   UNK N   1      34.937  12.481  14.104  0.00  0.00     0.142 A 
HETATM   13  N   UNK N   1      34.284  10.546  15.881  0.00  0.00    -0.337 N 
HETATM   14  C   UNK N   1      33.782  10.511  14.603  0.00  0.00     0.183 A 
ATOM     15  HN  UNK N   1      34.033   9.811  16.541  1.00  0.00     0.168 HD
HETATM   16  N   UNK N   1      34.103  11.490  13.703  0.00  0.00    -0.336 N 
ATOM     17  HN  UNK N   1      33.726  11.476  12.756  1.00  0.00     0.168 HD
BRANCH  11  18
HETATM   18  N   UNK N   1      35.626  11.589  17.593  0.00  0.00    -0.383 N 
HETATM   19  H   UNK N   1      35.397  10.893  18.250  0.00  0.00     0.157 HD
HETATM   20  H   UNK N   1      36.223  12.325  17.859  0.00  0.00     0.157 HD
ENDBRANCH  11  18
ENDBRANCH   4   6
BRANCH   3  21
HETATM   21  O   UNK N   1      36.005  12.013  10.790  0.00  0.00    -0.284 OA
BRANCH  21  22
HETATM   22  P   UNK N   1      37.165  10.942  11.550  0.00  0.00     0.391 P 
HETATM   23  O   UNK N   1      38.080  10.354  10.443  0.00  0.00    -0.632 OA
BRANCH  22  24
HETATM   24  O   UNK N   1      38.155  11.670  12.774  0.00  0.00    -0.307 OA
HETATM   25  H   UNK N   1      38.907  11.607  13.382  0.00  0.00     0.222 HD
ENDBRANCH  22  24
BRANCH  22  26
HETATM   26  O   UNK N   1      36.318   9.588  12.230  0.00  0.00    -0.307 OA
HETATM   27  H   UNK N   1      36.115   9.522  13.175  0.00  0.00     0.222 HD
ENDBRANCH  22  26
ENDBRANCH  21  22
ENDBRANCH   3  21
BRANCH   2  28
HETATM   28  O   UNK N   1      36.931  14.516   8.964  0.00  0.00    -0.390 OA
HETATM   29  H   UNK N   1      37.114  15.031   8.161  0.00  0.00     0.210 HD
ENDBRANCH   2  28
BRANCH   1  30
HETATM   30  C   UNK N   1      35.272  16.861   9.991  0.00  0.00     0.215 C 
BRANCH  30  31
HETATM   31  O   UNK N   1      34.701  16.495   8.771  0.00  0.00    -0.294 OA
BRANCH  31  32
HETATM   32  P   UNK N   1      34.253  18.005   8.035  0.00  0.00     0.390 P 
HETATM   33  O   UNK N   1      34.453  17.835   6.506  0.00  0.00    -0.632 OA
BRANCH  32  34
HETATM   34  O   UNK N   1      35.290  19.309   8.528  0.00  0.00    -0.307 OA
HETATM   35  H   UNK N   1      35.190  20.237   8.791  0.00  0.00     0.222 HD
ENDBRANCH  32  34
BRANCH  32  36
HETATM   36  O   UNK N   1      32.578  18.377   8.290  0.00  0.00    -0.307 OA
HETATM   37  H   UNK N   1      32.156  19.094   7.791  0.00  0.00     0.222 HD
ENDBRANCH  32  36
ENDBRANCH  31  32
ENDBRANCH  30  31
ENDBRANCH   1  30
TORSDOF 12
ENDMDL
MODEL 6
REMARK VINA RESULT:      -6.2     16.788     20.017
REMARK  12 active torsions:
REMARK  status: ('A' for Active; 'I' for Inactive)
REMARK    1  A    between atoms: C_4  and  C_1 
REMARK    2  A    between atoms: O_26  and  C_1 
REMARK    3  A    between atoms: C_6  and  O_19 
REMARK    4  A    between atoms: C_7  and  O_28 
REMARK    5  A    between atoms: N_11  and  C_8 
REMARK    6  A    between atoms: C_10  and  N_18 
REMARK    7  A    between atoms: P_29  and  O_20 
REMARK    8  A    between atoms: P_29  and  O_21 
REMARK    9  A    between atoms: P_30  and  O_23 
REMARK   10  A    between atoms: P_30  and  O_24 
REMARK   11  A    between atoms: P_29  and  O_26 
REMARK   12  A    between atoms: P_30  and  O_28 
ROOT
HETATM    1  C   UNK N   1      27.799  24.058  -7.193  0.00  0.00     0.180 C 
HETATM    2  C   UNK N   1      28.436  23.136  -6.168  0.00  0.00     0.183 C 
HETATM    3  C   UNK N   1      28.463  24.102  -4.999  0.00  0.00     0.214 C 
HETATM    4  C   UNK N   1      27.029  24.643  -5.151  0.00  0.00     0.263 C 
HETATM    5  O   UNK N   1      26.722  24.695  -6.541  0.00  0.00    -0.353 OA
ENDROOT
BRANCH   4   6
HETATM    6  N   UNK N   1      26.842  25.960  -4.522  0.00  0.00    -0.297 N 
HETATM    7  C   UNK N   1      26.332  26.185  -3.281  0.00  0.00     0.188 A 
HETATM    8  N   UNK N   1      26.314  27.513  -2.981  0.00  0.00    -0.346 N 
HETATM    9  C   UNK N   1      26.822  28.110  -4.074  0.00  0.00     0.122 A 
ATOM     10  HN  UNK N   1      25.989  27.956  -2.121  1.00  0.00     0.167 HD
HETATM   11  C   UNK N   1      27.030  29.454  -4.336  0.00  0.00     0.131 A 
HETATM   12  C   UNK N   1      27.141  27.179  -4.995  0.00  0.00     0.142 A 
HETATM   13  N   UNK N   1      27.552  29.796  -5.552  0.00  0.00    -0.337 N 
HETATM   14  C   UNK N   1      27.868  28.833  -6.479  0.00  0.00     0.183 A 
ATOM     15  HN  UNK N   1      27.709  30.778  -5.773  1.00  0.00     0.168 HD
HETATM   16  N   UNK N   1      27.669  27.508  -6.200  0.00  0.00    -0.336 N 
ATOM     17  HN  UNK N   1      27.910  26.787  -6.880  1.00  0.00     0.168 HD
BRANCH  11  18
HETATM   18  N   UNK N   1      26.713  30.446  -3.386  0.00  0.00    -0.383 N 
HETATM   19  H   UNK N   1      26.976  31.385  -3.518  0.00  0.00     0.157 HD
HETATM   20  H   UNK N   1      26.217  30.193  -2.574  0.00  0.00     0.157 HD
ENDBRANCH  11  18
ENDBRANCH   4   6
BRANCH   3  21
HETATM   21  O   UNK N   1      28.636  23.623  -3.673  0.00  0.00    -0.284 OA
BRANCH  21  22
HETATM   22  P   UNK N   1      30.264  23.673  -3.027  0.00  0.00     0.391 P 
HETATM   23  O   UNK N   1      30.741  25.150  -3.025  0.00  0.00    -0.632 OA
BRANCH  22  24
HETATM   24  O   UNK N   1      30.447  23.018  -1.431  0.00  0.00    -0.307 OA
HETATM   25  H   UNK N   1      30.062  22.818  -0.564  0.00  0.00     0.222 HD
ENDBRANCH  22  24
BRANCH  22  26
HETATM   26  O   UNK N   1      31.327  22.836  -4.114  0.00  0.00    -0.307 OA
HETATM   27  H   UNK N   1      31.688  21.958  -3.917  0.00  0.00     0.222 HD
ENDBRANCH  22  26
ENDBRANCH  21  22
ENDBRANCH   3  21
BRANCH   2  28
HETATM   28  O   UNK N   1      29.698  22.718  -6.591  0.00  0.00    -0.390 OA
HETATM   29  H   UNK N   1      30.089  21.935  -7.009  0.00  0.00     0.210 HD
ENDBRANCH   2  28
BRANCH   1  30
HETATM   30  C   UNK N   1      27.374  23.336  -8.469  0.00  0.00     0.215 C 
BRANCH  30  31
HETATM   31  O   UNK N   1      27.133  21.979  -8.243  0.00  0.00    -0.294 OA
BRANCH  31  32
HETATM   32  P   UNK N   1      25.428  21.792  -8.527  0.00  0.00     0.390 P 
HETATM   33  O   UNK N   1      24.872  20.932  -7.362  0.00  0.00    -0.632 OA
BRANCH  32  34
HETATM   34  O   UNK N   1      25.098  20.917  -9.991  0.00  0.00    -0.307 OA
HETATM   35  H   UNK N   1      24.744  20.048 -10.236  0.00  0.00     0.222 HD
ENDBRANCH  32  34
BRANCH  32  36
HETATM   36  O   UNK N   1      24.594  23.312  -8.478  0.00  0.00    -0.307 OA
HETATM   37  H   UNK N   1      24.972  24.091  -8.915  0.00  0.00     0.222 HD
ENDBRANCH  32  36
ENDBRANCH  31  32
ENDBRANCH  30  31
ENDBRANCH   1  30
TORSDOF 12
ENDMDL
MODEL 7
REMARK VINA RESULT:      -6.2     12.684     15.319
REMARK  12 active torsions:
REMARK  status: ('A' for Active; 'I' for Inactive)
REMARK    1  A    between atoms: C_4  and  C_1 
REMARK    2  A    between atoms: O_26  and  C_1 
REMARK    3  A    between atoms: C_6  and  O_19 
REMARK    4  A    between atoms: C_7  and  O_28 
REMARK    5  A    between atoms: N_11  and  C_8 
REMARK    6  A    between atoms: C_10  and  N_18 
REMARK    7  A    between atoms: P_29  and  O_20 
REMARK    8  A    between atoms: P_29  and  O_21 
REMARK    9  A    between atoms: P_30  and  O_23 
REMARK   10  A    between atoms: P_30  and  O_24 
REMARK   11  A    between atoms: P_29  and  O_26 
REMARK   12  A    between atoms: P_30  and  O_28 
ROOT
HETATM    1  C   UNK N   1      21.490  17.282   5.219  0.00  0.00     0.180 C 
HETATM    2  C   UNK N   1      20.324  16.572   4.556  0.00  0.00     0.183 C 
HETATM    3  C   UNK N   1      20.249  15.373   5.482  0.00  0.00     0.214 C 
HETATM    4  C   UNK N   1      20.370  16.138   6.813  0.00  0.00     0.263 C 
HETATM    5  O   UNK N   1      21.242  17.245   6.608  0.00  0.00    -0.353 OA
ENDROOT
BRANCH   4   6
HETATM    6  N   UNK N   1      20.844  15.294   7.920  0.00  0.00    -0.297 N 
HETATM    7  C   UNK N   1      20.143  14.985   9.045  0.00  0.00     0.188 A 
HETATM    8  N   UNK N   1      20.851  14.160   9.865  0.00  0.00    -0.346 N 
HETATM    9  C   UNK N   1      22.017  13.969   9.223  0.00  0.00     0.122 A 
ATOM     10  HN  UNK N   1      20.562  13.775  10.765  1.00  0.00     0.167 HD
HETATM   11  C   UNK N   1      23.124  13.225   9.595  0.00  0.00     0.131 A 
HETATM   12  C   UNK N   1      22.011  14.644   8.056  0.00  0.00     0.142 A 
HETATM   13  N   UNK N   1      24.200  13.212   8.752  0.00  0.00    -0.337 N 
HETATM   14  C   UNK N   1      24.177  13.911   7.569  0.00  0.00     0.183 A 
ATOM     15  HN  UNK N   1      25.031  12.679   9.005  1.00  0.00     0.168 HD
HETATM   16  N   UNK N   1      23.070  14.630   7.210  0.00  0.00    -0.336 N 
ATOM     17  HN  UNK N   1      23.042  15.143   6.328  1.00  0.00     0.168 HD
BRANCH  11  18
HETATM   18  N   UNK N   1      23.151  12.502  10.805  0.00  0.00    -0.383 N 
HETATM   19  H   UNK N   1      23.722  12.782  11.556  0.00  0.00     0.157 HD
HETATM   20  H   UNK N   1      22.586  11.701  10.900  0.00  0.00     0.157 HD
ENDBRANCH  11  18
ENDBRANCH   4   6
BRANCH   3  21
HETATM   21  O   UNK N   1      19.081  14.564   5.521  0.00  0.00    -0.284 OA
BRANCH  21  22
HETATM   22  P   UNK N   1      18.859  13.442   4.194  0.00  0.00     0.391 P 
HETATM   23  O   UNK N   1      17.535  12.667   4.430  0.00  0.00    -0.632 OA
BRANCH  22  24
HETATM   24  O   UNK N   1      18.819  14.160   2.615  0.00  0.00    -0.307 OA
HETATM   25  H   UNK N   1      18.448  14.180   1.719  0.00  0.00     0.222 HD
ENDBRANCH  22  24
BRANCH  22  26
HETATM   26  O   UNK N   1      20.119  12.250   4.248  0.00  0.00    -0.307 OA
HETATM   27  H   UNK N   1      20.504  11.861   3.448  0.00  0.00     0.222 HD
ENDBRANCH  22  26
ENDBRANCH  21  22
ENDBRANCH   3  21
BRANCH   2  28
HETATM   28  O   UNK N   1      20.624  16.250   3.232  0.00  0.00    -0.390 OA
HETATM   29  H   UNK N   1      21.000  15.499   2.747  0.00  0.00     0.210 HD
ENDBRANCH   2  28
BRANCH   1  30
HETATM   30  C   UNK N   1      21.708  18.698   4.694  0.00  0.00     0.215 C 
BRANCH  30  31
HETATM   31  O   UNK N   1      21.997  18.709   3.329  0.00  0.00    -0.294 OA
BRANCH  31  32
HETATM   32  P   UNK N   1      20.842  19.818   2.652  0.00  0.00     0.390 P 
HETATM   33  O   UNK N   1      20.365  20.732   3.811  0.00  0.00    -0.632 OA
BRANCH  32  34
HETATM   34  O   UNK N   1      19.430  19.008   2.046  0.00  0.00    -0.307 OA
HETATM   35  H   UNK N   1      19.233  18.195   1.555  0.00  0.00     0.222 HD
ENDBRANCH  32  34
BRANCH  32  36
HETATM   36  O   UNK N   1      21.561  20.850   1.457  0.00  0.00    -0.307 OA
HETATM   37  H   UNK N   1      21.434  21.811   1.501  0.00  0.00     0.222 HD
ENDBRANCH  32  36
ENDBRANCH  31  32
ENDBRANCH  30  31
ENDBRANCH   1  30
TORSDOF 12
ENDMDL
MODEL 8
REMARK VINA RESULT:      -6.1      4.511      7.435
REMARK  12 active torsions:
REMARK  status: ('A' for Active; 'I' for Inactive)
REMARK    1  A    between atoms: C_4  and  C_1 
REMARK    2  A    between atoms: O_26  and  C_1 
REMARK    3  A    between atoms: C_6  and  O_19 
REMARK    4  A    between atoms: C_7  and  O_28 
REMARK    5  A    between atoms: N_11  and  C_8 
REMARK    6  A    between atoms: C_10  and  N_18 
REMARK    7  A    between atoms: P_29  and  O_20 
REMARK    8  A    between atoms: P_29  and  O_21 
REMARK    9  A    between atoms: P_30  and  O_23 
REMARK   10  A    between atoms: P_30  and  O_24 
REMARK   11  A    between atoms: P_29  and  O_26 
REMARK   12  A    between atoms: P_30  and  O_28 
ROOT
HETATM    1  C   UNK N   1      31.143  16.322   4.650  0.00  0.00     0.180 C 
HETATM    2  C   UNK N   1      32.259  16.216   5.675  0.00  0.00     0.183 C 
HETATM    3  C   UNK N   1      31.679  17.150   6.720  0.00  0.00     0.214 C 
HETATM    4  C   UNK N   1      30.240  16.605   6.702  0.00  0.00     0.263 C 
HETATM    5  O   UNK N   1      29.932  16.213   5.367  0.00  0.00    -0.353 OA
ENDROOT
BRANCH   4   6
HETATM    6  N   UNK N   1      29.252  17.572   7.205  0.00  0.00    -0.297 N 
HETATM    7  C   UNK N   1      28.828  17.682   8.493  0.00  0.00     0.188 A 
HETATM    8  N   UNK N   1      27.929  18.694   8.640  0.00  0.00    -0.346 N 
HETATM    9  C   UNK N   1      27.799  19.208   7.404  0.00  0.00     0.122 A 
ATOM     10  HN  UNK N   1      27.460  18.995   9.494  1.00  0.00     0.167 HD
HETATM   11  C   UNK N   1      27.007  20.252   6.955  0.00  0.00     0.131 A 
HETATM   12  C   UNK N   1      28.594  18.539   6.545  0.00  0.00     0.142 A 
HETATM   13  N   UNK N   1      27.052  20.564   5.625  0.00  0.00    -0.337 N 
HETATM   14  C   UNK N   1      27.866  19.867   4.765  0.00  0.00     0.183 A 
ATOM     15  HN  UNK N   1      26.474  21.323   5.267  1.00  0.00     0.168 HD
HETATM   16  N   UNK N   1      28.653  18.847   5.226  0.00  0.00    -0.336 N 
ATOM     17  HN  UNK N   1      29.267  18.332   4.595  1.00  0.00     0.168 HD
BRANCH  11  18
HETATM   18  N   UNK N   1      26.174  20.973   7.833  0.00  0.00    -0.383 N 
HETATM   19  H   UNK N   1      26.438  21.856   8.181  0.00  0.00     0.157 HD
HETATM   20  H   UNK N   1      25.311  20.586   8.105  0.00  0.00     0.157 HD
ENDBRANCH  11  18
ENDBRANCH   4   6
BRANCH   3  21
HETATM   21  O   UNK N   1      32.163  17.127   8.055  0.00  0.00    -0.284 OA
BRANCH  21  22
HETATM   22  P   UNK N   1      33.902  17.181   8.261  0.00  0.00     0.391 P 
HETATM   23  O   UNK N   1      34.466  18.294   7.337  0.00  0.00    -0.632 OA
BRANCH  22  24
HETATM   24  O   UNK N   1      34.448  17.464   9.883  0.00  0.00    -0.307 OA
HETATM   25  H   UNK N   1      34.875  18.049  10.528  0.00  0.00     0.222 HD
ENDBRANCH  22  24
BRANCH  22  26
HETATM   26  O   UNK N   1      34.584  15.695   7.679  0.00  0.00    -0.307 OA
HETATM   27  H   UNK N   1      35.017  15.056   8.265  0.00  0.00     0.222 HD
ENDBRANCH  22  26
ENDBRANCH  21  22
ENDBRANCH   3  21
BRANCH   2  28
HETATM   28  O   UNK N   1      33.472  16.646   5.137  0.00  0.00    -0.390 OA
HETATM   29  H   UNK N   1      33.948  17.485   5.029  0.00  0.00     0.210 HD
ENDBRANCH   2  28
BRANCH   1  30
HETATM   30  C   UNK N   1      31.261  15.296   3.527  0.00  0.00     0.215 C 
BRANCH  30  31
HETATM   31  O   UNK N   1      32.044  14.203   3.900  0.00  0.00    -0.294 OA
BRANCH  31  32
HETATM   32  P   UNK N   1      33.316  14.160   2.716  0.00  0.00     0.390 P 
HETATM   33  O   UNK N   1      34.550  13.520   3.407  0.00  0.00    -0.632 OA
BRANCH  32  34
HETATM   34  O   UNK N   1      33.799  15.751   2.214  0.00  0.00    -0.307 OA
HETATM   35  H   UNK N   1      33.443  16.652   2.266  0.00  0.00     0.222 HD
ENDBRANCH  32  34
BRANCH  32  36
HETATM   36  O   UNK N   1      32.910  13.148   1.367  0.00  0.00    -0.307 OA
HETATM   37  H   UNK N   1      33.055  12.191   1.413  0.00  0.00     0.222 HD
ENDBRANCH  32  36
ENDBRANCH  31  32
ENDBRANCH  30  31
ENDBRANCH   1  30
TORSDOF 12
ENDMDL
MODEL 9
REMARK VINA RESULT:      -6.1     11.266     14.112
REMARK  12 active torsions:
REMARK  status: ('A' for Active; 'I' for Inactive)
REMARK    1  A    between atoms: C_4  and  C_1 
REMARK    2  A    between atoms: O_26  and  C_1 
REMARK    3  A    between atoms: C_6  and  O_19 
REMARK    4  A    between atoms: C_7  and  O_28 
REMARK    5  A    between atoms: N_11  and  C_8 
REMARK    6  A    between atoms: C_10  and  N_18 
REMARK    7  A    between atoms: P_29  and  O_20 
REMARK    8  A    between atoms: P_29  and  O_21 
REMARK    9  A    between atoms: P_30  and  O_23 
REMARK   10  A    between atoms: P_30  and  O_24 
REMARK   11  A    between atoms: P_29  and  O_26 
REMARK   12  A    between atoms: P_30  and  O_28 
ROOT
HETATM    1  C   UNK N   1      21.412  17.562   3.426  0.00  0.00     0.180 C 
HETATM    2  C   UNK N   1      20.921  16.668   4.551  0.00  0.00     0.183 C 
HETATM    3  C   UNK N   1      22.271  16.189   5.050  0.00  0.00     0.214 C 
HETATM    4  C   UNK N   1      22.981  17.555   5.053  0.00  0.00     0.263 C 
HETATM    5  O   UNK N   1      22.484  18.314   3.954  0.00  0.00    -0.353 OA
ENDROOT
BRANCH   4   6
HETATM    6  N   UNK N   1      24.447  17.442   4.990  0.00  0.00    -0.297 N 
HETATM    7  C   UNK N   1      25.182  16.376   5.407  0.00  0.00     0.188 A 
HETATM    8  N   UNK N   1      26.512  16.568   5.188  0.00  0.00    -0.346 N 
HETATM    9  C   UNK N   1      26.585  17.790   4.629  0.00  0.00     0.122 A 
ATOM     10  HN  UNK N   1      27.280  15.931   5.400  1.00  0.00     0.167 HD
HETATM   11  C   UNK N   1      27.692  18.508   4.207  0.00  0.00     0.131 A 
HETATM   12  C   UNK N   1      25.348  18.311   4.507  0.00  0.00     0.142 A 
HETATM   13  N   UNK N   1      27.485  19.753   3.681  0.00  0.00    -0.337 N 
HETATM   14  C   UNK N   1      26.216  20.268   3.569  0.00  0.00     0.183 A 
ATOM     15  HN  UNK N   1      28.282  20.306   3.369  1.00  0.00     0.168 HD
HETATM   16  N   UNK N   1      25.132  19.541   3.978  0.00  0.00    -0.336 N 
ATOM     17  HN  UNK N   1      24.187  19.913   3.889  1.00  0.00     0.168 HD
BRANCH  11  18
HETATM   18  N   UNK N   1      28.995  17.982   4.315  0.00  0.00    -0.383 N 
HETATM   19  H   UNK N   1      29.784  18.507   4.050  0.00  0.00     0.157 HD
HETATM   20  H   UNK N   1      29.118  17.069   4.663  0.00  0.00     0.157 HD
ENDBRANCH  11  18
ENDBRANCH   4   6
BRANCH   3  21
HETATM   21  O   UNK N   1      22.397  15.603   6.338  0.00  0.00    -0.284 OA
BRANCH  21  22
HETATM   22  P   UNK N   1      21.089  15.898   7.466  0.00  0.00     0.391 P 
HETATM   23  O   UNK N   1      21.450  15.221   8.816  0.00  0.00    -0.632 OA
BRANCH  22  24
HETATM   24  O   UNK N   1      20.720  17.568   7.753  0.00  0.00    -0.307 OA
HETATM   25  H   UNK N   1      20.542  18.285   8.381  0.00  0.00     0.222 HD
ENDBRANCH  22  24
BRANCH  22  26
HETATM   26  O   UNK N   1      19.663  15.086   6.899  0.00  0.00    -0.307 OA
HETATM   27  H   UNK N   1      19.561  14.795   5.980  0.00  0.00     0.222 HD
ENDBRANCH  22  26
ENDBRANCH  21  22
ENDBRANCH   3  21
BRANCH   2  28
HETATM   28  O   UNK N   1      20.103  15.651   4.058  0.00  0.00    -0.390 OA
HETATM   29  H   UNK N   1      19.181  15.549   3.776  0.00  0.00     0.210 HD
ENDBRANCH   2  28
BRANCH   1  30
HETATM   30  C   UNK N   1      20.313  18.435   2.829  0.00  0.00     0.215 C 
BRANCH  30  31
HETATM   31  O   UNK N   1      20.758  19.137   1.708  0.00  0.00    -0.294 OA
BRANCH  31  32
HETATM   32  P   UNK N   1      21.051  20.747   2.295  0.00  0.00     0.390 P 
HETATM   33  O   UNK N   1      20.208  20.914   3.586  0.00  0.00    -0.632 OA
BRANCH  32  34
HETATM   34  O   UNK N   1      20.501  21.962   1.183  0.00  0.00    -0.307 OA
HETATM   35  H   UNK N   1      19.709  22.131   0.649  0.00  0.00     0.222 HD
ENDBRANCH  32  34
BRANCH  32  36
HETATM   36  O   UNK N   1      22.712  20.979   2.741  0.00  0.00    -0.307 OA
HETATM   37  H   UNK N   1      22.937  21.331   3.616  0.00  0.00     0.222 HD
ENDBRANCH  32  36
ENDBRANCH  31  32
ENDBRANCH  30  31
ENDBRANCH   1  30
TORSDOF 12
ENDMDL
