MODEL 1
REMARK VINA RESULT:      -5.0      0.000      0.000
REMARK  3 active torsions:
REMARK  status: ('A' for Active; 'I' for Inactive)
REMARK    1  A    between atoms: O_1  and  C_2 
REMARK    2  A    between atoms: C_2  and  C_4 
REMARK    3  A    between atoms: C_10  and  O_11 
ROOT
HETATM    1  C   UNK N   1      20.522  19.199   1.950  0.00  0.00     0.182 A 
HETATM    2  N   UNK N   1      20.615  19.430   3.271  0.00  0.00    -0.231 N 
ATOM      3  HN  UNK N   1      20.523  18.744   4.021  1.00  0.00     0.197 HD
HETATM    4  O   UNK N   1      20.846  20.710   3.400  0.00  0.00    -0.154 OA
HETATM    5  N   UNK N   1      20.911  21.333   2.254  0.00  0.00    -0.217 N 
ATOM      6  HN  UNK N   1      21.080  22.327   2.103  1.00  0.00     0.199 HD
HETATM    7  C   UNK N   1      20.708  20.395   1.319  0.00  0.00     0.198 A 
ENDROOT
BRANCH   1   8
HETATM    8  C   UNK N   1      20.266  17.892   1.327  0.00  0.00     0.200 C 
HETATM    9  O   UNK N   1      20.028  16.917   2.020  0.00  0.00    -0.645 OA
BRANCH   8  10
HETATM   10  O   UNK N   1      20.295  17.769  -0.014  0.00  0.00    -0.771 OA
HETATM   11  H   UNK N   1      19.637  18.183  -0.537  0.00  0.00     0.167 HD
ENDBRANCH   8  10
ENDBRANCH   1   8
BRANCH   7  12
HETATM   12  O   UNK N   1      20.696  20.623  -0.005  0.00  0.00    -0.343 OA
HETATM   13  H   UNK N   1      19.881  20.661  -0.467  0.00  0.00     0.219 HD
ENDBRANCH   7  12
TORSDOF 3
ENDMDL
MODEL 2
REMARK VINA RESULT:      -4.8      1.247      3.002
REMARK  3 active torsions:
REMARK  status: ('A' for Active; 'I' for Inactive)
REMARK    1  A    between atoms: O_1  and  C_2 
REMARK    2  A    between atoms: C_2  and  C_4 
REMARK    3  A    between atoms: C_10  and  O_11 
ROOT
HETATM    1  C   UNK N   1      20.383  19.090   1.840  0.00  0.00     0.182 A 
HETATM    2  N   UNK N   1      20.060  18.946   3.137  0.00  0.00    -0.231 N 
ATOM      3  HN  UNK N   1      20.137  19.650   3.871  1.00  0.00     0.197 HD
HETATM    4  O   UNK N   1      19.627  17.719   3.268  0.00  0.00    -0.154 OA
HETATM    5  N   UNK N   1      19.644  17.051   2.146  0.00  0.00    -0.217 N 
ATOM      6  HN  UNK N   1      19.356  16.084   2.001  1.00  0.00     0.199 HD
HETATM    7  C   UNK N   1      20.120  17.900   1.225  0.00  0.00     0.198 A 
ENDROOT
BRANCH   1   8
HETATM    8  C   UNK N   1      20.917  20.314   1.225  0.00  0.00     0.200 C 
HETATM    9  O   UNK N   1      21.607  21.080   1.878  0.00  0.00    -0.645 OA
BRANCH   8  10
HETATM   10  O   UNK N   1      20.646  20.593  -0.064  0.00  0.00    -0.771 OA
HETATM   11  H   UNK N   1      21.344  20.660  -0.686  0.00  0.00     0.167 HD
ENDBRANCH   8  10
ENDBRANCH   1   8
BRANCH   7  12
HETATM   12  O   UNK N   1      20.297  17.603  -0.072  0.00  0.00    -0.343 OA
HETATM   13  H   UNK N   1      19.808  18.059  -0.730  0.00  0.00     0.219 HD
ENDBRANCH   7  12
TORSDOF 3
ENDMDL
MODEL 3
REMARK VINA RESULT:      -4.8     15.489     16.227
REMARK  3 active torsions:
REMARK  status: ('A' for Active; 'I' for Inactive)
REMARK    1  A    between atoms: O_1  and  C_2 
REMARK    2  A    between atoms: C_2  and  C_4 
REMARK    3  A    between atoms: C_10  and  O_11 
ROOT
HETATM    1  C   UNK N   1      34.212  17.135   9.004  0.00  0.00     0.182 A 
HETATM    2  N   UNK N   1      33.103  16.384   8.884  0.00  0.00    -0.231 N 
ATOM      3  HN  UNK N   1      32.390  16.455   8.158  1.00  0.00     0.197 HD
HETATM    4  O   UNK N   1      33.124  15.546   9.887  0.00  0.00    -0.154 OA
HETATM    5  N   UNK N   1      34.169  15.696  10.654  0.00  0.00    -0.217 N 
ATOM      6  HN  UNK N   1      34.400  15.160  11.491  1.00  0.00     0.199 HD
HETATM    7  C   UNK N   1      34.875  16.698  10.114  0.00  0.00     0.198 A 
ENDROOT
BRANCH   1   8
HETATM    8  C   UNK N   1      34.612  18.217   8.093  0.00  0.00     0.200 C 
HETATM    9  O   UNK N   1      34.324  18.164   6.910  0.00  0.00    -0.645 OA
BRANCH   8  10
HETATM   10  O   UNK N   1      35.300  19.274   8.567  0.00  0.00    -0.771 OA
HETATM   11  H   UNK N   1      35.416  20.036   8.032  0.00  0.00     0.167 HD
ENDBRANCH   8  10
ENDBRANCH   1   8
BRANCH   7  12
HETATM   12  O   UNK N   1      36.033  17.171  10.604  0.00  0.00    -0.343 OA
HETATM   13  H   UNK N   1      36.236  18.083  10.532  0.00  0.00     0.219 HD
ENDBRANCH   7  12
TORSDOF 3
ENDMDL
MODEL 4
REMARK VINA RESULT:      -4.7      1.649      3.257
REMARK  3 active torsions:
REMARK  status: ('A' for Active; 'I' for Inactive)
REMARK    1  A    between atoms: O_1  and  C_2 
REMARK    2  A    between atoms: C_2  and  C_4 
REMARK    3  A    between atoms: C_10  and  O_11 
ROOT
HETATM    1  C   UNK N   1      20.479  19.277   1.909  0.00  0.00     0.182 A 
HETATM    2  N   UNK N   1      20.109  18.120   1.333  0.00  0.00    -0.231 N 
ATOM      3  HN  UNK N   1      20.054  17.922   0.334  1.00  0.00     0.197 HD
HETATM    4  O   UNK N   1      19.833  17.300   2.314  0.00  0.00    -0.154 OA
HETATM    5  N   UNK N   1      19.998  17.840   3.491  0.00  0.00    -0.217 N 
ATOM      6  HN  UNK N   1      19.845  17.398   4.397  1.00  0.00     0.199 HD
HETATM    7  C   UNK N   1      20.407  19.095   3.260  0.00  0.00     0.198 A 
ENDROOT
BRANCH   1   8
HETATM    8  C   UNK N   1      20.881  20.496   1.193  0.00  0.00     0.200 C 
HETATM    9  O   UNK N   1      21.455  21.396   1.784  0.00  0.00    -0.645 OA
BRANCH   8  10
HETATM   10  O   UNK N   1      20.616  20.622  -0.121  0.00  0.00    -0.771 OA
HETATM   11  H   UNK N   1      21.291  20.898  -0.711  0.00  0.00     0.167 HD
ENDBRANCH   8  10
ENDBRANCH   1   8
BRANCH   7  12
HETATM   12  O   UNK N   1      20.690  19.996   4.215  0.00  0.00    -0.343 OA
HETATM   13  H   UNK N   1      20.463  20.897   4.092  0.00  0.00     0.219 HD
ENDBRANCH   7  12
TORSDOF 3
ENDMDL
MODEL 5
REMARK VINA RESULT:      -4.6     15.401     16.087
REMARK  3 active torsions:
REMARK  status: ('A' for Active; 'I' for Inactive)
REMARK    1  A    between atoms: O_1  and  C_2 
REMARK    2  A    between atoms: C_2  and  C_4 
REMARK    3  A    between atoms: C_10  and  O_11 
ROOT
HETATM    1  C   UNK N   1      34.502  17.203   9.233  0.00  0.00     0.182 A 
HETATM    2  N   UNK N   1      35.076  17.127  10.447  0.00  0.00    -0.231 N 
ATOM      3  HN  UNK N   1      35.755  17.777  10.846  1.00  0.00     0.197 HD
HETATM    4  O   UNK N   1      34.589  16.054  11.011  0.00  0.00    -0.154 OA
HETATM    5  N   UNK N   1      33.736  15.422  10.251  0.00  0.00    -0.217 N 
ATOM      6  HN  UNK N   1      33.230  14.565  10.475  1.00  0.00     0.199 HD
HETATM    7  C   UNK N   1      33.664  16.132   9.118  0.00  0.00     0.198 A 
ENDROOT
BRANCH   1   8
HETATM    8  C   UNK N   1      34.750  18.254   8.236  0.00  0.00     0.200 C 
HETATM    9  O   UNK N   1      34.389  18.104   7.081  0.00  0.00    -0.645 OA
BRANCH   8  10
HETATM   10  O   UNK N   1      35.378  19.390   8.598  0.00  0.00    -0.771 OA
HETATM   11  H   UNK N   1      35.848  19.889   7.959  0.00  0.00     0.167 HD
ENDBRANCH   8  10
ENDBRANCH   1   8
BRANCH   7  12
HETATM   12  O   UNK N   1      32.891  15.818   8.065  0.00  0.00    -0.343 OA
HETATM   13  H   UNK N   1      32.911  14.951   7.709  0.00  0.00     0.219 HD
ENDBRANCH   7  12
TORSDOF 3
ENDMDL
MODEL 6
REMARK VINA RESULT:      -4.6      1.612      3.574
REMARK  3 active torsions:
REMARK  status: ('A' for Active; 'I' for Inactive)
REMARK    1  A    between atoms: O_1  and  C_2 
REMARK    2  A    between atoms: C_2  and  C_4 
REMARK    3  A    between atoms: C_10  and  O_11 
ROOT
HETATM    1  C   UNK N   1      20.618  19.730   1.894  0.00  0.00     0.182 A 
HETATM    2  N   UNK N   1      20.737  19.979   0.578  0.00  0.00    -0.231 N 
ATOM      3  HN  UNK N   1      21.014  20.859   0.143  1.00  0.00     0.197 HD
HETATM    4  O   UNK N   1      20.425  18.865  -0.031  0.00  0.00    -0.154 OA
HETATM    5  N   UNK N   1      20.110  17.904   0.795  0.00  0.00    -0.217 N 
ATOM      6  HN  UNK N   1      19.834  16.953   0.555  1.00  0.00     0.199 HD
HETATM    7  C   UNK N   1      20.225  18.429   2.022  0.00  0.00     0.198 A 
ENDROOT
BRANCH   1   8
HETATM    8  C   UNK N   1      20.871  20.697   2.972  0.00  0.00     0.200 C 
HETATM    9  O   UNK N   1      20.329  20.565   4.056  0.00  0.00    -0.645 OA
BRANCH   8  10
HETATM   10  O   UNK N   1      21.704  21.734   2.763  0.00  0.00    -0.771 OA
HETATM   11  H   UNK N   1      22.377  21.929   3.386  0.00  0.00     0.167 HD
ENDBRANCH   8  10
ENDBRANCH   1   8
BRANCH   7  12
HETATM   12  O   UNK N   1      19.988  17.764   3.165  0.00  0.00    -0.343 OA
HETATM   13  H   UNK N   1      19.577  18.201   3.886  0.00  0.00     0.219 HD
ENDBRANCH   7  12
TORSDOF 3
ENDMDL
MODEL 7
REMARK VINA RESULT:      -4.5      7.650      8.334
REMARK  3 active torsions:
REMARK  status: ('A' for Active; 'I' for Inactive)
REMARK    1  A    between atoms: O_1  and  C_2 
REMARK    2  A    between atoms: C_2  and  C_4 
REMARK    3  A    between atoms: C_10  and  O_11 
ROOT
HETATM    1  C   UNK N   1      18.495  17.913   9.454  0.00  0.00     0.182 A 
HETATM    2  N   UNK N   1      17.208  17.739   9.805  0.00  0.00    -0.231 N 
ATOM      3  HN  UNK N   1      16.569  17.023   9.460  1.00  0.00     0.197 HD
HETATM    4  O   UNK N   1      16.943  18.673  10.680  0.00  0.00    -0.154 OA
HETATM    5  N   UNK N   1      17.966  19.447  10.925  0.00  0.00    -0.217 N 
ATOM      6  HN  UNK N   1      17.999  20.239  11.567  1.00  0.00     0.199 HD
HETATM    7  C   UNK N   1      18.963  18.984  10.159  0.00  0.00     0.198 A 
ENDROOT
BRANCH   1   8
HETATM    8  C   UNK N   1      19.234  17.088   8.487  0.00  0.00     0.200 C 
HETATM    9  O   UNK N   1      18.652  16.247   7.823  0.00  0.00    -0.645 OA
BRANCH   8  10
HETATM   10  O   UNK N   1      20.561  17.260   8.333  0.00  0.00    -0.771 OA
HETATM   11  H   UNK N   1      21.156  16.921   8.973  0.00  0.00     0.167 HD
ENDBRANCH   8  10
ENDBRANCH   1   8
BRANCH   7  12
HETATM   12  O   UNK N   1      20.200  19.505  10.113  0.00  0.00    -0.343 OA
HETATM   13  H   UNK N   1      20.776  19.286   9.406  0.00  0.00     0.219 HD
ENDBRANCH   7  12
TORSDOF 3
ENDMDL
MODEL 8
REMARK VINA RESULT:      -4.5     17.939     18.498
REMARK  3 active torsions:
REMARK  status: ('A' for Active; 'I' for Inactive)
REMARK    1  A    between atoms: O_1  and  C_2 
REMARK    2  A    between atoms: C_2  and  C_4 
REMARK    3  A    between atoms: C_10  and  O_11 
ROOT
HETATM    1  C   UNK N   1      35.589  14.894  11.759  0.00  0.00     0.182 A 
HETATM    2  N   UNK N   1      36.653  15.662  11.464  0.00  0.00    -0.231 N 
ATOM      3  HN  UNK N   1      37.613  15.528  11.783  1.00  0.00     0.197 HD
HETATM    4  O   UNK N   1      36.208  16.613  10.687  0.00  0.00    -0.154 OA
HETATM    5  N   UNK N   1      34.927  16.522  10.452  0.00  0.00    -0.217 N 
ATOM      6  HN  UNK N   1      34.361  17.146   9.878  1.00  0.00     0.199 HD
HETATM    7  C   UNK N   1      34.512  15.438  11.122  0.00  0.00     0.198 A 
ENDROOT
BRANCH   1   8
HETATM    8  C   UNK N   1      35.611  13.696  12.611  0.00  0.00     0.200 C 
HETATM    9  O   UNK N   1      36.654  13.320  13.118  0.00  0.00    -0.645 OA
BRANCH   8  10
HETATM   10  O   UNK N   1      34.474  13.010  12.835  0.00  0.00    -0.771 OA
HETATM   11  H   UNK N   1      33.702  13.207  12.341  0.00  0.00     0.167 HD
ENDBRANCH   8  10
ENDBRANCH   1   8
BRANCH   7  12
HETATM   12  O   UNK N   1      33.246  14.989  11.144  0.00  0.00    -0.343 OA
HETATM   13  H   UNK N   1      33.071  14.089  11.335  0.00  0.00     0.219 HD
ENDBRANCH   7  12
TORSDOF 3
ENDMDL
MODEL 9
REMARK VINA RESULT:      -4.4     16.875     17.570
REMARK  3 active torsions:
REMARK  status: ('A' for Active; 'I' for Inactive)
REMARK    1  A    between atoms: O_1  and  C_2 
REMARK    2  A    between atoms: C_2  and  C_4 
REMARK    3  A    between atoms: C_10  and  O_11 
ROOT
HETATM    1  C   UNK N   1      34.716  15.853  10.632  0.00  0.00     0.182 A 
HETATM    2  N   UNK N   1      33.806  15.005  11.143  0.00  0.00    -0.231 N 
ATOM      3  HN  UNK N   1      32.802  15.000  10.961  1.00  0.00     0.197 HD
HETATM    4  O   UNK N   1      34.468  14.188  11.919  0.00  0.00    -0.154 OA
HETATM    5  N   UNK N   1      35.749  14.443  11.952  0.00  0.00    -0.217 N 
ATOM      6  HN  UNK N   1      36.462  13.944  12.483  1.00  0.00     0.199 HD
HETATM    7  C   UNK N   1      35.930  15.495  11.143  0.00  0.00     0.198 A 
ENDROOT
BRANCH   1   8
HETATM    8  C   UNK N   1      34.429  16.953   9.699  0.00  0.00     0.200 C 
HETATM    9  O   UNK N   1      35.282  17.788   9.452  0.00  0.00    -0.645 OA
BRANCH   8  10
HETATM   10  O   UNK N   1      33.219  17.039   9.114  0.00  0.00    -0.771 OA
HETATM   11  H   UNK N   1      32.559  16.402   9.305  0.00  0.00     0.167 HD
ENDBRANCH   8  10
ENDBRANCH   1   8
BRANCH   7  12
HETATM   12  O   UNK N   1      37.115  16.077  10.897  0.00  0.00    -0.343 OA
HETATM   13  H   UNK N   1      37.908  15.583  10.983  0.00  0.00     0.219 HD
ENDBRANCH   7  12
TORSDOF 3
ENDMDL
