MODEL 1
REMARK VINA RESULT:      -6.1      0.000      0.000
REMARK  8 active torsions:
REMARK  status: ('A' for Active; 'I' for Inactive)
REMARK    1  A    between atoms: C_1  and  O_7 
REMARK    2  A    between atoms: C_2  and  O_8 
REMARK    3  A    between atoms: C_3  and  C_5 
REMARK    4  A    between atoms: C_4  and  O_16 
REMARK    5  A    between atoms: O_9  and  C_5 
REMARK    6  A    between atoms: C_6  and  O_11 
REMARK    7  A    between atoms: S_17  and  O_12 
REMARK    8  A    between atoms: S_17  and  O_16 
ROOT
HETATM    1  C   UNK N   1      36.311  14.591  10.261  0.00  0.00     0.189 C 
HETATM    2  C   UNK N   1      35.725  15.175   8.942  0.00  0.00     0.185 C 
HETATM    3  C   UNK N   1      35.323  14.743  11.451  0.00  0.00     0.253 C 
HETATM    4  C   UNK N   1      34.336  15.790   9.182  0.00  0.00     0.230 C 
HETATM    5  C   UNK N   1      33.455  14.752   9.963  0.00  0.00     0.291 C 
HETATM    6  O   UNK N   1      34.068  14.178  11.118  0.00  0.00    -0.340 OA
ENDROOT
BRANCH   4   7
HETATM    7  O   UNK N   1      33.807  16.357   7.980  0.00  0.00    -0.251 OA
BRANCH   7   8
HETATM    8  S   UNK N   1      33.612  18.083   8.018  0.00  0.00     0.241 S 
HETATM    9  O   UNK N   1      34.653  17.817   6.920  0.00  0.00    -0.579 OA
HETATM   10  O   UNK N   1      34.316  17.666   9.321  0.00  0.00    -0.579 OA
BRANCH   8  11
HETATM   11  O   UNK N   1      34.913  19.157   8.334  0.00  0.00    -0.274 OA
HETATM   12  H   UNK N   1      35.023  19.561   9.209  0.00  0.00     0.234 HD
ENDBRANCH   8  11
ENDBRANCH   7   8
ENDBRANCH   4   7
BRANCH   2  13
HETATM   13  O   UNK N   1      35.634  14.162   7.981  0.00  0.00    -0.390 OA
HETATM   14  H   UNK N   1      35.524  13.813   7.083  0.00  0.00     0.210 HD
ENDBRANCH   2  13
BRANCH   5  15
HETATM   15  O   UNK N   1      32.254  15.347  10.350  0.00  0.00    -0.368 OA
HETATM   16  H   UNK N   1      32.151  16.121  10.926  0.00  0.00     0.212 HD
ENDBRANCH   5  15
BRANCH   1  17
HETATM   17  O   UNK N   1      37.522  15.222  10.566  0.00  0.00    -0.390 OA
HETATM   18  H   UNK N   1      38.058  15.197  11.373  0.00  0.00     0.210 HD
ENDBRANCH   1  17
BRANCH   3  19
HETATM   19  C   UNK N   1      35.806  14.088  12.722  0.00  0.00     0.172 C 
HETATM   20  O   UNK N   1      35.030  13.801  13.622  0.00  0.00    -0.648 OA
BRANCH  19  21
HETATM   21  O   UNK N   1      37.116  13.811  12.864  0.00  0.00    -0.774 OA
HETATM   22  H   UNK N   1      37.755  14.477  13.023  0.00  0.00     0.167 HD
ENDBRANCH  19  21
ENDBRANCH   3  19
TORSDOF 8
ENDMDL
MODEL 2
REMARK VINA RESULT:      -6.0      2.062      3.561
REMARK  8 active torsions:
REMARK  status: ('A' for Active; 'I' for Inactive)
REMARK    1  A    between atoms: C_1  and  O_7 
REMARK    2  A    between atoms: C_2  and  O_8 
REMARK    3  A    between atoms: C_3  and  C_5 
REMARK    4  A    between atoms: C_4  and  O_16 
REMARK    5  A    between atoms: O_9  and  C_5 
REMARK    6  A    between atoms: C_6  and  O_11 
REMARK    7  A    between atoms: S_17  and  O_12 
REMARK    8  A    between atoms: S_17  and  O_16 
ROOT
HETATM    1  C   UNK N   1      33.497  15.453   9.826  0.00  0.00     0.189 C 
HETATM    2  C   UNK N   1      32.590  15.971   8.672  0.00  0.00     0.185 C 
HETATM    3  C   UNK N   1      34.927  16.061   9.757  0.00  0.00     0.253 C 
HETATM    4  C   UNK N   1      33.369  16.915   7.740  0.00  0.00     0.230 C 
HETATM    5  C   UNK N   1      34.104  17.990   8.615  0.00  0.00     0.291 C 
HETATM    6  O   UNK N   1      34.854  17.474   9.715  0.00  0.00    -0.340 OA
ENDROOT
BRANCH   4   7
HETATM    7  O   UNK N   1      32.549  17.367   6.660  0.00  0.00    -0.251 OA
BRANCH   7   8
HETATM    8  S   UNK N   1      32.911  16.642   5.123  0.00  0.00     0.241 S 
HETATM    9  O   UNK N   1      33.900  17.808   5.263  0.00  0.00    -0.579 OA
HETATM   10  O   UNK N   1      31.535  17.320   5.004  0.00  0.00    -0.579 OA
BRANCH   8  11
HETATM   11  O   UNK N   1      32.826  17.509   3.645  0.00  0.00    -0.274 OA
HETATM   12  H   UNK N   1      33.633  17.775   3.177  0.00  0.00     0.234 HD
ENDBRANCH   8  11
ENDBRANCH   7   8
ENDBRANCH   4   7
BRANCH   2  13
HETATM   13  O   UNK N   1      31.487  16.643   9.209  0.00  0.00    -0.390 OA
HETATM   14  H   UNK N   1      30.582  16.708   9.554  0.00  0.00     0.210 HD
ENDBRANCH   2  13
BRANCH   5  15
HETATM   15  O   UNK N   1      34.960  18.748   7.815  0.00  0.00    -0.368 OA
HETATM   16  H   UNK N   1      34.710  19.491   7.242  0.00  0.00     0.212 HD
ENDBRANCH   5  15
BRANCH   1  17
HETATM   17  O   UNK N   1      33.572  14.057   9.785  0.00  0.00    -0.390 OA
HETATM   18  H   UNK N   1      34.320  13.462   9.947  0.00  0.00     0.210 HD
ENDBRANCH   1  17
BRANCH   3  19
HETATM   19  C   UNK N   1      35.803  15.672  10.923  0.00  0.00     0.172 C 
HETATM   20  O   UNK N   1      35.346  15.081  11.889  0.00  0.00    -0.648 OA
BRANCH  19  21
HETATM   21  O   UNK N   1      37.113  15.981  10.895  0.00  0.00    -0.774 OA
HETATM   22  H   UNK N   1      37.723  15.641  11.520  0.00  0.00     0.167 HD
ENDBRANCH  19  21
ENDBRANCH   3  19
TORSDOF 8
ENDMDL
MODEL 3
REMARK VINA RESULT:      -6.0      1.424      2.512
REMARK  8 active torsions:
REMARK  status: ('A' for Active; 'I' for Inactive)
REMARK    1  A    between atoms: C_1  and  O_7 
REMARK    2  A    between atoms: C_2  and  O_8 
REMARK    3  A    between atoms: C_3  and  C_5 
REMARK    4  A    between atoms: C_4  and  O_16 
REMARK    5  A    between atoms: O_9  and  C_5 
REMARK    6  A    between atoms: C_6  and  O_11 
REMARK    7  A    between atoms: S_17  and  O_12 
REMARK    8  A    between atoms: S_17  and  O_16 
ROOT
HETATM    1  C   UNK N   1      34.600  13.770  10.789  0.00  0.00     0.189 C 
HETATM    2  C   UNK N   1      33.740  14.640   9.826  0.00  0.00     0.185 C 
HETATM    3  C   UNK N   1      35.973  14.431  11.098  0.00  0.00     0.253 C 
HETATM    4  C   UNK N   1      34.503  15.907   9.400  0.00  0.00     0.230 C 
HETATM    5  C   UNK N   1      35.075  16.605  10.684  0.00  0.00     0.291 C 
HETATM    6  O   UNK N   1      35.782  15.748  11.581  0.00  0.00    -0.340 OA
ENDROOT
BRANCH   4   7
HETATM    7  O   UNK N   1      33.730  16.693   8.490  0.00  0.00    -0.251 OA
BRANCH   7   8
HETATM    8  S   UNK N   1      34.333  16.717   6.861  0.00  0.00     0.241 S 
HETATM    9  O   UNK N   1      34.748  18.067   7.466  0.00  0.00    -0.579 OA
HETATM   10  O   UNK N   1      32.798  16.786   6.788  0.00  0.00    -0.579 OA
BRANCH   8  11
HETATM   11  O   UNK N   1      33.868  17.908   5.716  0.00  0.00    -0.274 OA
HETATM   12  H   UNK N   1      34.448  18.138   4.973  0.00  0.00     0.234 HD
ENDBRANCH   8  11
ENDBRANCH   7   8
ENDBRANCH   4   7
BRANCH   2  13
HETATM   13  O   UNK N   1      32.546  15.000  10.460  0.00  0.00    -0.390 OA
HETATM   14  H   UNK N   1      31.806  15.593  10.665  0.00  0.00     0.210 HD
ENDBRANCH   2  13
BRANCH   5  15
HETATM   15  O   UNK N   1      35.919  17.653  10.317  0.00  0.00    -0.368 OA
HETATM   16  H   UNK N   1      35.844  18.580  10.593  0.00  0.00     0.212 HD
ENDBRANCH   5  15
BRANCH   1  17
HETATM   17  O   UNK N   1      34.798  12.501  10.237  0.00  0.00    -0.390 OA
HETATM   18  H   UNK N   1      34.470  11.633  10.520  0.00  0.00     0.210 HD
ENDBRANCH   1  17
BRANCH   3  19
HETATM   19  C   UNK N   1      36.789  13.674  12.117  0.00  0.00     0.172 C 
HETATM   20  O   UNK N   1      37.358  12.633  11.826  0.00  0.00    -0.648 OA
BRANCH  19  21
HETATM   21  O   UNK N   1      36.895  14.159  13.369  0.00  0.00    -0.774 OA
HETATM   22  H   UNK N   1      36.370  13.841  14.077  0.00  0.00     0.167 HD
ENDBRANCH  19  21
ENDBRANCH   3  19
TORSDOF 8
ENDMDL
MODEL 4
REMARK VINA RESULT:      -5.9      2.179      5.501
REMARK  8 active torsions:
REMARK  status: ('A' for Active; 'I' for Inactive)
REMARK    1  A    between atoms: C_1  and  O_7 
REMARK    2  A    between atoms: C_2  and  O_8 
REMARK    3  A    between atoms: C_3  and  C_5 
REMARK    4  A    between atoms: C_4  and  O_16 
REMARK    5  A    between atoms: O_9  and  C_5 
REMARK    6  A    between atoms: C_6  and  O_11 
REMARK    7  A    between atoms: S_17  and  O_12 
REMARK    8  A    between atoms: S_17  and  O_16 
ROOT
HETATM    1  C   UNK N   1      33.358  16.100   9.115  0.00  0.00     0.189 C 
HETATM    2  C   UNK N   1      33.450  14.977  10.189  0.00  0.00     0.185 C 
HETATM    3  C   UNK N   1      34.496  17.148   9.273  0.00  0.00     0.253 C 
HETATM    4  C   UNK N   1      34.622  15.231  11.153  0.00  0.00     0.230 C 
HETATM    5  C   UNK N   1      35.911  15.527  10.309  0.00  0.00     0.291 C 
HETATM    6  O   UNK N   1      35.756  16.503   9.278  0.00  0.00    -0.340 OA
ENDROOT
BRANCH   4   7
HETATM    7  O   UNK N   1      34.690  14.220  12.162  0.00  0.00    -0.251 OA
BRANCH   7   8
HETATM    8  S   UNK N   1      35.996  13.091  11.967  0.00  0.00     0.241 S 
HETATM    9  O   UNK N   1      34.738  12.228  12.144  0.00  0.00    -0.579 OA
HETATM   10  O   UNK N   1      36.180  13.783  13.329  0.00  0.00    -0.579 OA
BRANCH   8  11
HETATM   11  O   UNK N   1      36.395  11.919  13.156  0.00  0.00    -0.274 OA
HETATM   12  H   UNK N   1      36.915  12.160  13.938  0.00  0.00     0.234 HD
ENDBRANCH   8  11
ENDBRANCH   7   8
ENDBRANCH   4   7
BRANCH   2  13
HETATM   13  O   UNK N   1      33.618  13.739   9.559  0.00  0.00    -0.390 OA
HETATM   14  H   UNK N   1      33.974  12.841   9.472  0.00  0.00     0.210 HD
ENDBRANCH   2  13
BRANCH   5  15
HETATM   15  O   UNK N   1      36.945  15.937  11.153  0.00  0.00    -0.368 OA
HETATM   16  H   UNK N   1      36.851  16.380  12.010  0.00  0.00     0.212 HD
ENDBRANCH   5  15
BRANCH   1  17
HETATM   17  O   UNK N   1      32.114  16.734   9.193  0.00  0.00    -0.390 OA
HETATM   18  H   UNK N   1      31.337  16.529   9.735  0.00  0.00     0.210 HD
ENDBRANCH   1  17
BRANCH   3  19
HETATM   19  C   UNK N   1      34.509  18.191   8.183  0.00  0.00     0.172 C 
HETATM   20  O   UNK N   1      35.054  19.272   8.347  0.00  0.00    -0.648 OA
BRANCH  19  21
HETATM   21  O   UNK N   1      33.913  17.922   7.006  0.00  0.00    -0.774 OA
HETATM   22  H   UNK N   1      33.481  18.581   6.499  0.00  0.00     0.167 HD
ENDBRANCH  19  21
ENDBRANCH   3  19
TORSDOF 8
ENDMDL
MODEL 5
REMARK VINA RESULT:      -5.9     13.846     16.254
REMARK  8 active torsions:
REMARK  status: ('A' for Active; 'I' for Inactive)
REMARK    1  A    between atoms: C_1  and  O_7 
REMARK    2  A    between atoms: C_2  and  O_8 
REMARK    3  A    between atoms: C_3  and  C_5 
REMARK    4  A    between atoms: C_4  and  O_16 
REMARK    5  A    between atoms: O_9  and  C_5 
REMARK    6  A    between atoms: C_6  and  O_11 
REMARK    7  A    between atoms: S_17  and  O_12 
REMARK    8  A    between atoms: S_17  and  O_16 
ROOT
HETATM    1  C   UNK N   1      20.076  18.171   2.758  0.00  0.00     0.189 C 
HETATM    2  C   UNK N   1      20.017  16.958   3.733  0.00  0.00     0.185 C 
HETATM    3  C   UNK N   1      20.937  19.333   3.331  0.00  0.00     0.253 C 
HETATM    4  C   UNK N   1      20.793  17.254   5.028  0.00  0.00     0.230 C 
HETATM    5  C   UNK N   1      22.213  17.804   4.648  0.00  0.00     0.291 C 
HETATM    6  O   UNK N   1      22.223  18.858   3.685  0.00  0.00    -0.340 OA
ENDROOT
BRANCH   4   7
HETATM    7  O   UNK N   1      20.714  16.155   5.940  0.00  0.00    -0.251 OA
BRANCH   7   8
HETATM    8  S   UNK N   1      19.604  16.385   7.256  0.00  0.00     0.241 S 
HETATM    9  O   UNK N   1      20.992  16.685   7.840  0.00  0.00    -0.579 OA
HETATM   10  O   UNK N   1      19.641  14.880   6.936  0.00  0.00    -0.579 OA
BRANCH   8  11
HETATM   11  O   UNK N   1      19.701  15.492   8.718  0.00  0.00    -0.274 OA
HETATM   12  H   UNK N   1      20.075  15.889   9.520  0.00  0.00     0.234 HD
ENDBRANCH   8  11
ENDBRANCH   7   8
ENDBRANCH   4   7
BRANCH   2  13
HETATM   13  O   UNK N   1      20.556  15.829   3.107  0.00  0.00    -0.390 OA
HETATM   14  H   UNK N   1      20.638  14.878   2.934  0.00  0.00     0.210 HD
ENDBRANCH   2  13
BRANCH   5  15
HETATM   15  O   UNK N   1      22.871  18.247   5.796  0.00  0.00    -0.368 OA
HETATM   16  H   UNK N   1      22.694  19.067   6.284  0.00  0.00     0.212 HD
ENDBRANCH   5  15
BRANCH   1  17
HETATM   17  O   UNK N   1      18.783  18.628   2.486  0.00  0.00    -0.390 OA
HETATM   18  H   UNK N   1      18.480  19.368   1.938  0.00  0.00     0.210 HD
ENDBRANCH   1  17
BRANCH   3  19
HETATM   19  C   UNK N   1      21.113  20.482   2.368  0.00  0.00     0.172 C 
HETATM   20  O   UNK N   1      20.782  20.383   1.196  0.00  0.00    -0.648 OA
BRANCH  19  21
HETATM   21  O   UNK N   1      21.641  21.639   2.812  0.00  0.00    -0.774 OA
HETATM   22  H   UNK N   1      21.647  21.873   3.719  0.00  0.00     0.167 HD
ENDBRANCH  19  21
ENDBRANCH   3  19
TORSDOF 8
ENDMDL
MODEL 6
REMARK VINA RESULT:      -5.8      1.571      2.863
REMARK  8 active torsions:
REMARK  status: ('A' for Active; 'I' for Inactive)
REMARK    1  A    between atoms: C_1  and  O_7 
REMARK    2  A    between atoms: C_2  and  O_8 
REMARK    3  A    between atoms: C_3  and  C_5 
REMARK    4  A    between atoms: C_4  and  O_16 
REMARK    5  A    between atoms: O_9  and  C_5 
REMARK    6  A    between atoms: C_6  and  O_11 
REMARK    7  A    between atoms: S_17  and  O_12 
REMARK    8  A    between atoms: S_17  and  O_16 
ROOT
HETATM    1  C   UNK N   1      34.422  15.117  10.857  0.00  0.00     0.189 C 
HETATM    2  C   UNK N   1      34.567  16.095   9.654  0.00  0.00     0.185 C 
HETATM    3  C   UNK N   1      34.985  13.705  10.527  0.00  0.00     0.253 C 
HETATM    4  C   UNK N   1      35.191  15.386   8.440  0.00  0.00     0.230 C 
HETATM    5  C   UNK N   1      36.481  14.626   8.909  0.00  0.00     0.291 C 
HETATM    6  O   UNK N   1      36.320  13.808  10.068  0.00  0.00    -0.340 OA
ENDROOT
BRANCH   4   7
HETATM    7  O   UNK N   1      35.297  16.272   7.323  0.00  0.00    -0.251 OA
BRANCH   7   8
HETATM    8  S   UNK N   1      33.776  16.791   6.664  0.00  0.00     0.241 S 
HETATM    9  O   UNK N   1      34.545  16.189   5.479  0.00  0.00    -0.579 OA
HETATM   10  O   UNK N   1      34.574  18.052   7.038  0.00  0.00    -0.579 OA
BRANCH   8  11
HETATM   11  O   UNK N   1      33.658  17.940   5.395  0.00  0.00    -0.274 OA
HETATM   12  H   UNK N   1      33.016  18.667   5.439  0.00  0.00     0.234 HD
ENDBRANCH   8  11
ENDBRANCH   7   8
ENDBRANCH   4   7
BRANCH   2  13
HETATM   13  O   UNK N   1      35.366  17.181  10.029  0.00  0.00    -0.390 OA
HETATM   14  H   UNK N   1      35.588  18.122  10.102  0.00  0.00     0.210 HD
ENDBRANCH   2  13
BRANCH   5  15
HETATM   15  O   UNK N   1      36.967  13.831   7.871  0.00  0.00    -0.368 OA
HETATM   16  H   UNK N   1      36.727  13.895   6.933  0.00  0.00     0.212 HD
ENDBRANCH   5  15
BRANCH   1  17
HETATM   17  O   UNK N   1      33.078  15.016  11.231  0.00  0.00    -0.390 OA
HETATM   18  H   UNK N   1      32.594  14.288  11.648  0.00  0.00     0.210 HD
ENDBRANCH   1  17
BRANCH   3  19
HETATM   19  C   UNK N   1      34.966  12.760  11.703  0.00  0.00     0.172 C 
HETATM   20  O   UNK N   1      35.443  11.638  11.621  0.00  0.00    -0.648 OA
BRANCH  19  21
HETATM   21  O   UNK N   1      34.417  13.163  12.864  0.00  0.00    -0.774 OA
HETATM   22  H   UNK N   1      34.920  13.267  13.648  0.00  0.00     0.167 HD
ENDBRANCH  19  21
ENDBRANCH   3  19
TORSDOF 8
ENDMDL
MODEL 7
REMARK VINA RESULT:      -5.7     14.649     16.575
REMARK  8 active torsions:
REMARK  status: ('A' for Active; 'I' for Inactive)
REMARK    1  A    between atoms: C_1  and  O_7 
REMARK    2  A    between atoms: C_2  and  O_8 
REMARK    3  A    between atoms: C_3  and  C_5 
REMARK    4  A    between atoms: C_4  and  O_16 
REMARK    5  A    between atoms: O_9  and  C_5 
REMARK    6  A    between atoms: C_6  and  O_11 
REMARK    7  A    between atoms: S_17  and  O_12 
REMARK    8  A    between atoms: S_17  and  O_16 
ROOT
HETATM    1  C   UNK N   1      21.673  19.892   3.418  0.00  0.00     0.189 C 
HETATM    2  C   UNK N   1      21.776  18.732   4.451  0.00  0.00     0.185 C 
HETATM    3  C   UNK N   1      21.008  19.429   2.091  0.00  0.00     0.253 C 
HETATM    4  C   UNK N   1      21.230  17.420   3.862  0.00  0.00     0.230 C 
HETATM    5  C   UNK N   1      19.820  17.700   3.232  0.00  0.00     0.291 C 
HETATM    6  O   UNK N   1      19.755  18.827   2.358  0.00  0.00    -0.340 OA
ENDROOT
BRANCH   4   7
HETATM    7  O   UNK N   1      21.352  16.344   4.796  0.00  0.00    -0.251 OA
BRANCH   7   8
HETATM    8  S   UNK N   1      19.909  16.002   5.699  0.00  0.00     0.241 S 
HETATM    9  O   UNK N   1      21.011  16.185   6.752  0.00  0.00    -0.579 OA
HETATM   10  O   UNK N   1      20.303  14.717   4.951  0.00  0.00    -0.579 OA
BRANCH   8  11
HETATM   11  O   UNK N   1      19.773  14.660   6.759  0.00  0.00    -0.274 OA
HETATM   12  H   UNK N   1      19.856  13.752   6.426  0.00  0.00     0.234 HD
ENDBRANCH   8  11
ENDBRANCH   7   8
ENDBRANCH   4   7
BRANCH   2  13
HETATM   13  O   UNK N   1      21.057  19.067   5.604  0.00  0.00    -0.390 OA
HETATM   14  H   UNK N   1      20.857  19.036   6.552  0.00  0.00     0.210 HD
ENDBRANCH   2  13
BRANCH   5  15
HETATM   15  O   UNK N   1      19.381  16.575   2.535  0.00  0.00    -0.368 OA
HETATM   16  H   UNK N   1      18.705  15.942   2.825  0.00  0.00     0.212 HD
ENDBRANCH   5  15
BRANCH   1  17
HETATM   17  O   UNK N   1      22.945  20.412   3.156  0.00  0.00    -0.390 OA
HETATM   18  H   UNK N   1      23.360  21.237   3.449  0.00  0.00     0.210 HD
ENDBRANCH   1  17
BRANCH   3  19
HETATM   19  C   UNK N   1      20.787  20.551   1.105  0.00  0.00     0.172 C 
HETATM   20  O   UNK N   1      20.829  21.720   1.457  0.00  0.00    -0.648 OA
BRANCH  19  21
HETATM   21  O   UNK N   1      20.542  20.256  -0.186  0.00  0.00    -0.774 OA
HETATM   22  H   UNK N   1      20.867  20.780  -0.891  0.00  0.00     0.167 HD
ENDBRANCH  19  21
ENDBRANCH   3  19
TORSDOF 8
ENDMDL
MODEL 8
REMARK VINA RESULT:      -5.5     11.914     13.833
REMARK  8 active torsions:
REMARK  status: ('A' for Active; 'I' for Inactive)
REMARK    1  A    between atoms: C_1  and  O_7 
REMARK    2  A    between atoms: C_2  and  O_8 
REMARK    3  A    between atoms: C_3  and  C_5 
REMARK    4  A    between atoms: C_4  and  O_16 
REMARK    5  A    between atoms: O_9  and  C_5 
REMARK    6  A    between atoms: C_6  and  O_11 
REMARK    7  A    between atoms: S_17  and  O_12 
REMARK    8  A    between atoms: S_17  and  O_16 
ROOT
HETATM    1  C   UNK N   1      42.211  21.654   1.778  0.00  0.00     0.189 C 
HETATM    2  C   UNK N   1      42.715  23.125   1.855  0.00  0.00     0.185 C 
HETATM    3  C   UNK N   1      43.055  20.705   2.674  0.00  0.00     0.253 C 
HETATM    4  C   UNK N   1      43.949  23.238   2.767  0.00  0.00     0.230 C 
HETATM    5  C   UNK N   1      43.640  22.511   4.123  0.00  0.00     0.291 C 
HETATM    6  O   UNK N   1      43.097  21.196   4.001  0.00  0.00    -0.340 OA
ENDROOT
BRANCH   4   7
HETATM    7  O   UNK N   1      44.435  24.582   2.815  0.00  0.00    -0.251 OA
BRANCH   7   8
HETATM    8  S   UNK N   1      45.792  24.898   1.778  0.00  0.00     0.241 S 
HETATM    9  O   UNK N   1      46.388  24.258   3.041  0.00  0.00    -0.579 OA
HETATM   10  O   UNK N   1      45.248  26.255   2.257  0.00  0.00    -0.579 OA
BRANCH   8  11
HETATM   11  O   UNK N   1      47.100  25.907   2.243  0.00  0.00    -0.274 OA
HETATM   12  H   UNK N   1      48.011  25.690   1.988  0.00  0.00     0.234 HD
ENDBRANCH   8  11
ENDBRANCH   7   8
ENDBRANCH   4   7
BRANCH   2  13
HETATM   13  O   UNK N   1      41.692  23.946   2.343  0.00  0.00    -0.390 OA
HETATM   14  H   UNK N   1      40.882  24.475   2.270  0.00  0.00     0.210 HD
ENDBRANCH   2  13
BRANCH   5  15
HETATM   15  O   UNK N   1      44.798  22.441   4.897  0.00  0.00    -0.368 OA
HETATM   16  H   UNK N   1      45.707  22.350   4.571  0.00  0.00     0.212 HD
ENDBRANCH   5  15
BRANCH   1  17
HETATM   17  O   UNK N   1      42.240  21.209   0.453  0.00  0.00    -0.390 OA
HETATM   18  H   UNK N   1      42.343  21.703  -0.375  0.00  0.00     0.210 HD
ENDBRANCH   1  17
BRANCH   3  19
HETATM   19  C   UNK N   1      42.529  19.291   2.716  0.00  0.00     0.172 C 
HETATM   20  O   UNK N   1      41.486  19.020   3.291  0.00  0.00    -0.648 OA
BRANCH  19  21
HETATM   21  O   UNK N   1      43.222  18.311   2.104  0.00  0.00    -0.774 OA
HETATM   22  H   UNK N   1      43.190  18.177   1.178  0.00  0.00     0.167 HD
ENDBRANCH  19  21
ENDBRANCH   3  19
TORSDOF 8
ENDMDL
MODEL 9
REMARK VINA RESULT:      -5.5      2.531      5.457
REMARK  8 active torsions:
REMARK  status: ('A' for Active; 'I' for Inactive)
REMARK    1  A    between atoms: C_1  and  O_7 
REMARK    2  A    between atoms: C_2  and  O_8 
REMARK    3  A    between atoms: C_3  and  C_5 
REMARK    4  A    between atoms: C_4  and  O_16 
REMARK    5  A    between atoms: O_9  and  C_5 
REMARK    6  A    between atoms: C_6  and  O_11 
REMARK    7  A    between atoms: S_17  and  O_12 
REMARK    8  A    between atoms: S_17  and  O_16 
ROOT
HETATM    1  C   UNK N   1      33.577  17.653   7.138  0.00  0.00     0.189 C 
HETATM    2  C   UNK N   1      34.745  17.175   8.050  0.00  0.00     0.185 C 
HETATM    3  C   UNK N   1      32.397  16.640   7.130  0.00  0.00     0.253 C 
HETATM    4  C   UNK N   1      34.436  15.800   8.666  0.00  0.00     0.230 C 
HETATM    5  C   UNK N   1      33.000  15.844   9.299  0.00  0.00     0.291 C 
HETATM    6  O   UNK N   1      31.976  16.371   8.454  0.00  0.00    -0.340 OA
ENDROOT
BRANCH   4   7
HETATM    7  O   UNK N   1      35.520  15.343   9.479  0.00  0.00    -0.251 OA
BRANCH   7   8
HETATM    8  S   UNK N   1      35.337  15.662  11.176  0.00  0.00     0.241 S 
HETATM    9  O   UNK N   1      36.691  16.276  10.792  0.00  0.00    -0.579 OA
HETATM   10  O   UNK N   1      35.543  14.147  11.009  0.00  0.00    -0.579 OA
BRANCH   8  11
HETATM   11  O   UNK N   1      36.456  15.104  12.351  0.00  0.00    -0.274 OA
HETATM   12  H   UNK N   1      37.215  14.557  12.095  0.00  0.00     0.234 HD
ENDBRANCH   8  11
ENDBRANCH   7   8
ENDBRANCH   4   7
BRANCH   2  13
HETATM   13  O   UNK N   1      34.957  18.111   9.068  0.00  0.00    -0.390 OA
HETATM   14  H   UNK N   1      34.798  18.943   9.542  0.00  0.00     0.210 HD
ENDBRANCH   2  13
BRANCH   5  15
HETATM   15  O   UNK N   1      32.623  14.564   9.706  0.00  0.00    -0.368 OA
HETATM   16  H   UNK N   1      33.050  14.025  10.390  0.00  0.00     0.212 HD
ENDBRANCH   5  15
BRANCH   1  17
HETATM   17  O   UNK N   1      34.041  17.852   5.834  0.00  0.00    -0.390 OA
HETATM   18  H   UNK N   1      33.679  17.553   4.985  0.00  0.00     0.210 HD
ENDBRANCH   1  17
BRANCH   3  19
HETATM   19  C   UNK N   1      31.198  17.119   6.348  0.00  0.00     0.172 C 
HETATM   20  O   UNK N   1      31.262  17.308   5.143  0.00  0.00    -0.648 OA
BRANCH  19  21
HETATM   21  O   UNK N   1      30.036  17.340   6.992  0.00  0.00    -0.774 OA
HETATM   22  H   UNK N   1      29.873  18.123   7.480  0.00  0.00     0.167 HD
ENDBRANCH  19  21
ENDBRANCH   3  19
TORSDOF 8
ENDMDL
