MODEL 1
REMARK VINA RESULT:      -5.3      0.000      0.000
REMARK  2 active torsions:
REMARK  status: ('A' for Active; 'I' for Inactive)
REMARK    1  A    between atoms: O_1  and  C_2 
REMARK    2  A    between atoms: C_2  and  C_4 
ROOT
HETATM    1  C   UNK N   1      20.349  18.493   1.621  0.00  0.00     0.115 A 
HETATM    2  C   UNK N   1      20.523  18.515   3.005  0.00  0.00     0.111 A 
HETATM    3  C   UNK N   1      20.780  19.727   3.635  0.00  0.00     0.251 A 
HETATM    4  O   UNK N   1      20.934  19.763   4.841  0.00  0.00    -0.268 OA
HETATM    5  N   UNK N   1      20.860  20.877   2.897  0.00  0.00    -0.275 N 
HETATM    6  C   UNK N   1      20.687  20.843   1.537  0.00  0.00     0.327 A 
HETATM    7  O   UNK N   1      20.760  21.870   0.889  0.00  0.00    -0.247 OA
HETATM    8  N   UNK N   1      20.433  19.650   0.909  0.00  0.00    -0.303 N 
HETATM    9  H   UNK N   1      21.042  21.734   3.345  0.00  0.00     0.173 HD
HETATM   10  H   UNK N   1      20.311  19.632  -0.067  0.00  0.00     0.171 HD
ENDROOT
BRANCH   1  11
HETATM   11  C   UNK N   1      20.076  17.220   0.935  0.00  0.00     0.193 C 
HETATM   12  O   UNK N   1      20.333  17.093  -0.252  0.00  0.00    -0.645 OA
BRANCH  11  13
HETATM   13  O   UNK N   1      19.540  16.187   1.613  0.00  0.00    -0.772 OA
HETATM   14  H   UNK N   1      20.086  15.484   1.903  0.00  0.00     0.167 HD
ENDBRANCH  11  13
ENDBRANCH   1  11
TORSDOF 2
ENDMDL
MODEL 2
REMARK VINA RESULT:      -5.3     15.159     16.346
REMARK  2 active torsions:
REMARK  status: ('A' for Active; 'I' for Inactive)
REMARK    1  A    between atoms: O_1  and  C_2 
REMARK    2  A    between atoms: C_2  and  C_4 
ROOT
HETATM    1  C   UNK N   1      34.418  17.164   9.059  0.00  0.00     0.115 A 
HETATM    2  C   UNK N   1      33.360  16.307   8.752  0.00  0.00     0.111 A 
HETATM    3  C   UNK N   1      33.079  15.246   9.605  0.00  0.00     0.251 A 
HETATM    4  O   UNK N   1      32.161  14.491   9.352  0.00  0.00    -0.268 OA
HETATM    5  N   UNK N   1      33.838  15.054  10.728  0.00  0.00    -0.275 N 
HETATM    6  C   UNK N   1      34.875  15.902  11.020  0.00  0.00     0.327 A 
HETATM    7  O   UNK N   1      35.544  15.723  12.021  0.00  0.00    -0.247 OA
HETATM    8  N   UNK N   1      35.157  16.951  10.182  0.00  0.00    -0.303 N 
HETATM    9  H   UNK N   1      33.637  14.302  11.331  0.00  0.00     0.173 HD
HETATM   10  H   UNK N   1      35.903  17.557  10.397  0.00  0.00     0.171 HD
ENDROOT
BRANCH   1  11
HETATM   11  C   UNK N   1      34.731  18.293   8.170  0.00  0.00     0.193 C 
HETATM   12  O   UNK N   1      34.401  18.261   6.994  0.00  0.00    -0.645 OA
BRANCH  11  13
HETATM   13  O   UNK N   1      35.384  19.369   8.647  0.00  0.00    -0.772 OA
HETATM   14  H   UNK N   1      36.186  19.260   9.117  0.00  0.00     0.167 HD
ENDBRANCH  11  13
ENDBRANCH   1  11
TORSDOF 2
ENDMDL
MODEL 3
REMARK VINA RESULT:      -5.2      1.645      3.692
REMARK  2 active torsions:
REMARK  status: ('A' for Active; 'I' for Inactive)
REMARK    1  A    between atoms: O_1  and  C_2 
REMARK    2  A    between atoms: C_2  and  C_4 
ROOT
HETATM    1  C   UNK N   1      20.504  19.187   1.638  0.00  0.00     0.115 A 
HETATM    2  C   UNK N   1      20.318  18.823   2.972  0.00  0.00     0.111 A 
HETATM    3  C   UNK N   1      19.939  17.520   3.270  0.00  0.00     0.251 A 
HETATM    4  O   UNK N   1      19.772  17.187   4.428  0.00  0.00    -0.268 OA
HETATM    5  N   UNK N   1      19.753  16.614   2.261  0.00  0.00    -0.275 N 
HETATM    6  C   UNK N   1      19.938  16.984   0.953  0.00  0.00     0.327 A 
HETATM    7  O   UNK N   1      19.771  16.172   0.062  0.00  0.00    -0.247 OA
HETATM    8  N   UNK N   1      20.312  18.268   0.652  0.00  0.00    -0.303 N 
HETATM    9  H   UNK N   1      19.484  15.692   2.475  0.00  0.00     0.173 HD
HETATM   10  H   UNK N   1      20.444  18.528  -0.288  0.00  0.00     0.171 HD
ENDROOT
BRANCH   1  11
HETATM   11  C   UNK N   1      20.905  20.562   1.300  0.00  0.00     0.193 C 
HETATM   12  O   UNK N   1      21.437  21.272   2.140  0.00  0.00    -0.645 OA
BRANCH  11  13
HETATM   13  O   UNK N   1      20.688  21.046   0.062  0.00  0.00    -0.772 OA
HETATM   14  H   UNK N   1      20.685  20.467  -0.673  0.00  0.00     0.167 HD
ENDBRANCH  11  13
ENDBRANCH   1  11
TORSDOF 2
ENDMDL
MODEL 4
REMARK VINA RESULT:      -5.0     16.544     17.733
REMARK  2 active torsions:
REMARK  status: ('A' for Active; 'I' for Inactive)
REMARK    1  A    between atoms: O_1  and  C_2 
REMARK    2  A    between atoms: C_2  and  C_4 
ROOT
HETATM    1  C   UNK N   1      35.028  14.783  11.699  0.00  0.00     0.115 A 
HETATM    2  C   UNK N   1      35.611  16.007  11.369  0.00  0.00     0.111 A 
HETATM    3  C   UNK N   1      35.077  16.750  10.323  0.00  0.00     0.251 A 
HETATM    4  O   UNK N   1      35.573  17.819  10.023  0.00  0.00    -0.268 OA
HETATM    5  N   UNK N   1      33.994  16.277   9.633  0.00  0.00    -0.275 N 
HETATM    6  C   UNK N   1      33.429  15.073   9.966  0.00  0.00     0.327 A 
HETATM    7  O   UNK N   1      32.466  14.661   9.346  0.00  0.00    -0.247 OA
HETATM    8  N   UNK N   1      33.951  14.335  10.997  0.00  0.00    -0.303 N 
HETATM    9  H   UNK N   1      33.617  16.805   8.892  0.00  0.00     0.173 HD
HETATM   10  H   UNK N   1      33.542  13.471  11.231  0.00  0.00     0.171 HD
ENDROOT
BRANCH   1  11
HETATM   11  C   UNK N   1      35.578  13.981  12.802  0.00  0.00     0.193 C 
HETATM   12  O   UNK N   1      34.836  13.325  13.517  0.00  0.00    -0.645 OA
BRANCH  11  13
HETATM   13  O   UNK N   1      36.905  13.965  13.032  0.00  0.00    -0.772 OA
HETATM   14  H   UNK N   1      37.367  14.768  13.167  0.00  0.00     0.167 HD
ENDBRANCH  11  13
ENDBRANCH   1  11
TORSDOF 2
ENDMDL
MODEL 5
REMARK VINA RESULT:      -4.9     10.391     11.717
REMARK  2 active torsions:
REMARK  status: ('A' for Active; 'I' for Inactive)
REMARK    1  A    between atoms: O_1  and  C_2 
REMARK    2  A    between atoms: C_2  and  C_4 
ROOT
HETATM    1  C   UNK N   1      23.107  12.307  11.369  0.00  0.00     0.115 A 
HETATM    2  C   UNK N   1      21.913  12.274  10.648  0.00  0.00     0.111 A 
HETATM    3  C   UNK N   1      21.914  12.685   9.320  0.00  0.00     0.251 A 
HETATM    4  O   UNK N   1      20.882  12.663   8.677  0.00  0.00    -0.268 OA
HETATM    5  N   UNK N   1      23.076  13.114   8.738  0.00  0.00    -0.275 N 
HETATM    6  C   UNK N   1      24.244  13.142   9.457  0.00  0.00     0.327 A 
HETATM    7  O   UNK N   1      25.273  13.524   8.931  0.00  0.00    -0.247 OA
HETATM    8  N   UNK N   1      24.250  12.738  10.767  0.00  0.00    -0.303 N 
HETATM    9  H   UNK N   1      23.074  13.404   7.798  0.00  0.00     0.173 HD
HETATM   10  H   UNK N   1      25.091  12.760  11.278  0.00  0.00     0.171 HD
ENDROOT
BRANCH   1  11
HETATM   11  C   UNK N   1      23.128  11.876  12.775  0.00  0.00     0.193 C 
HETATM   12  O   UNK N   1      24.006  12.271  13.527  0.00  0.00    -0.645 OA
BRANCH  11  13
HETATM   13  O   UNK N   1      22.178  11.044  13.242  0.00  0.00    -0.772 OA
HETATM   14  H   UNK N   1      21.319  11.057  12.870  0.00  0.00     0.167 HD
ENDBRANCH  11  13
ENDBRANCH   1  11
TORSDOF 2
ENDMDL
MODEL 6
REMARK VINA RESULT:      -4.8     14.972     16.097
REMARK  2 active torsions:
REMARK  status: ('A' for Active; 'I' for Inactive)
REMARK    1  A    between atoms: O_1  and  C_2 
REMARK    2  A    between atoms: C_2  and  C_4 
ROOT
HETATM    1  C   UNK N   1      34.280  16.912   8.837  0.00  0.00     0.115 A 
HETATM    2  C   UNK N   1      35.004  16.711  10.013  0.00  0.00     0.111 A 
HETATM    3  C   UNK N   1      34.717  15.604  10.803  0.00  0.00     0.251 A 
HETATM    4  O   UNK N   1      35.339  15.415  11.830  0.00  0.00    -0.268 OA
HETATM    5  N   UNK N   1      33.736  14.729  10.422  0.00  0.00    -0.275 N 
HETATM    6  C   UNK N   1      33.031  14.936   9.264  0.00  0.00     0.327 A 
HETATM    7  O   UNK N   1      32.160  14.153   8.934  0.00  0.00    -0.247 OA
HETATM    8  N   UNK N   1      33.309  16.027   8.481  0.00  0.00    -0.303 N 
HETATM    9  H   UNK N   1      33.535  13.945  10.983  0.00  0.00     0.173 HD
HETATM   10  H   UNK N   1      32.799  16.171   7.651  0.00  0.00     0.171 HD
ENDROOT
BRANCH   1  11
HETATM   11  C   UNK N   1      34.567  18.077   7.987  0.00  0.00     0.193 C 
HETATM   12  O   UNK N   1      35.030  19.097   8.476  0.00  0.00    -0.645 OA
BRANCH  11  13
HETATM   13  O   UNK N   1      34.321  18.027   6.664  0.00  0.00    -0.772 OA
HETATM   14  H   UNK N   1      34.947  17.640   6.086  0.00  0.00     0.167 HD
ENDBRANCH  11  13
ENDBRANCH   1  11
TORSDOF 2
ENDMDL
MODEL 7
REMARK VINA RESULT:      -4.8     22.032     22.710
REMARK  2 active torsions:
REMARK  status: ('A' for Active; 'I' for Inactive)
REMARK    1  A    between atoms: O_1  and  C_2 
REMARK    2  A    between atoms: C_2  and  C_4 
ROOT
HETATM    1  C   UNK N   1      43.195  22.259   3.511  0.00  0.00     0.115 A 
HETATM    2  C   UNK N   1      42.683  21.003   3.188  0.00  0.00     0.111 A 
HETATM    3  C   UNK N   1      41.683  20.906   2.226  0.00  0.00     0.251 A 
HETATM    4  O   UNK N   1      41.226  19.818   1.933  0.00  0.00    -0.268 OA
HETATM    5  N   UNK N   1      41.216  22.036   1.611  0.00  0.00    -0.275 N 
HETATM    6  C   UNK N   1      41.727  23.266   1.937  0.00  0.00     0.327 A 
HETATM    7  O   UNK N   1      41.306  24.266   1.385  0.00  0.00    -0.247 OA
HETATM    8  N   UNK N   1      42.713  23.368   2.885  0.00  0.00    -0.303 N 
HETATM    9  H   UNK N   1      40.508  21.966   0.931  0.00  0.00     0.173 HD
HETATM   10  H   UNK N   1      43.076  24.254   3.115  0.00  0.00     0.171 HD
ENDROOT
BRANCH   1  11
HETATM   11  C   UNK N   1      44.253  22.383   4.525  0.00  0.00     0.193 C 
HETATM   12  O   UNK N   1      43.972  22.692   5.673  0.00  0.00    -0.645 OA
BRANCH  11  13
HETATM   13  O   UNK N   1      45.538  22.155   4.194  0.00  0.00    -0.772 OA
HETATM   14  H   UNK N   1      45.904  22.558   3.432  0.00  0.00     0.167 HD
ENDBRANCH  11  13
ENDBRANCH   1  11
TORSDOF 2
ENDMDL
MODEL 8
REMARK VINA RESULT:      -4.8      9.893     10.983
REMARK  2 active torsions:
REMARK  status: ('A' for Active; 'I' for Inactive)
REMARK    1  A    between atoms: O_1  and  C_2 
REMARK    2  A    between atoms: C_2  and  C_4 
ROOT
HETATM    1  C   UNK N   1      22.224  12.972  10.152  0.00  0.00     0.115 A 
HETATM    2  C   UNK N   1      22.622  12.383  11.353  0.00  0.00     0.111 A 
HETATM    3  C   UNK N   1      23.978  12.212  11.605  0.00  0.00     0.251 A 
HETATM    4  O   UNK N   1      24.342  11.701  12.646  0.00  0.00    -0.268 OA
HETATM    5  N   UNK N   1      24.902  12.619  10.680  0.00  0.00    -0.275 N 
HETATM    6  C   UNK N   1      24.498  13.196   9.503  0.00  0.00     0.327 A 
HETATM    7  O   UNK N   1      25.326  13.555   8.686  0.00  0.00    -0.247 OA
HETATM    8  N   UNK N   1      23.162  13.368   9.249  0.00  0.00    -0.303 N 
HETATM    9  H   UNK N   1      25.861  12.497  10.860  0.00  0.00     0.173 HD
HETATM   10  H   UNK N   1      22.878  13.783   8.402  0.00  0.00     0.171 HD
ENDROOT
BRANCH   1  11
HETATM   11  C   UNK N   1      20.793  13.162   9.866  0.00  0.00     0.193 C 
HETATM   12  O   UNK N   1      19.955  12.887  10.711  0.00  0.00    -0.645 OA
BRANCH  11  13
HETATM   13  O   UNK N   1      20.400  13.641   8.671  0.00  0.00    -0.772 OA
HETATM   14  H   UNK N   1      19.803  14.361   8.628  0.00  0.00     0.167 HD
ENDBRANCH  11  13
ENDBRANCH   1  11
TORSDOF 2
ENDMDL
MODEL 9
REMARK VINA RESULT:      -4.8     14.250     15.215
REMARK  2 active torsions:
REMARK  status: ('A' for Active; 'I' for Inactive)
REMARK    1  A    between atoms: O_1  and  C_2 
REMARK    2  A    between atoms: C_2  and  C_4 
ROOT
HETATM    1  C   UNK N   1      33.741  16.035   9.024  0.00  0.00     0.115 A 
HETATM    2  C   UNK N   1      34.592  17.124   9.218  0.00  0.00     0.111 A 
HETATM    3  C   UNK N   1      34.515  18.205   8.348  0.00  0.00     0.251 A 
HETATM    4  O   UNK N   1      35.249  19.162   8.502  0.00  0.00    -0.268 OA
HETATM    5  N   UNK N   1      33.612  18.191   7.319  0.00  0.00    -0.275 N 
HETATM    6  C   UNK N   1      32.780  17.115   7.139  0.00  0.00     0.327 A 
HETATM    7  O   UNK N   1      31.981  17.112   6.222  0.00  0.00    -0.247 OA
HETATM    8  N   UNK N   1      32.852  16.046   7.994  0.00  0.00    -0.303 N 
HETATM    9  H   UNK N   1      33.559  18.958   6.705  0.00  0.00     0.173 HD
HETATM   10  H   UNK N   1      32.253  15.276   7.860  0.00  0.00     0.171 HD
ENDROOT
BRANCH   1  11
HETATM   11  C   UNK N   1      33.807  14.881   9.934  0.00  0.00     0.193 C 
HETATM   12  O   UNK N   1      34.214  13.802   9.531  0.00  0.00    -0.645 OA
BRANCH  11  13
HETATM   13  O   UNK N   1      33.420  15.007  11.217  0.00  0.00    -0.772 OA
HETATM   14  H   UNK N   1      34.039  15.265  11.871  0.00  0.00     0.167 HD
ENDBRANCH  11  13
ENDBRANCH   1  11
TORSDOF 2
ENDMDL
