REMARK  6 active torsions:
REMARK  status: ('A' for Active; 'I' for Inactive)
REMARK    1  A    between atoms: C_2  and  C_3 
REMARK    2  A    between atoms: C_2  and  O_18 
REMARK    3  A    between atoms: C_3  and  N_4 
REMARK       I    between atoms: C_12  and  N_13 
REMARK    4  A    between atoms: C_16  and  N_17 
REMARK    5  A    between atoms: O_18  and  C_19 
REMARK    6  A    between atoms: C_19  and  P_20 
ROOT
HETATM    1  N   UNK N   1      -2.641  -0.424  -0.274  0.00  0.00    -0.324 N 
HETATM    2  C   UNK N   1      -3.883   0.017   0.046  0.00  0.00     0.185 A 
HETATM    3  N   UNK N   1      -4.706  -1.016   0.385  0.00  0.00    -0.346 N 
ATOM      4  HN  UNK N   1      -5.686  -0.970   0.664  1.00  0.00     0.167 HD
HETATM    5  C   UNK N   1      -3.931  -2.109   0.268  0.00  0.00     0.123 A 
HETATM    6  C   UNK N   1      -2.693  -1.755  -0.127  0.00  0.00     0.155 A 
HETATM    7  N   UNK N   1      -1.701  -2.657  -0.316  0.00  0.00    -0.174 N 
ATOM      8  HN  UNK N   1      -0.773  -2.362  -0.618  1.00  0.00     0.186 HD
HETATM    9  C   UNK N   1      -1.983  -3.978  -0.088  0.00  0.00     0.679 A 
HETATM   10  N   UNK N   1      -0.975  -4.947  -0.252  0.00  0.00    -0.234 N 
HETATM   11  N   UNK N   1      -3.244  -4.363   0.305  0.00  0.00    -0.175 N 
ATOM     12  HN  UNK N   1      -3.440  -5.351   0.464  1.00  0.00     0.186 HD
HETATM   13  C   UNK N   1      -4.236  -3.442   0.487  0.00  0.00     0.145 A 
HETATM   14  H   UNK N   1      -1.209  -5.897  -0.366  0.00  0.00     0.174 HD
HETATM   15  H   UNK N   1      -0.029  -4.674  -0.252  0.00  0.00     0.174 HD
ENDROOT
BRANCH   1  16
HETATM   16  C   UNK N   1      -1.537   0.425  -0.717  0.00  0.00     0.163 C 
BRANCH  16  17
HETATM   17  C   UNK N   1      -0.208   0.168  -0.002  0.00  0.00     0.136 C 
HETATM   18  C   UNK N   1      -0.346  -0.205   1.467  0.00  0.00     0.041 C 
BRANCH  17  19
HETATM   19  O   UNK N   1       0.556  -0.785  -0.683  0.00  0.00    -0.371 OA
BRANCH  19  20
HETATM   20  C   UNK N   1       1.565  -0.064  -1.336  0.00  0.00     0.313 C 
BRANCH  20  21
HETATM   21  P   UNK N   1       3.028   0.179  -0.206  0.00  0.00     0.283 P 
HETATM   22  O   UNK N   1       4.400   0.971  -0.913  0.00  0.00    -0.638 OA
HETATM   23  O   UNK N   1       3.600  -1.267   0.563  0.00  0.00    -0.638 OA
HETATM   24  O   UNK N   1       2.636   1.101   0.979  0.00  0.00    -0.638 OA
ENDBRANCH  20  21
ENDBRANCH  19  20
ENDBRANCH  17  19
ENDBRANCH  16  17
ENDBRANCH   1  16
BRANCH  13  25
HETATM   25  N   UNK N   1      -5.527  -3.843   0.885  0.00  0.00    -0.383 N 
HETATM   26  H   UNK N   1      -6.221  -3.202   1.164  0.00  0.00     0.157 HD
HETATM   27  H   UNK N   1      -5.744  -4.803   0.885  0.00  0.00     0.157 HD
ENDBRANCH  13  25
TORSDOF 6
