MODEL 1
REMARK VINA RESULT:      -2.5      0.000      0.000
REMARK  1 active torsions:
REMARK  status: ('A' for Active; 'I' for Inactive)
REMARK    1  A    between atoms: C_2  and  N_3 
ROOT
HETATM    1  N   UNK N   1      24.857  12.417  11.218  0.00  0.00    -0.426 N 
HETATM    2  C   UNK N   1      24.839  12.979   9.880  0.00  0.00     0.139 C 
HETATM    3  H   UNK N   1      25.657  12.372  11.849  0.00  0.00     0.152 HD
ENDROOT
BRANCH   1   4
HETATM    4  C   UNK N   1      23.515  11.933  11.478  0.00  0.00     0.108 C 
HETATM    5  C   UNK N   1      23.276  11.889  12.971  0.00  0.00     0.026 C 
ENDBRANCH   1   4
TORSDOF 1
ENDMDL
MODEL 2
REMARK VINA RESULT:      -2.3      1.443      2.436
REMARK  1 active torsions:
REMARK  status: ('A' for Active; 'I' for Inactive)
REMARK    1  A    between atoms: C_2  and  N_3 
ROOT
HETATM    1  N   UNK N   1      23.786  12.324  11.828  0.00  0.00    -0.426 N 
HETATM    2  C   UNK N   1      23.236  11.891  13.099  0.00  0.00     0.139 C 
HETATM    3  H   UNK N   1      24.602  12.919  11.687  0.00  0.00     0.152 HD
ENDROOT
BRANCH   1   4
HETATM    4  C   UNK N   1      22.945  11.743  10.798  0.00  0.00     0.108 C 
HETATM    5  C   UNK N   1      21.532  12.262  10.948  0.00  0.00     0.026 C 
ENDBRANCH   1   4
TORSDOF 1
ENDMDL
MODEL 3
REMARK VINA RESULT:      -2.3      7.628      8.265
REMARK  1 active torsions:
REMARK  status: ('A' for Active; 'I' for Inactive)
REMARK    1  A    between atoms: C_2  and  N_3 
ROOT
HETATM    1  N   UNK N   1      27.602  18.644   8.874  0.00  0.00    -0.426 N 
HETATM    2  C   UNK N   1      28.108  19.127   7.603  0.00  0.00     0.139 C 
HETATM    3  H   UNK N   1      26.681  18.828   9.274  0.00  0.00     0.152 HD
ENDROOT
BRANCH   1   4
HETATM    4  C   UNK N   1      28.663  17.849   9.464  0.00  0.00     0.108 C 
HETATM    5  C   UNK N   1      29.934  18.667   9.518  0.00  0.00     0.026 C 
ENDBRANCH   1   4
TORSDOF 1
ENDMDL
MODEL 4
REMARK VINA RESULT:      -2.3     11.810     12.243
REMARK  1 active torsions:
REMARK  status: ('A' for Active; 'I' for Inactive)
REMARK    1  A    between atoms: C_2  and  N_3 
ROOT
HETATM    1  N   UNK N   1      34.936  17.303  10.371  0.00  0.00    -0.426 N 
HETATM    2  C   UNK N   1      35.796  16.209  10.780  0.00  0.00     0.139 C 
HETATM    3  H   UNK N   1      34.679  18.118  10.929  0.00  0.00     0.152 HD
ENDROOT
BRANCH   1   4
HETATM    4  C   UNK N   1      34.515  17.011   9.014  0.00  0.00     0.108 C 
HETATM    5  C   UNK N   1      34.480  18.292   8.211  0.00  0.00     0.026 C 
ENDBRANCH   1   4
TORSDOF 1
ENDMDL
MODEL 5
REMARK VINA RESULT:      -2.2     22.891     23.200
REMARK  1 active torsions:
REMARK  status: ('A' for Active; 'I' for Inactive)
REMARK    1  A    between atoms: C_2  and  N_3 
ROOT
HETATM    1  N   UNK N   1      43.480  23.502   3.857  0.00  0.00    -0.426 N 
HETATM    2  C   UNK N   1      42.912  23.122   2.578  0.00  0.00     0.139 C 
HETATM    3  H   UNK N   1      43.607  24.451   4.211  0.00  0.00     0.152 HD
ENDROOT
BRANCH   1   4
HETATM    4  C   UNK N   1      43.831  22.268   4.534  0.00  0.00     0.108 C 
HETATM    5  C   UNK N   1      43.455  21.090   3.662  0.00  0.00     0.026 C 
ENDBRANCH   1   4
TORSDOF 1
ENDMDL
MODEL 6
REMARK VINA RESULT:      -2.2      7.593      8.857
REMARK  1 active torsions:
REMARK  status: ('A' for Active; 'I' for Inactive)
REMARK    1  A    between atoms: C_2  and  N_3 
ROOT
HETATM    1  N   UNK N   1      27.528  19.023   8.622  0.00  0.00    -0.426 N 
HETATM    2  C   UNK N   1      28.214  17.884   9.204  0.00  0.00     0.139 C 
HETATM    3  H   UNK N   1      26.817  19.601   9.069  0.00  0.00     0.152 HD
ENDROOT
BRANCH   1   4
HETATM    4  C   UNK N   1      28.054  19.175   7.278  0.00  0.00     0.108 C 
HETATM    5  C   UNK N   1      27.425  20.386   6.625  0.00  0.00     0.026 C 
ENDBRANCH   1   4
TORSDOF 1
ENDMDL
MODEL 7
REMARK VINA RESULT:      -2.2     21.582     22.093
REMARK  1 active torsions:
REMARK  status: ('A' for Active; 'I' for Inactive)
REMARK    1  A    between atoms: C_2  and  N_3 
ROOT
HETATM    1  N   UNK N   1      25.647  27.871  -3.251  0.00  0.00    -0.426 N 
HETATM    2  C   UNK N   1      26.264  29.133  -3.615  0.00  0.00     0.139 C 
HETATM    3  H   UNK N   1      25.132  27.668  -2.394  0.00  0.00     0.152 HD
ENDROOT
BRANCH   1   4
HETATM    4  C   UNK N   1      25.908  26.955  -4.345  0.00  0.00     0.108 C 
HETATM    5  C   UNK N   1      24.912  27.201  -5.457  0.00  0.00     0.026 C 
ENDBRANCH   1   4
TORSDOF 1
ENDMDL
MODEL 8
REMARK VINA RESULT:      -2.1      7.265      8.228
REMARK  1 active torsions:
REMARK  status: ('A' for Active; 'I' for Inactive)
REMARK    1  A    between atoms: C_2  and  N_3 
ROOT
HETATM    1  N   UNK N   1      27.616  18.527   8.999  0.00  0.00    -0.426 N 
HETATM    2  C   UNK N   1      28.443  17.434   9.474  0.00  0.00     0.139 C 
HETATM    3  H   UNK N   1      26.774  18.893   9.444  0.00  0.00     0.152 HD
ENDROOT
BRANCH   1   4
HETATM    4  C   UNK N   1      28.221  18.994   7.766  0.00  0.00     0.108 C 
HETATM    5  C   UNK N   1      28.939  17.846   7.091  0.00  0.00     0.026 C 
ENDBRANCH   1   4
TORSDOF 1
ENDMDL
MODEL 9
REMARK VINA RESULT:      -2.0     23.413     24.202
REMARK  1 active torsions:
REMARK  status: ('A' for Active; 'I' for Inactive)
REMARK    1  A    between atoms: C_2  and  N_3 
ROOT
HETATM    1  N   UNK N   1      45.491  22.972   3.451  0.00  0.00    -0.426 N 
HETATM    2  C   UNK N   1      44.421  23.478   2.612  0.00  0.00     0.139 C 
HETATM    3  H   UNK N   1      46.405  23.402   3.600  0.00  0.00     0.152 HD
ENDROOT
BRANCH   1   4
HETATM    4  C   UNK N   1      45.007  21.735   4.035  0.00  0.00     0.108 C 
HETATM    5  C   UNK N   1      43.494  21.738   4.036  0.00  0.00     0.026 C 
ENDBRANCH   1   4
TORSDOF 1
ENDMDL
