MODEL 1
REMARK VINA RESULT:      -5.3      0.000      0.000
REMARK  3 active torsions:
REMARK  status: ('A' for Active; 'I' for Inactive)
REMARK    1  A    between atoms: C_4  and  O_11 
REMARK    2  A    between atoms: C_5  and  O_12 
REMARK    3  A    between atoms: C_6  and  O_13 
ROOT
HETATM    1  C   UNK N   1      23.894  18.681   4.395  0.00  0.00     0.106 A 
HETATM    2  C   UNK N   1      22.764  17.876   4.366  0.00  0.00     0.109 A 
HETATM    3  C   UNK N   1      20.530  18.008   3.233  0.00  0.00     0.164 C 
HETATM    4  C   UNK N   1      19.672  19.218   2.839  0.00  0.00     0.168 C 
HETATM    5  C   UNK N   1      20.377  20.007   1.714  0.00  0.00     0.184 C 
HETATM    6  C   UNK N   1      21.763  20.542   2.161  0.00  0.00     0.217 C 
HETATM    7  C   UNK N   1      22.464  19.566   3.069  0.00  0.00     0.115 A 
HETATM    8  N   UNK N   1      23.693  19.745   3.582  0.00  0.00    -0.352 N 
ATOM      9  HN  UNK N   1      24.336  20.516   3.397  1.00  0.00     0.166 HD
HETATM   10  N   UNK N   1      21.884  18.450   3.530  0.00  0.00    -0.341 N 
ENDROOT
BRANCH   4  11
HETATM   11  O   UNK N   1      18.422  18.773   2.408  0.00  0.00    -0.391 OA
HETATM   12  H   UNK N   1      17.695  19.401   2.270  0.00  0.00     0.210 HD
ENDBRANCH   4  11
BRANCH   5  13
HETATM   13  O   UNK N   1      20.534  19.167   0.607  0.00  0.00    -0.390 OA
HETATM   14  H   UNK N   1      20.483  18.732  -0.259  0.00  0.00     0.210 HD
ENDBRANCH   5  13
BRANCH   6  15
HETATM   15  O   UNK N   1      21.604  21.738   2.862  0.00  0.00    -0.385 OA
HETATM   16  H   UNK N   1      21.385  22.664   3.052  0.00  0.00     0.210 HD
ENDBRANCH   6  15
TORSDOF 3
ENDMDL
MODEL 2
REMARK VINA RESULT:      -4.9      1.373      3.144
REMARK  3 active torsions:
REMARK  status: ('A' for Active; 'I' for Inactive)
REMARK    1  A    between atoms: C_4  and  O_11 
REMARK    2  A    between atoms: C_5  and  O_12 
REMARK    3  A    between atoms: C_6  and  O_13 
ROOT
HETATM    1  C   UNK N   1      21.557  15.868   3.227  0.00  0.00     0.106 A 
HETATM    2  C   UNK N   1      22.464  16.760   3.781  0.00  0.00     0.109 A 
HETATM    3  C   UNK N   1      22.746  19.253   3.734  0.00  0.00     0.164 C 
HETATM    4  C   UNK N   1      22.404  20.283   2.649  0.00  0.00     0.168 C 
HETATM    5  C   UNK N   1      20.871  20.374   2.488  0.00  0.00     0.184 C 
HETATM    6  C   UNK N   1      20.251  19.019   2.057  0.00  0.00     0.217 C 
HETATM    7  C   UNK N   1      20.959  17.858   2.704  0.00  0.00     0.115 A 
HETATM    8  N   UNK N   1      20.618  16.568   2.546  0.00  0.00    -0.352 N 
ATOM      9  HN  UNK N   1      19.823  16.197   2.025  1.00  0.00     0.166 HD
HETATM   10  N   UNK N   1      22.070  17.998   3.442  0.00  0.00    -0.341 N 
ENDROOT
BRANCH   4  11
HETATM   11  O   UNK N   1      22.927  21.524   3.014  0.00  0.00    -0.391 OA
HETATM   12  H   UNK N   1      22.684  22.325   2.524  0.00  0.00     0.210 HD
ENDBRANCH   4  11
BRANCH   5  13
HETATM   13  O   UNK N   1      20.314  20.778   3.705  0.00  0.00    -0.390 OA
HETATM   14  H   UNK N   1      19.814  20.849   4.534  0.00  0.00     0.210 HD
ENDBRANCH   5  13
BRANCH   6  15
HETATM   15  O   UNK N   1      20.359  18.867   0.675  0.00  0.00    -0.385 OA
HETATM   16  H   UNK N   1      20.546  18.468  -0.189  0.00  0.00     0.210 HD
ENDBRANCH   6  15
TORSDOF 3
ENDMDL
MODEL 3
REMARK VINA RESULT:      -4.7     13.175     14.199
REMARK  3 active torsions:
REMARK  status: ('A' for Active; 'I' for Inactive)
REMARK    1  A    between atoms: C_4  and  O_11 
REMARK    2  A    between atoms: C_5  and  O_12 
REMARK    3  A    between atoms: C_6  and  O_13 
ROOT
HETATM    1  C   UNK N   1      35.638  16.056  10.733  0.00  0.00     0.106 A 
HETATM    2  C   UNK N   1      35.780  15.261   9.604  0.00  0.00     0.109 A 
HETATM    3  C   UNK N   1      34.790  15.273   7.299  0.00  0.00     0.164 C 
HETATM    4  C   UNK N   1      33.413  15.731   6.798  0.00  0.00     0.168 C 
HETATM    5  C   UNK N   1      33.294  17.263   6.942  0.00  0.00     0.184 C 
HETATM    6  C   UNK N   1      33.429  17.720   8.420  0.00  0.00     0.217 C 
HETATM    7  C   UNK N   1      34.434  16.881   9.166  0.00  0.00     0.115 A 
HETATM    8  N   UNK N   1      34.784  17.069  10.449  0.00  0.00    -0.352 N 
ATOM      9  HN  UNK N   1      34.474  17.813  11.074  1.00  0.00     0.166 HD
HETATM   10  N   UNK N   1      35.018  15.797   8.637  0.00  0.00    -0.341 N 
ENDROOT
BRANCH   4  11
HETATM   11  O   UNK N   1      33.265  15.358   5.461  0.00  0.00    -0.391 OA
HETATM   12  H   UNK N   1      33.831  14.671   5.075  0.00  0.00     0.210 HD
ENDBRANCH   4  11
BRANCH   5  13
HETATM   13  O   UNK N   1      34.294  17.867   6.173  0.00  0.00    -0.390 OA
HETATM   14  H   UNK N   1      34.975  18.082   5.516  0.00  0.00     0.210 HD
ENDBRANCH   5  13
BRANCH   6  15
HETATM   15  O   UNK N   1      32.201  17.591   9.068  0.00  0.00    -0.385 OA
HETATM   16  H   UNK N   1      31.392  17.190   9.423  0.00  0.00     0.210 HD
ENDBRANCH   6  15
TORSDOF 3
ENDMDL
MODEL 4
REMARK VINA RESULT:      -4.7     20.069     21.882
REMARK  3 active torsions:
REMARK  status: ('A' for Active; 'I' for Inactive)
REMARK    1  A    between atoms: C_4  and  O_11 
REMARK    2  A    between atoms: C_5  and  O_12 
REMARK    3  A    between atoms: C_6  and  O_13 
ROOT
HETATM    1  C   UNK N   1      40.482  20.486   2.383  0.00  0.00     0.106 A 
HETATM    2  C   UNK N   1      41.448  20.165   3.325  0.00  0.00     0.109 A 
HETATM    3  C   UNK N   1      43.591  21.223   4.089  0.00  0.00     0.164 C 
HETATM    4  C   UNK N   1      44.621  22.072   3.329  0.00  0.00     0.168 C 
HETATM    5  C   UNK N   1      43.993  23.430   2.952  0.00  0.00     0.184 C 
HETATM    6  C   UNK N   1      42.755  23.262   2.031  0.00  0.00     0.217 C 
HETATM    7  C   UNK N   1      41.955  22.041   2.401  0.00  0.00     0.115 A 
HETATM    8  N   UNK N   1      40.813  21.664   1.801  0.00  0.00    -0.352 N 
ATOM      9  HN  UNK N   1      40.305  22.158   1.068  1.00  0.00     0.166 HD
HETATM   10  N   UNK N   1      42.359  21.152   3.319  0.00  0.00    -0.341 N 
ENDROOT
BRANCH   4  11
HETATM   11  O   UNK N   1      45.742  22.264   4.137  0.00  0.00    -0.391 OA
HETATM   12  H   UNK N   1      46.629  22.046   3.811  0.00  0.00     0.210 HD
ENDBRANCH   4  11
BRANCH   5  13
HETATM   13  O   UNK N   1      43.617  24.094   4.124  0.00  0.00    -0.390 OA
HETATM   14  H   UNK N   1      43.592  24.562   4.974  0.00  0.00     0.210 HD
ENDBRANCH   5  13
BRANCH   6  15
HETATM   15  O   UNK N   1      43.167  23.117   0.706  0.00  0.00    -0.385 OA
HETATM   16  H   UNK N   1      43.316  22.720  -0.166  0.00  0.00     0.210 HD
ENDBRANCH   6  15
TORSDOF 3
ENDMDL
MODEL 5
REMARK VINA RESULT:      -4.7      1.812      3.474
REMARK  3 active torsions:
REMARK  status: ('A' for Active; 'I' for Inactive)
REMARK    1  A    between atoms: C_4  and  O_11 
REMARK    2  A    between atoms: C_5  and  O_12 
REMARK    3  A    between atoms: C_6  and  O_13 
ROOT
HETATM    1  C   UNK N   1      19.902  16.222   1.469  0.00  0.00     0.106 A 
HETATM    2  C   UNK N   1      20.845  16.380   2.473  0.00  0.00     0.109 A 
HETATM    3  C   UNK N   1      22.009  18.344   3.512  0.00  0.00     0.164 C 
HETATM    4  C   UNK N   1      22.424  19.697   2.917  0.00  0.00     0.168 C 
HETATM    5  C   UNK N   1      21.164  20.522   2.580  0.00  0.00     0.184 C 
HETATM    6  C   UNK N   1      20.265  19.808   1.536  0.00  0.00     0.217 C 
HETATM    7  C   UNK N   1      20.263  18.316   1.739  0.00  0.00     0.115 A 
HETATM    8  N   UNK N   1      19.546  17.446   1.008  0.00  0.00    -0.352 N 
ATOM      9  HN  UNK N   1      18.879  17.660   0.266  1.00  0.00     0.166 HD
HETATM   10  N   UNK N   1      21.055  17.697   2.625  0.00  0.00    -0.341 N 
ENDROOT
BRANCH   4  11
HETATM   11  O   UNK N   1      23.217  20.380   3.841  0.00  0.00    -0.391 OA
HETATM   12  H   UNK N   1      23.798  21.102   3.553  0.00  0.00     0.210 HD
ENDBRANCH   4  11
BRANCH   5  13
HETATM   13  O   UNK N   1      20.437  20.734   3.756  0.00  0.00    -0.390 OA
HETATM   14  H   UNK N   1      19.952  20.645   4.592  0.00  0.00     0.210 HD
ENDBRANCH   5  13
BRANCH   6  15
HETATM   15  O   UNK N   1      20.741  20.063   0.249  0.00  0.00    -0.385 OA
HETATM   16  H   UNK N   1      21.355  20.164  -0.494  0.00  0.00     0.210 HD
ENDBRANCH   6  15
TORSDOF 3
ENDMDL
MODEL 6
REMARK VINA RESULT:      -4.7     14.810     16.030
REMARK  3 active torsions:
REMARK  status: ('A' for Active; 'I' for Inactive)
REMARK    1  A    between atoms: C_4  and  O_11 
REMARK    2  A    between atoms: C_5  and  O_12 
REMARK    3  A    between atoms: C_6  and  O_13 
ROOT
HETATM    1  C   UNK N   1      34.197  17.697   8.339  0.00  0.00     0.106 A 
HETATM    2  C   UNK N   1      33.792  16.406   8.037  0.00  0.00     0.109 A 
HETATM    3  C   UNK N   1      34.123  14.156   9.097  0.00  0.00     0.164 C 
HETATM    4  C   UNK N   1      35.293  13.592   9.915  0.00  0.00     0.168 C 
HETATM    5  C   UNK N   1      35.381  14.330  11.268  0.00  0.00     0.184 C 
HETATM    6  C   UNK N   1      35.629  15.851  11.085  0.00  0.00     0.217 C 
HETATM    7  C   UNK N   1      34.899  16.387   9.881  0.00  0.00     0.115 A 
HETATM    8  N   UNK N   1      34.899  17.675   9.498  0.00  0.00    -0.352 N 
ATOM      9  HN  UNK N   1      35.334  18.464   9.976  1.00  0.00     0.166 HD
HETATM   10  N   UNK N   1      34.242  15.604   9.015  0.00  0.00    -0.341 N 
ENDROOT
BRANCH   4  11
HETATM   11  O   UNK N   1      35.092  12.226  10.120  0.00  0.00    -0.391 OA
HETATM   12  H   UNK N   1      35.205  11.596   9.391  0.00  0.00     0.210 HD
ENDBRANCH   4  11
BRANCH   5  13
HETATM   13  O   UNK N   1      34.186  14.132  11.967  0.00  0.00    -0.390 OA
HETATM   14  H   UNK N   1      33.284  14.180  12.322  0.00  0.00     0.210 HD
ENDBRANCH   5  13
BRANCH   6  15
HETATM   15  O   UNK N   1      36.991  16.089  10.899  0.00  0.00    -0.385 OA
HETATM   16  H   UNK N   1      37.870  16.096  10.488  0.00  0.00     0.210 HD
ENDBRANCH   6  15
TORSDOF 3
ENDMDL
MODEL 7
REMARK VINA RESULT:      -4.5      8.038      9.598
REMARK  3 active torsions:
REMARK  status: ('A' for Active; 'I' for Inactive)
REMARK    1  A    between atoms: C_4  and  O_11 
REMARK    2  A    between atoms: C_5  and  O_12 
REMARK    3  A    between atoms: C_6  and  O_13 
ROOT
HETATM    1  C   UNK N   1      30.216  17.088   4.913  0.00  0.00     0.106 A 
HETATM    2  C   UNK N   1      30.836  16.842   6.130  0.00  0.00     0.109 A 
HETATM    3  C   UNK N   1      30.323  17.405   8.520  0.00  0.00     0.164 C 
HETATM    4  C   UNK N   1      29.603  18.612   9.137  0.00  0.00     0.168 C 
HETATM    5  C   UNK N   1      28.112  18.581   8.742  0.00  0.00     0.184 C 
HETATM    6  C   UNK N   1      27.916  18.656   7.204  0.00  0.00     0.217 C 
HETATM    7  C   UNK N   1      28.994  17.899   6.474  0.00  0.00     0.115 A 
HETATM    8  N   UNK N   1      29.061  17.759   5.140  0.00  0.00    -0.352 N 
ATOM      9  HN  UNK N   1      28.388  18.088   4.447  1.00  0.00     0.166 HD
HETATM   10  N   UNK N   1      30.054  17.357   7.091  0.00  0.00    -0.341 N 
ENDROOT
BRANCH   4  11
HETATM   11  O   UNK N   1      29.738  18.565  10.525  0.00  0.00    -0.391 OA
HETATM   12  H   UNK N   1      29.243  17.914  11.047  0.00  0.00     0.210 HD
ENDBRANCH   4  11
BRANCH   5  13
HETATM   13  O   UNK N   1      27.541  17.401   9.229  0.00  0.00    -0.390 OA
HETATM   14  H   UNK N   1      27.350  16.566   9.687  0.00  0.00     0.210 HD
ENDBRANCH   5  13
BRANCH   6  15
HETATM   15  O   UNK N   1      27.971  19.986   6.785  0.00  0.00    -0.385 OA
HETATM   16  H   UNK N   1      28.331  20.843   6.509  0.00  0.00     0.210 HD
ENDBRANCH   6  15
TORSDOF 3
ENDMDL
MODEL 8
REMARK VINA RESULT:      -4.5     15.516     16.488
REMARK  3 active torsions:
REMARK  status: ('A' for Active; 'I' for Inactive)
REMARK    1  A    between atoms: C_4  and  O_11 
REMARK    2  A    between atoms: C_5  and  O_12 
REMARK    3  A    between atoms: C_6  and  O_13 
ROOT
HETATM    1  C   UNK N   1      34.390  12.216   8.536  0.00  0.00     0.106 A 
HETATM    2  C   UNK N   1      34.535  13.458   7.935  0.00  0.00     0.109 A 
HETATM    3  C   UNK N   1      35.186  15.744   8.739  0.00  0.00     0.164 C 
HETATM    4  C   UNK N   1      34.979  16.430  10.096  0.00  0.00     0.168 C 
HETATM    5  C   UNK N   1      35.834  15.723  11.169  0.00  0.00     0.184 C 
HETATM    6  C   UNK N   1      35.441  14.231  11.334  0.00  0.00     0.217 C 
HETATM    7  C   UNK N   1      35.068  13.610  10.014  0.00  0.00     0.115 A 
HETATM    8  N   UNK N   1      34.720  12.323   9.845  0.00  0.00    -0.352 N 
ATOM      9  HN  UNK N   1      34.708  11.586  10.551  1.00  0.00     0.166 HD
HETATM   10  N   UNK N   1      34.961  14.314   8.879  0.00  0.00    -0.341 N 
ENDROOT
BRANCH   4  11
HETATM   11  O   UNK N   1      35.345  17.773   9.992  0.00  0.00    -0.391 OA
HETATM   12  H   UNK N   1      36.084  18.040   9.422  0.00  0.00     0.210 HD
ENDBRANCH   4  11
BRANCH   5  13
HETATM   13  O   UNK N   1      37.181  15.814  10.803  0.00  0.00    -0.390 OA
HETATM   14  H   UNK N   1      38.143  15.714  10.722  0.00  0.00     0.210 HD
ENDBRANCH   5  13
BRANCH   6  15
HETATM   15  O   UNK N   1      34.339  14.123  12.183  0.00  0.00    -0.385 OA
HETATM   16  H   UNK N   1      33.795  13.880  12.948  0.00  0.00     0.210 HD
ENDBRANCH   6  15
TORSDOF 3
ENDMDL
MODEL 9
REMARK VINA RESULT:      -4.5     17.132     18.312
REMARK  3 active torsions:
REMARK  status: ('A' for Active; 'I' for Inactive)
REMARK    1  A    between atoms: C_4  and  O_11 
REMARK    2  A    between atoms: C_5  and  O_12 
REMARK    3  A    between atoms: C_6  and  O_13 
ROOT
HETATM    1  C   UNK N   1      36.177  12.475  14.397  0.00  0.00     0.106 A 
HETATM    2  C   UNK N   1      37.108  12.214  13.403  0.00  0.00     0.109 A 
HETATM    3  C   UNK N   1      37.560  13.142  11.116  0.00  0.00     0.164 C 
HETATM    4  C   UNK N   1      36.611  13.732  10.064  0.00  0.00     0.168 C 
HETATM    5  C   UNK N   1      36.034  15.068  10.579  0.00  0.00     0.184 C 
HETATM    6  C   UNK N   1      35.224  14.884  11.890  0.00  0.00     0.217 C 
HETATM    7  C   UNK N   1      35.844  13.839  12.779  0.00  0.00     0.115 A 
HETATM    8  N   UNK N   1      35.381  13.495  13.993  0.00  0.00    -0.352 N 
ATOM      9  HN  UNK N   1      34.600  13.911  14.500  1.00  0.00     0.166 HD
HETATM   10  N   UNK N   1      36.881  13.079  12.402  0.00  0.00    -0.341 N 
ENDROOT
BRANCH   4  11
HETATM   11  O   UNK N   1      37.312  13.933   8.875  0.00  0.00    -0.391 OA
HETATM   12  H   UNK N   1      38.033  14.581   8.831  0.00  0.00     0.210 HD
ENDBRANCH   4  11
BRANCH   5  13
HETATM   13  O   UNK N   1      37.090  15.957  10.803  0.00  0.00    -0.390 OA
HETATM   14  H   UNK N   1      37.645  16.728  11.003  0.00  0.00     0.210 HD
ENDBRANCH   5  13
BRANCH   6  15
HETATM   15  O   UNK N   1      33.925  14.473  11.589  0.00  0.00    -0.385 OA
HETATM   16  H   UNK N   1      33.181  14.071  11.115  0.00  0.00     0.210 HD
ENDBRANCH   6  15
TORSDOF 3
ENDMDL
