MODEL 1
REMARK VINA RESULT:      -6.7      0.000      0.000
REMARK  10 active torsions:
REMARK  status: ('A' for Active; 'I' for Inactive)
REMARK    1  A    between atoms: C_3  and  C_1 
REMARK    2  A    between atoms: O_24  and  C_1 
REMARK    3  A    between atoms: C_5  and  O_17 
REMARK    4  A    between atoms: C_6  and  O_18 
REMARK    5  A    between atoms: O_19  and  C_8 
REMARK    6  A    between atoms: C_9  and  N_16 
REMARK    7  A    between atoms: O_20  and  C_10 
REMARK    8  A    between atoms: P_26  and  O_21 
REMARK    9  A    between atoms: P_26  and  O_22 
REMARK   10  A    between atoms: P_26  and  O_24 
ROOT
HETATM    1  C   UNK N   1      34.695  14.983  11.197  0.00  0.00     0.180 C 
HETATM    2  C   UNK N   1      36.213  14.962  11.129  0.00  0.00     0.182 C 
HETATM    3  C   UNK N   1      36.614  14.340  12.457  0.00  0.00     0.198 C 
HETATM    4  C   UNK N   1      35.251  13.866  12.993  0.00  0.00     0.262 C 
HETATM    5  O   UNK N   1      34.380  13.785  11.881  0.00  0.00    -0.353 OA
ENDROOT
BRANCH   4   6
HETATM    6  N   UNK N   1      35.252  12.656  13.827  0.00  0.00    -0.297 N 
HETATM    7  C   UNK N   1      34.963  11.399  13.395  0.00  0.00     0.188 A 
HETATM    8  N   UNK N   1      34.818  10.532  14.438  0.00  0.00    -0.346 N 
HETATM    9  C   UNK N   1      34.992  11.295  15.531  0.00  0.00     0.129 A 
HETATM   10  H   UNK N   1      34.630   9.567  14.400  0.00  0.00     0.167 HD
HETATM   11  C   UNK N   1      35.252  12.566  15.168  0.00  0.00     0.145 A 
HETATM   12  C   UNK N   1      34.893  10.962  16.873  0.00  0.00     0.174 A 
HETATM   13  N   UNK N   1      35.430  13.557  16.073  0.00  0.00    -0.306 N 
HETATM   14  C   UNK N   1      35.367  13.239  17.402  0.00  0.00     0.224 A 
ATOM     15  HN  UNK N   1      35.607  14.516  15.772  1.00  0.00     0.171 HD
HETATM   16  N   UNK N   1      35.092  11.950  17.795  0.00  0.00    -0.301 N 
ATOM     17  HN  UNK N   1      35.037  11.729  18.789  1.00  0.00     0.171 HD
BRANCH  14  18
HETATM   18  O   UNK N   1      35.572  14.190  18.327  0.00  0.00    -0.332 OA
HETATM   19  H   UNK N   1      36.427  14.554  18.448  0.00  0.00     0.221 HD
ENDBRANCH  14  18
BRANCH  12  20
HETATM   20  O   UNK N   1      34.588   9.712  17.263  0.00  0.00    -0.344 OA
HETATM   21  H   UNK N   1      35.262   9.068  17.350  0.00  0.00     0.219 HD
ENDBRANCH  12  20
ENDBRANCH   4   6
BRANCH   3  22
HETATM   22  O   UNK N   1      37.489  13.278  12.205  0.00  0.00    -0.388 OA
HETATM   23  H   UNK N   1      38.310  12.944  11.811  0.00  0.00     0.210 HD
ENDBRANCH   3  22
BRANCH   2  24
HETATM   24  O   UNK N   1      36.779  16.218  10.904  0.00  0.00    -0.390 OA
HETATM   25  H   UNK N   1      36.581  16.828  10.177  0.00  0.00     0.210 HD
ENDBRANCH   2  24
BRANCH   1  26
HETATM   26  C   UNK N   1      34.120  15.049   9.784  0.00  0.00     0.215 C 
BRANCH  26  27
HETATM   27  O   UNK N   1      34.921  15.799   8.907  0.00  0.00    -0.294 OA
BRANCH  27  28
HETATM   28  P   UNK N   1      34.050  17.255   8.477  0.00  0.00     0.390 P 
HETATM   29  O   UNK N   1      35.159  17.952   9.317  0.00  0.00    -0.632 OA
BRANCH  28  30
HETATM   30  O   UNK N   1      34.670  18.410   7.339  0.00  0.00    -0.307 OA
HETATM   31  H   UNK N   1      34.942  19.306   7.589  0.00  0.00     0.222 HD
ENDBRANCH  28  30
BRANCH  28  32
HETATM   32  O   UNK N   1      34.847  16.532   7.113  0.00  0.00    -0.307 OA
HETATM   33  H   UNK N   1      35.129  15.608   7.030  0.00  0.00     0.222 HD
ENDBRANCH  28  32
ENDBRANCH  27  28
ENDBRANCH  26  27
ENDBRANCH   1  26
TORSDOF 10
ENDMDL
MODEL 2
REMARK VINA RESULT:      -6.6      6.646      9.861
REMARK  10 active torsions:
REMARK  status: ('A' for Active; 'I' for Inactive)
REMARK    1  A    between atoms: C_3  and  C_1 
REMARK    2  A    between atoms: O_24  and  C_1 
REMARK    3  A    between atoms: C_5  and  O_17 
REMARK    4  A    between atoms: C_6  and  O_18 
REMARK    5  A    between atoms: O_19  and  C_8 
REMARK    6  A    between atoms: C_9  and  N_16 
REMARK    7  A    between atoms: O_20  and  C_10 
REMARK    8  A    between atoms: P_26  and  O_21 
REMARK    9  A    between atoms: P_26  and  O_22 
REMARK   10  A    between atoms: P_26  and  O_24 
ROOT
HETATM    1  C   UNK N   1      32.708  15.348   7.972  0.00  0.00     0.180 C 
HETATM    2  C   UNK N   1      33.707  16.048   7.067  0.00  0.00     0.182 C 
HETATM    3  C   UNK N   1      32.895  16.353   5.819  0.00  0.00     0.198 C 
HETATM    4  C   UNK N   1      31.473  16.001   6.290  0.00  0.00     0.262 C 
HETATM    5  O   UNK N   1      31.492  16.021   7.704  0.00  0.00    -0.353 OA
ENDROOT
BRANCH   4   6
HETATM    6  N   UNK N   1      30.370  16.777   5.706  0.00  0.00    -0.297 N 
HETATM    7  C   UNK N   1      30.293  17.190   4.413  0.00  0.00     0.188 A 
HETATM    8  N   UNK N   1      29.276  18.082   4.232  0.00  0.00    -0.346 N 
HETATM    9  C   UNK N   1      28.745  18.234   5.457  0.00  0.00     0.129 A 
HETATM   10  H   UNK N   1      28.994  18.514   3.394  0.00  0.00     0.167 HD
HETATM   11  C   UNK N   1      29.398  17.454   6.341  0.00  0.00     0.145 A 
HETATM   12  C   UNK N   1      27.725  19.068   5.887  0.00  0.00     0.174 A 
HETATM   13  N   UNK N   1      29.093  17.441   7.660  0.00  0.00    -0.306 N 
HETATM   14  C   UNK N   1      28.067  18.235   8.096  0.00  0.00     0.224 A 
ATOM     15  HN  UNK N   1      29.615  16.856   8.313  1.00  0.00     0.171 HD
HETATM   16  N   UNK N   1      27.395  19.047   7.212  0.00  0.00    -0.301 N 
ATOM     17  HN  UNK N   1      26.639  19.642   7.552  1.00  0.00     0.171 HD
BRANCH  14  18
HETATM   18  O   UNK N   1      27.717  18.222   9.391  0.00  0.00    -0.332 OA
HETATM   19  H   UNK N   1      26.814  18.273   9.636  0.00  0.00     0.221 HD
ENDBRANCH  14  18
BRANCH  12  20
HETATM   20  O   UNK N   1      27.088  19.890   5.036  0.00  0.00    -0.344 OA
HETATM   21  H   UNK N   1      26.181  20.088   5.159  0.00  0.00     0.219 HD
ENDBRANCH  12  20
ENDBRANCH   4   6
BRANCH   3  22
HETATM   22  O   UNK N   1      33.037  17.712   5.516  0.00  0.00    -0.388 OA
HETATM   23  H   UNK N   1      32.657  18.542   5.186  0.00  0.00     0.210 HD
ENDBRANCH   3  22
BRANCH   2  24
HETATM   24  O   UNK N   1      34.857  15.297   6.819  0.00  0.00    -0.390 OA
HETATM   25  H   UNK N   1      35.204  14.564   7.349  0.00  0.00     0.210 HD
ENDBRANCH   2  24
BRANCH   1  26
HETATM   26  C   UNK N   1      33.163  15.464   9.425  0.00  0.00     0.215 C 
BRANCH  26  27
HETATM   27  O   UNK N   1      34.206  16.388   9.594  0.00  0.00    -0.294 OA
BRANCH  27  28
HETATM   28  P   UNK N   1      35.292  15.774  10.822  0.00  0.00     0.390 P 
HETATM   29  O   UNK N   1      35.820  14.888   9.658  0.00  0.00    -0.632 OA
BRANCH  28  30
HETATM   30  O   UNK N   1      36.986  16.153  10.843  0.00  0.00    -0.307 OA
HETATM   31  H   UNK N   1      37.530  16.103  11.644  0.00  0.00     0.222 HD
ENDBRANCH  28  30
BRANCH  28  32
HETATM   32  O   UNK N   1      35.644  17.419  10.389  0.00  0.00    -0.307 OA
HETATM   33  H   UNK N   1      36.224  17.717   9.672  0.00  0.00     0.222 HD
ENDBRANCH  28  32
ENDBRANCH  27  28
ENDBRANCH  26  27
ENDBRANCH   1  26
TORSDOF 10
ENDMDL
MODEL 3
REMARK VINA RESULT:      -6.6      4.624      8.078
REMARK  10 active torsions:
REMARK  status: ('A' for Active; 'I' for Inactive)
REMARK    1  A    between atoms: C_3  and  C_1 
REMARK    2  A    between atoms: O_24  and  C_1 
REMARK    3  A    between atoms: C_5  and  O_17 
REMARK    4  A    between atoms: C_6  and  O_18 
REMARK    5  A    between atoms: O_19  and  C_8 
REMARK    6  A    between atoms: C_9  and  N_16 
REMARK    7  A    between atoms: O_20  and  C_10 
REMARK    8  A    between atoms: P_26  and  O_21 
REMARK    9  A    between atoms: P_26  and  O_22 
REMARK   10  A    between atoms: P_26  and  O_24 
ROOT
HETATM    1  C   UNK N   1      35.108  14.483  10.537  0.00  0.00     0.180 C 
HETATM    2  C   UNK N   1      35.451  15.961  10.613  0.00  0.00     0.182 C 
HETATM    3  C   UNK N   1      34.990  16.497   9.268  0.00  0.00     0.198 C 
HETATM    4  C   UNK N   1      34.221  15.287   8.708  0.00  0.00     0.262 C 
HETATM    5  O   UNK N   1      33.894  14.463   9.810  0.00  0.00    -0.353 OA
ENDROOT
BRANCH   4   6
HETATM    6  N   UNK N   1      33.076  15.577   7.832  0.00  0.00    -0.297 N 
HETATM    7  C   UNK N   1      33.113  15.619   6.474  0.00  0.00     0.188 A 
HETATM    8  N   UNK N   1      31.962  16.139   5.958  0.00  0.00    -0.346 N 
HETATM    9  C   UNK N   1      31.223  16.447   7.037  0.00  0.00     0.129 A 
HETATM   10  H   UNK N   1      31.725  16.259   5.010  0.00  0.00     0.167 HD
HETATM   11  C   UNK N   1      31.887  16.112   8.161  0.00  0.00     0.145 A 
HETATM   12  C   UNK N   1      29.985  17.065   7.121  0.00  0.00     0.174 A 
HETATM   13  N   UNK N   1      31.390  16.349   9.396  0.00  0.00    -0.306 N 
HETATM   14  C   UNK N   1      30.154  16.929   9.497  0.00  0.00     0.224 A 
ATOM     15  HN  UNK N   1      31.921  16.103  10.232  1.00  0.00     0.171 HD
HETATM   16  N   UNK N   1      29.463  17.289   8.364  0.00  0.00    -0.301 N 
ATOM     17  HN  UNK N   1      28.548  17.731   8.452  1.00  0.00     0.171 HD
BRANCH  14  18
HETATM   18  O   UNK N   1      29.615  17.149  10.706  0.00  0.00    -0.332 OA
HETATM   19  H   UNK N   1      28.726  17.434  10.782  0.00  0.00     0.221 HD
ENDBRANCH  14  18
BRANCH  12  20
HETATM   20  O   UNK N   1      29.321  17.452   6.019  0.00  0.00    -0.344 OA
HETATM   21  H   UNK N   1      28.907  16.817   5.469  0.00  0.00     0.219 HD
ENDBRANCH  12  20
ENDBRANCH   4   6
BRANCH   3  22
HETATM   22  O   UNK N   1      34.161  17.602   9.489  0.00  0.00    -0.388 OA
HETATM   23  H   UNK N   1      33.311  17.968   9.783  0.00  0.00     0.210 HD
ENDBRANCH   3  22
BRANCH   2  24
HETATM   24  O   UNK N   1      36.797  16.209  10.885  0.00  0.00    -0.390 OA
HETATM   25  H   UNK N   1      37.335  15.816  11.589  0.00  0.00     0.210 HD
ENDBRANCH   2  24
BRANCH   1  26
HETATM   26  C   UNK N   1      34.986  13.911  11.948  0.00  0.00     0.215 C 
BRANCH  26  27
HETATM   27  O   UNK N   1      36.226  13.547  12.495  0.00  0.00    -0.294 OA
BRANCH  27  28
HETATM   28  P   UNK N   1      36.082  13.559  14.240  0.00  0.00     0.390 P 
HETATM   29  O   UNK N   1      37.113  12.397  14.154  0.00  0.00    -0.632 OA
BRANCH  28  30
HETATM   30  O   UNK N   1      37.347  14.144  15.275  0.00  0.00    -0.307 OA
HETATM   31  H   UNK N   1      38.267  14.240  14.984  0.00  0.00     0.222 HD
ENDBRANCH  28  30
BRANCH  28  32
HETATM   32  O   UNK N   1      36.884  14.976  13.631  0.00  0.00    -0.307 OA
HETATM   33  H   UNK N   1      36.779  15.883  13.954  0.00  0.00     0.222 HD
ENDBRANCH  28  32
ENDBRANCH  27  28
ENDBRANCH  26  27
ENDBRANCH   1  26
TORSDOF 10
ENDMDL
MODEL 4
REMARK VINA RESULT:      -6.6      2.133      2.830
REMARK  10 active torsions:
REMARK  status: ('A' for Active; 'I' for Inactive)
REMARK    1  A    between atoms: C_3  and  C_1 
REMARK    2  A    between atoms: O_24  and  C_1 
REMARK    3  A    between atoms: C_5  and  O_17 
REMARK    4  A    between atoms: C_6  and  O_18 
REMARK    5  A    between atoms: O_19  and  C_8 
REMARK    6  A    between atoms: C_9  and  N_16 
REMARK    7  A    between atoms: O_20  and  C_10 
REMARK    8  A    between atoms: P_26  and  O_21 
REMARK    9  A    between atoms: P_26  and  O_22 
REMARK   10  A    between atoms: P_26  and  O_24 
ROOT
HETATM    1  C   UNK N   1      33.776  15.826   9.485  0.00  0.00     0.180 C 
HETATM    2  C   UNK N   1      35.111  16.550   9.481  0.00  0.00     0.182 C 
HETATM    3  C   UNK N   1      35.744  16.125  10.796  0.00  0.00     0.198 C 
HETATM    4  C   UNK N   1      34.779  15.017  11.252  0.00  0.00     0.262 C 
HETATM    5  O   UNK N   1      34.075  14.588  10.103  0.00  0.00    -0.353 OA
ENDROOT
BRANCH   4   6
HETATM    6  N   UNK N   1      35.357  13.914  12.033  0.00  0.00    -0.297 N 
HETATM    7  C   UNK N   1      35.085  12.594  11.853  0.00  0.00     0.188 A 
HETATM    8  N   UNK N   1      35.586  11.836  12.871  0.00  0.00    -0.346 N 
HETATM    9  C   UNK N   1      36.148  12.729  13.704  0.00  0.00     0.129 A 
HETATM   10  H   UNK N   1      35.547  10.858  12.972  0.00  0.00     0.167 HD
HETATM   11  C   UNK N   1      36.012  13.973  13.204  0.00  0.00     0.145 A 
HETATM   12  C   UNK N   1      36.754  12.537  14.936  0.00  0.00     0.174 A 
HETATM   13  N   UNK N   1      36.455  15.070  13.861  0.00  0.00    -0.306 N 
HETATM   14  C   UNK N   1      37.084  14.897  15.063  0.00  0.00     0.224 A 
ATOM     15  HN  UNK N   1      36.323  16.004  13.470  1.00  0.00     0.171 HD
HETATM   16  N   UNK N   1      37.224  13.637  15.597  0.00  0.00    -0.301 N 
ATOM     17  HN  UNK N   1      37.685  13.522  16.499  1.00  0.00     0.171 HD
BRANCH  14  18
HETATM   18  O   UNK N   1      37.564  15.960  15.726  0.00  0.00    -0.332 OA
HETATM   19  H   UNK N   1      38.486  16.052  15.866  0.00  0.00     0.221 HD
ENDBRANCH  14  18
BRANCH  12  20
HETATM   20  O   UNK N   1      36.862  11.313  15.479  0.00  0.00    -0.344 OA
HETATM   21  H   UNK N   1      37.702  10.973  15.715  0.00  0.00     0.219 HD
ENDBRANCH  12  20
ENDBRANCH   4   6
BRANCH   3  22
HETATM   22  O   UNK N   1      37.031  15.640  10.535  0.00  0.00    -0.388 OA
HETATM   23  H   UNK N   1      37.704  15.351   9.900  0.00  0.00     0.210 HD
ENDBRANCH   3  22
BRANCH   2  24
HETATM   24  O   UNK N   1      34.995  17.934   9.335  0.00  0.00    -0.390 OA
HETATM   25  H   UNK N   1      34.296  18.504   9.690  0.00  0.00     0.210 HD
ENDBRANCH   2  24
BRANCH   1  26
HETATM   26  C   UNK N   1      33.264  15.687   8.053  0.00  0.00     0.215 C 
BRANCH  26  27
HETATM   27  O   UNK N   1      33.044  16.927   7.433  0.00  0.00    -0.294 OA
BRANCH  27  28
HETATM   28  P   UNK N   1      33.299  16.734   5.712  0.00  0.00     0.390 P 
HETATM   29  O   UNK N   1      31.853  17.300   5.616  0.00  0.00    -0.632 OA
BRANCH  28  30
HETATM   30  O   UNK N   1      33.529  18.085   4.647  0.00  0.00    -0.307 OA
HETATM   31  H   UNK N   1      34.400  18.359   4.319  0.00  0.00     0.222 HD
ENDBRANCH  28  30
BRANCH  28  32
HETATM   32  O   UNK N   1      34.280  17.998   6.389  0.00  0.00    -0.307 OA
HETATM   33  H   UNK N   1      34.003  18.908   6.577  0.00  0.00     0.222 HD
ENDBRANCH  28  32
ENDBRANCH  27  28
ENDBRANCH  26  27
ENDBRANCH   1  26
TORSDOF 10
ENDMDL
MODEL 5
REMARK VINA RESULT:      -6.4     15.548     18.404
REMARK  10 active torsions:
REMARK  status: ('A' for Active; 'I' for Inactive)
REMARK    1  A    between atoms: C_3  and  C_1 
REMARK    2  A    between atoms: O_24  and  C_1 
REMARK    3  A    between atoms: C_5  and  O_17 
REMARK    4  A    between atoms: C_6  and  O_18 
REMARK    5  A    between atoms: O_19  and  C_8 
REMARK    6  A    between atoms: C_9  and  N_16 
REMARK    7  A    between atoms: O_20  and  C_10 
REMARK    8  A    between atoms: P_26  and  O_21 
REMARK    9  A    between atoms: P_26  and  O_22 
REMARK   10  A    between atoms: P_26  and  O_24 
ROOT
HETATM    1  C   UNK N   1      21.360  15.192   7.163  0.00  0.00     0.180 C 
HETATM    2  C   UNK N   1      19.914  15.473   7.532  0.00  0.00     0.182 C 
HETATM    3  C   UNK N   1      19.452  16.424   6.440  0.00  0.00     0.198 C 
HETATM    4  C   UNK N   1      20.636  16.355   5.459  0.00  0.00     0.262 C 
HETATM    5  O   UNK N   1      21.340  15.162   5.748  0.00  0.00    -0.353 OA
ENDROOT
BRANCH   4   6
HETATM    6  N   UNK N   1      20.326  16.522   4.032  0.00  0.00    -0.297 N 
HETATM    7  C   UNK N   1      20.194  15.513   3.130  0.00  0.00     0.188 A 
HETATM    8  N   UNK N   1      20.139  15.988   1.852  0.00  0.00    -0.346 N 
HETATM    9  C   UNK N   1      20.273  17.319   1.985  0.00  0.00     0.129 A 
HETATM   10  H   UNK N   1      20.025  15.473   1.021  0.00  0.00     0.167 HD
HETATM   11  C   UNK N   1      20.385  17.641   3.289  0.00  0.00     0.145 A 
HETATM   12  C   UNK N   1      20.354  18.306   1.016  0.00  0.00     0.174 A 
HETATM   13  N   UNK N   1      20.572  18.914   3.708  0.00  0.00    -0.306 N 
HETATM   14  C   UNK N   1      20.622  19.905   2.766  0.00  0.00     0.224 A 
ATOM     15  HN  UNK N   1      20.673  19.130   4.700  1.00  0.00     0.171 HD
HETATM   16  N   UNK N   1      20.521  19.597   1.429  0.00  0.00    -0.301 N 
ATOM     17  HN  UNK N   1      20.571  20.344   0.737  1.00  0.00     0.171 HD
BRANCH  14  18
HETATM   18  O   UNK N   1      20.773  21.183   3.148  0.00  0.00    -0.332 OA
HETATM   19  H   UNK N   1      21.175  21.803   2.572  0.00  0.00     0.221 HD
ENDBRANCH  14  18
BRANCH  12  20
HETATM   20  O   UNK N   1      20.292  18.008  -0.293  0.00  0.00    -0.344 OA
HETATM   21  H   UNK N   1      20.438  17.130  -0.584  0.00  0.00     0.219 HD
ENDBRANCH  12  20
ENDBRANCH   4   6
BRANCH   3  22
HETATM   22  O   UNK N   1      18.269  15.925   5.885  0.00  0.00    -0.388 OA
HETATM   23  H   UNK N   1      17.718  15.170   5.626  0.00  0.00     0.210 HD
ENDBRANCH   3  22
BRANCH   2  24
HETATM   24  O   UNK N   1      19.756  15.982   8.822  0.00  0.00    -0.390 OA
HETATM   25  H   UNK N   1      19.734  15.480   9.651  0.00  0.00     0.210 HD
ENDBRANCH   2  24
BRANCH   1  26
HETATM   26  C   UNK N   1      21.804  13.874   7.795  0.00  0.00     0.215 C 
BRANCH  26  27
HETATM   27  O   UNK N   1      20.831  13.327   8.646  0.00  0.00    -0.294 OA
BRANCH  27  28
HETATM   28  P   UNK N   1      21.532  13.151  10.241  0.00  0.00     0.390 P 
HETATM   29  O   UNK N   1      20.080  12.763  10.641  0.00  0.00    -0.632 OA
BRANCH  28  30
HETATM   30  O   UNK N   1      21.782  11.602  10.983  0.00  0.00    -0.307 OA
HETATM   31  H   UNK N   1      21.195  11.242  11.666  0.00  0.00     0.222 HD
ENDBRANCH  28  30
BRANCH  28  32
HETATM   32  O   UNK N   1      22.082  11.928   9.136  0.00  0.00    -0.307 OA
HETATM   33  H   UNK N   1      22.586  12.069   8.320  0.00  0.00     0.222 HD
ENDBRANCH  28  32
ENDBRANCH  27  28
ENDBRANCH  26  27
ENDBRANCH   1  26
TORSDOF 10
ENDMDL
MODEL 6
REMARK VINA RESULT:      -6.4     19.258     21.938
REMARK  10 active torsions:
REMARK  status: ('A' for Active; 'I' for Inactive)
REMARK    1  A    between atoms: C_3  and  C_1 
REMARK    2  A    between atoms: O_24  and  C_1 
REMARK    3  A    between atoms: C_5  and  O_17 
REMARK    4  A    between atoms: C_6  and  O_18 
REMARK    5  A    between atoms: O_19  and  C_8 
REMARK    6  A    between atoms: C_9  and  N_16 
REMARK    7  A    between atoms: O_20  and  C_10 
REMARK    8  A    between atoms: P_26  and  O_21 
REMARK    9  A    between atoms: P_26  and  O_22 
REMARK   10  A    between atoms: P_26  and  O_24 
ROOT
HETATM    1  C   UNK N   1      30.051  22.910  -4.107  0.00  0.00     0.180 C 
HETATM    2  C   UNK N   1      29.569  22.812  -2.670  0.00  0.00     0.182 C 
HETATM    3  C   UNK N   1      28.560  23.944  -2.561  0.00  0.00     0.198 C 
HETATM    4  C   UNK N   1      28.429  24.375  -4.033  0.00  0.00     0.262 C 
HETATM    5  O   UNK N   1      28.890  23.292  -4.819  0.00  0.00    -0.353 OA
ENDROOT
BRANCH   4   6
HETATM    6  N   UNK N   1      27.122  24.894  -4.458  0.00  0.00    -0.297 N 
HETATM    7  C   UNK N   1      26.301  24.312  -5.372  0.00  0.00     0.188 A 
HETATM    8  N   UNK N   1      25.277  25.142  -5.727  0.00  0.00    -0.346 N 
HETATM    9  C   UNK N   1      25.506  26.269  -5.030  0.00  0.00     0.129 A 
HETATM   10  H   UNK N   1      24.538  24.958  -6.349  0.00  0.00     0.167 HD
HETATM   11  C   UNK N   1      26.609  26.123  -4.270  0.00  0.00     0.145 A 
HETATM   12  C   UNK N   1      24.826  27.476  -5.042  0.00  0.00     0.174 A 
HETATM   13  N   UNK N   1      27.093  27.121  -3.494  0.00  0.00    -0.306 N 
HETATM   14  C   UNK N   1      26.415  28.309  -3.470  0.00  0.00     0.224 A 
ATOM     15  HN  UNK N   1      27.942  26.991  -2.942  1.00  0.00     0.171 HD
HETATM   16  N   UNK N   1      25.293  28.483  -4.246  0.00  0.00    -0.301 N 
ATOM     17  HN  UNK N   1      24.803  29.377  -4.228  1.00  0.00     0.171 HD
BRANCH  14  18
HETATM   18  O   UNK N   1      26.847  29.309  -2.687  0.00  0.00    -0.332 OA
HETATM   19  H   UNK N   1      26.282  30.029  -2.485  0.00  0.00     0.221 HD
ENDBRANCH  14  18
BRANCH  12  20
HETATM   20  O   UNK N   1      23.750  27.664  -5.825  0.00  0.00    -0.344 OA
HETATM   21  H   UNK N   1      23.840  28.088  -6.656  0.00  0.00     0.219 HD
ENDBRANCH  12  20
ENDBRANCH   4   6
BRANCH   3  22
HETATM   22  O   UNK N   1      27.366  23.429  -2.045  0.00  0.00    -0.388 OA
HETATM   23  H   UNK N   1      26.904  22.851  -1.418  0.00  0.00     0.210 HD
ENDBRANCH   3  22
BRANCH   2  24
HETATM   24  O   UNK N   1      30.597  22.885  -1.729  0.00  0.00    -0.390 OA
HETATM   25  H   UNK N   1      31.376  23.462  -1.756  0.00  0.00     0.210 HD
ENDBRANCH   2  24
BRANCH   1  26
HETATM   26  C   UNK N   1      30.623  21.564  -4.548  0.00  0.00     0.215 C 
BRANCH  26  27
HETATM   27  O   UNK N   1      31.264  20.879  -3.503  0.00  0.00    -0.294 OA
BRANCH  27  28
HETATM   28  P   UNK N   1      32.994  21.021  -3.734  0.00  0.00     0.390 P 
HETATM   29  O   UNK N   1      33.010  21.139  -2.182  0.00  0.00    -0.632 OA
BRANCH  28  30
HETATM   30  O   UNK N   1      34.098  19.752  -3.303  0.00  0.00    -0.307 OA
HETATM   31  H   UNK N   1      35.055  19.888  -3.224  0.00  0.00     0.222 HD
ENDBRANCH  28  30
BRANCH  28  32
HETATM   32  O   UNK N   1      32.405  19.428  -4.100  0.00  0.00    -0.307 OA
HETATM   33  H   UNK N   1      32.780  18.588  -3.796  0.00  0.00     0.222 HD
ENDBRANCH  28  32
ENDBRANCH  27  28
ENDBRANCH  26  27
ENDBRANCH   1  26
TORSDOF 10
ENDMDL
MODEL 7
REMARK VINA RESULT:      -6.3      2.122      3.408
REMARK  10 active torsions:
REMARK  status: ('A' for Active; 'I' for Inactive)
REMARK    1  A    between atoms: C_3  and  C_1 
REMARK    2  A    between atoms: O_24  and  C_1 
REMARK    3  A    between atoms: C_5  and  O_17 
REMARK    4  A    between atoms: C_6  and  O_18 
REMARK    5  A    between atoms: O_19  and  C_8 
REMARK    6  A    between atoms: C_9  and  N_16 
REMARK    7  A    between atoms: O_20  and  C_10 
REMARK    8  A    between atoms: P_26  and  O_21 
REMARK    9  A    between atoms: P_26  and  O_22 
REMARK   10  A    between atoms: P_26  and  O_24 
ROOT
HETATM    1  C   UNK N   1      35.969  12.751  13.108  0.00  0.00     0.180 C 
HETATM    2  C   UNK N   1      34.625  12.064  12.942  0.00  0.00     0.182 C 
HETATM    3  C   UNK N   1      34.652  10.979  14.007  0.00  0.00     0.198 C 
HETATM    4  C   UNK N   1      35.915  11.364  14.798  0.00  0.00     0.262 C 
HETATM    5  O   UNK N   1      36.183  12.722  14.507  0.00  0.00    -0.353 OA
ENDROOT
BRANCH   4   6
HETATM    6  N   UNK N   1      35.916  11.061  16.236  0.00  0.00    -0.297 N 
HETATM    7  C   UNK N   1      35.875   9.815  16.779  0.00  0.00     0.188 A 
HETATM    8  N   UNK N   1      35.651   9.862  18.124  0.00  0.00    -0.346 N 
HETATM    9  C   UNK N   1      35.521  11.173  18.394  0.00  0.00     0.129 A 
HETATM   10  H   UNK N   1      35.599   9.109  18.755  0.00  0.00     0.167 HD
HETATM   11  C   UNK N   1      35.679  11.892  17.265  0.00  0.00     0.145 A 
HETATM   12  C   UNK N   1      35.219  11.810  19.587  0.00  0.00     0.174 A 
HETATM   13  N   UNK N   1      35.559  13.239  17.241  0.00  0.00    -0.306 N 
HETATM   14  C   UNK N   1      35.292  13.887  18.416  0.00  0.00     0.224 A 
ATOM     15  HN  UNK N   1      35.665  13.760  16.369  1.00  0.00     0.171 HD
HETATM   16  N   UNK N   1      35.117  13.172  19.578  0.00  0.00    -0.301 N 
ATOM     17  HN  UNK N   1      34.907  13.666  20.446  1.00  0.00     0.171 HD
BRANCH  14  18
HETATM   18  O   UNK N   1      35.200  15.226  18.436  0.00  0.00    -0.332 OA
HETATM   19  H   UNK N   1      34.360  15.641  18.417  0.00  0.00     0.221 HD
ENDBRANCH  14  18
BRANCH  12  20
HETATM   20  O   UNK N   1      35.010  11.114  20.717  0.00  0.00    -0.344 OA
HETATM   21  H   UNK N   1      35.461  11.347  21.505  0.00  0.00     0.219 HD
ENDBRANCH  12  20
ENDBRANCH   4   6
BRANCH   3  22
HETATM   22  O   UNK N   1      33.487  11.081  14.777  0.00  0.00    -0.388 OA
HETATM   23  H   UNK N   1      32.900  10.722  15.460  0.00  0.00     0.210 HD
ENDBRANCH   3  22
BRANCH   2  24
HETATM   24  O   UNK N   1      34.401  11.578  11.653  0.00  0.00    -0.390 OA
HETATM   25  H   UNK N   1      33.572  11.226  11.294  0.00  0.00     0.210 HD
ENDBRANCH   2  24
BRANCH   1  26
HETATM   26  C   UNK N   1      35.897  14.163  12.530  0.00  0.00     0.215 C 
BRANCH  26  27
HETATM   27  O   UNK N   1      36.286  14.217  11.182  0.00  0.00    -0.294 OA
BRANCH  27  28
HETATM   28  P   UNK N   1      35.292  15.408  10.371  0.00  0.00     0.390 P 
HETATM   29  O   UNK N   1      34.340  15.174  11.579  0.00  0.00    -0.632 OA
BRANCH  28  30
HETATM   30  O   UNK N   1      35.096  17.024  10.974  0.00  0.00    -0.307 OA
HETATM   31  H   UNK N   1      34.640  17.228  11.805  0.00  0.00     0.222 HD
ENDBRANCH  28  30
BRANCH  28  32
HETATM   32  O   UNK N   1      36.752  16.093  11.020  0.00  0.00    -0.307 OA
HETATM   33  H   UNK N   1      37.596  15.636  11.154  0.00  0.00     0.222 HD
ENDBRANCH  28  32
ENDBRANCH  27  28
ENDBRANCH  26  27
ENDBRANCH   1  26
TORSDOF 10
ENDMDL
MODEL 8
REMARK VINA RESULT:      -6.3     14.731     17.631
REMARK  10 active torsions:
REMARK  status: ('A' for Active; 'I' for Inactive)
REMARK    1  A    between atoms: C_3  and  C_1 
REMARK    2  A    between atoms: O_24  and  C_1 
REMARK    3  A    between atoms: C_5  and  O_17 
REMARK    4  A    between atoms: C_6  and  O_18 
REMARK    5  A    between atoms: O_19  and  C_8 
REMARK    6  A    between atoms: C_9  and  N_16 
REMARK    7  A    between atoms: O_20  and  C_10 
REMARK    8  A    between atoms: P_26  and  O_21 
REMARK    9  A    between atoms: P_26  and  O_22 
REMARK   10  A    between atoms: P_26  and  O_24 
ROOT
HETATM    1  C   UNK N   1      19.870  16.056   5.480  0.00  0.00     0.180 C 
HETATM    2  C   UNK N   1      19.887  15.432   4.095  0.00  0.00     0.182 C 
HETATM    3  C   UNK N   1      20.059  16.628   3.173  0.00  0.00     0.198 C 
HETATM    4  C   UNK N   1      20.365  17.747   4.185  0.00  0.00     0.262 C 
HETATM    5  O   UNK N   1      20.801  17.117   5.374  0.00  0.00    -0.353 OA
ENDROOT
BRANCH   4   6
HETATM    6  N   UNK N   1      21.255  18.825   3.732  0.00  0.00    -0.297 N 
HETATM    7  C   UNK N   1      20.948  19.760   2.793  0.00  0.00     0.188 A 
HETATM    8  N   UNK N   1      22.048  20.476   2.420  0.00  0.00    -0.346 N 
HETATM    9  C   UNK N   1      23.053  19.935   3.131  0.00  0.00     0.129 A 
HETATM   10  H   UNK N   1      22.095  21.220   1.778  0.00  0.00     0.167 HD
HETATM   11  C   UNK N   1      22.581  18.947   3.916  0.00  0.00     0.145 A 
HETATM   12  C   UNK N   1      24.409  20.219   3.111  0.00  0.00     0.174 A 
HETATM   13  N   UNK N   1      23.386  18.205   4.711  0.00  0.00    -0.306 N 
HETATM   14  C   UNK N   1      24.724  18.492   4.727  0.00  0.00     0.224 A 
ATOM     15  HN  UNK N   1      23.007  17.449   5.283  1.00  0.00     0.171 HD
HETATM   16  N   UNK N   1      25.229  19.489   3.925  0.00  0.00    -0.301 N 
ATOM     17  HN  UNK N   1      26.229  19.687   3.938  1.00  0.00     0.171 HD
BRANCH  14  18
HETATM   18  O   UNK N   1      25.547  17.798   5.528  0.00  0.00    -0.332 OA
HETATM   19  H   UNK N   1      26.355  17.460   5.195  0.00  0.00     0.221 HD
ENDBRANCH  14  18
BRANCH  12  20
HETATM   20  O   UNK N   1      24.914  21.166   2.303  0.00  0.00    -0.344 OA
HETATM   21  H   UNK N   1      25.523  21.796   2.635  0.00  0.00     0.219 HD
ENDBRANCH  12  20
ENDBRANCH   4   6
BRANCH   3  22
HETATM   22  O   UNK N   1      21.132  16.377   2.312  0.00  0.00    -0.388 OA
HETATM   23  H   UNK N   1      21.507  15.896   1.557  0.00  0.00     0.210 HD
ENDBRANCH   3  22
BRANCH   2  24
HETATM   24  O   UNK N   1      18.754  14.666   3.814  0.00  0.00    -0.390 OA
HETATM   25  H   UNK N   1      18.719  13.711   3.648  0.00  0.00     0.210 HD
ENDBRANCH   2  24
BRANCH   1  26
HETATM   26  C   UNK N   1      20.255  15.006   6.519  0.00  0.00     0.215 C 
BRANCH  26  27
HETATM   27  O   UNK N   1      19.557  15.158   7.728  0.00  0.00    -0.294 OA
BRANCH  27  28
HETATM   28  P   UNK N   1      20.570  14.563   9.026  0.00  0.00     0.390 P 
HETATM   29  O   UNK N   1      19.218  14.446   9.787  0.00  0.00    -0.632 OA
BRANCH  28  30
HETATM   30  O   UNK N   1      20.587  12.895   9.505  0.00  0.00    -0.307 OA
HETATM   31  H   UNK N   1      21.077  12.211   9.023  0.00  0.00     0.222 HD
ENDBRANCH  28  30
BRANCH  28  32
HETATM   32  O   UNK N   1      20.483  13.453   7.692  0.00  0.00    -0.307 OA
HETATM   33  H   UNK N   1      21.127  12.764   7.469  0.00  0.00     0.222 HD
ENDBRANCH  28  32
ENDBRANCH  27  28
ENDBRANCH  26  27
ENDBRANCH   1  26
TORSDOF 10
ENDMDL
MODEL 9
REMARK VINA RESULT:      -6.2      2.653      3.828
REMARK  10 active torsions:
REMARK  status: ('A' for Active; 'I' for Inactive)
REMARK    1  A    between atoms: C_3  and  C_1 
REMARK    2  A    between atoms: O_24  and  C_1 
REMARK    3  A    between atoms: C_5  and  O_17 
REMARK    4  A    between atoms: C_6  and  O_18 
REMARK    5  A    between atoms: O_19  and  C_8 
REMARK    6  A    between atoms: C_9  and  N_16 
REMARK    7  A    between atoms: O_20  and  C_10 
REMARK    8  A    between atoms: P_26  and  O_21 
REMARK    9  A    between atoms: P_26  and  O_22 
REMARK   10  A    between atoms: P_26  and  O_24 
ROOT
HETATM    1  C   UNK N   1      33.863  15.955   9.621  0.00  0.00     0.180 C 
HETATM    2  C   UNK N   1      35.199  16.677   9.602  0.00  0.00     0.182 C 
HETATM    3  C   UNK N   1      35.783  16.371  10.972  0.00  0.00     0.198 C 
HETATM    4  C   UNK N   1      34.798  15.307  11.489  0.00  0.00     0.262 C 
HETATM    5  O   UNK N   1      34.135  14.777  10.357  0.00  0.00    -0.353 OA
ENDROOT
BRANCH   4   6
HETATM    6  N   UNK N   1      35.344  14.278  12.385  0.00  0.00    -0.297 N 
HETATM    7  C   UNK N   1      36.282  14.487  13.347  0.00  0.00     0.188 A 
HETATM    8  N   UNK N   1      36.754  13.309  13.850  0.00  0.00    -0.346 N 
HETATM    9  C   UNK N   1      36.105  12.364  13.148  0.00  0.00     0.129 A 
HETATM   10  H   UNK N   1      37.417  13.181  14.565  0.00  0.00     0.167 HD
HETATM   11  C   UNK N   1      35.260  12.941  12.271  0.00  0.00     0.145 A 
HETATM   12  C   UNK N   1      36.232  10.984  13.185  0.00  0.00     0.174 A 
HETATM   13  N   UNK N   1      34.508  12.221  11.407  0.00  0.00    -0.306 N 
HETATM   14  C   UNK N   1      34.597  10.857  11.452  0.00  0.00     0.224 A 
ATOM     15  HN  UNK N   1      33.889  12.683  10.739  1.00  0.00     0.171 HD
HETATM   16  N   UNK N   1      35.460  10.247  12.332  0.00  0.00    -0.301 N 
ATOM     17  HN  UNK N   1      35.526   9.229  12.348  1.00  0.00     0.171 HD
BRANCH  14  18
HETATM   18  O   UNK N   1      33.840  10.110  10.633  0.00  0.00    -0.332 OA
HETATM   19  H   UNK N   1      33.450   9.317  10.944  0.00  0.00     0.221 HD
ENDBRANCH  14  18
BRANCH  12  20
HETATM   20  O   UNK N   1      37.100  10.384  14.017  0.00  0.00    -0.344 OA
HETATM   21  H   UNK N   1      36.851   9.610  14.480  0.00  0.00     0.219 HD
ENDBRANCH  12  20
ENDBRANCH   4   6
BRANCH   3  22
HETATM   22  O   UNK N   1      37.076  15.866  10.803  0.00  0.00    -0.388 OA
HETATM   23  H   UNK N   1      37.676  15.213  10.408  0.00  0.00     0.210 HD
ENDBRANCH   3  22
BRANCH   2  24
HETATM   24  O   UNK N   1      35.093  18.042   9.330  0.00  0.00    -0.390 OA
HETATM   25  H   UNK N   1      34.281  18.572   9.298  0.00  0.00     0.210 HD
ENDBRANCH   2  24
BRANCH   1  26
HETATM   26  C   UNK N   1      33.403  15.689   8.190  0.00  0.00     0.215 C 
BRANCH  26  27
HETATM   27  O   UNK N   1      33.013  16.859   7.519  0.00  0.00    -0.294 OA
BRANCH  27  28
HETATM   28  P   UNK N   1      33.348  16.653   5.814  0.00  0.00     0.390 P 
HETATM   29  O   UNK N   1      31.884  17.153   5.648  0.00  0.00    -0.632 OA
BRANCH  28  30
HETATM   30  O   UNK N   1      33.563  17.998   4.737  0.00  0.00    -0.307 OA
HETATM   31  H   UNK N   1      33.587  17.905   3.772  0.00  0.00     0.222 HD
ENDBRANCH  28  30
BRANCH  28  32
HETATM   32  O   UNK N   1      34.243  17.970   6.511  0.00  0.00    -0.307 OA
HETATM   33  H   UNK N   1      34.820  18.591   6.041  0.00  0.00     0.222 HD
ENDBRANCH  28  32
ENDBRANCH  27  28
ENDBRANCH  26  27
ENDBRANCH   1  26
TORSDOF 10
ENDMDL
