REMARK  6 active torsions:
REMARK  status: ('A' for Active; 'I' for Inactive)
REMARK    1  A    between atoms: C_2  and  N_1 
REMARK    2  A    between atoms: C_2  and  C_3 
REMARK    3  A    between atoms: C_2  and  C_7 
REMARK    4  A    between atoms: C_3  and  S_4 
REMARK    5  A    between atoms: S_4  and  O_5 
REMARK    6  A    between atoms: C_7  and  O_8 
ROOT
HETATM    1  C   UNK N   1       2.320   1.125  -0.436  0.00  0.00     0.187 C 
ENDROOT
BRANCH   1   2
HETATM    2  N   UNK N   1       2.500   2.548  -0.190  0.00  0.00    -0.417 N 
HETATM    3  H   UNK N   1       3.427   2.937  -0.017  0.00  0.00     0.150 HD
HETATM    4  H   UNK N   1       1.688   3.164  -0.190  0.00  0.00     0.150 HD
ENDBRANCH   1   2
BRANCH   1   5
HETATM    5  C   UNK N   1       1.076   0.635   0.287  0.00  0.00     0.174 C 
BRANCH   5   6
HETATM    6  S   UNK N   1      -0.406   1.187  -0.613  0.00  0.00     0.152 S 
HETATM    7  O   UNK N   1      -0.644   2.351   0.360  0.00  0.00    -0.229 OA
BRANCH   6   8
HETATM    8  O   UNK N   1      -1.429   0.138   0.281  0.00  0.00    -0.306 OA
HETATM    9  H   UNK N   1      -2.232   0.342   0.786  0.00  0.00     0.230 HD
ENDBRANCH   6   8
ENDBRANCH   5   6
ENDBRANCH   1   5
BRANCH   1  10
HETATM   10  C   UNK N   1       3.539   0.354  -0.014  0.00  0.00     0.163 C 
HETATM   11  O   UNK N   1       3.563  -0.860  -0.143  0.00  0.00    -0.648 OA
BRANCH  10  12
HETATM   12  O   UNK N   1       4.624   0.992   0.467  0.00  0.00    -0.775 OA
HETATM   13  H   UNK N   1       5.385   0.561   0.802  0.00  0.00     0.167 HD
ENDBRANCH  10  12
ENDBRANCH   1  10
TORSDOF 6
