MODEL 1
REMARK VINA RESULT:      -3.3      0.000      0.000
REMARK  0 active torsions:
REMARK  status: ('A' for Active; 'I' for Inactive)
ROOT
HETATM    1  C   UNK N   1      25.075  27.260  -5.492  0.00  0.00     0.004 A 
HETATM    2  C   UNK N   1      25.490  27.951  -4.219  0.00  0.00     0.026 A 
HETATM    3  C   UNK N   1      26.155  27.138  -3.118  0.00  0.00     0.167 A 
HETATM    4  O   UNK N   1      26.398  25.750  -3.246  0.00  0.00    -0.391 OA
HETATM    5  C   UNK N   1      26.022  25.073  -4.425  0.00  0.00     0.167 A 
HETATM    6  C   UNK N   1      25.350  25.783  -5.592  0.00  0.00     0.026 A 
ENDROOT
TORSDOF 0
ENDMDL
MODEL 2
REMARK VINA RESULT:      -3.3      0.031      2.049
REMARK  0 active torsions:
REMARK  status: ('A' for Active; 'I' for Inactive)
ROOT
HETATM    1  C   UNK N   1      25.081  27.230  -5.501  0.00  0.00     0.004 A 
HETATM    2  C   UNK N   1      25.359  25.751  -5.572  0.00  0.00     0.026 A 
HETATM    3  C   UNK N   1      26.030  25.066  -4.390  0.00  0.00     0.167 A 
HETATM    4  O   UNK N   1      26.403  25.771  -3.221  0.00  0.00    -0.391 OA
HETATM    5  C   UNK N   1      26.157  27.157  -3.123  0.00  0.00     0.167 A 
HETATM    6  C   UNK N   1      25.492  27.947  -4.242  0.00  0.00     0.026 A 
ENDROOT
TORSDOF 0
ENDMDL
MODEL 3
REMARK VINA RESULT:      -3.2     20.246     21.147
REMARK  0 active torsions:
REMARK  status: ('A' for Active; 'I' for Inactive)
ROOT
HETATM    1  C   UNK N   1      22.114  12.639  10.261  0.00  0.00     0.004 A 
HETATM    2  C   UNK N   1      22.014  12.169  11.689  0.00  0.00     0.026 A 
HETATM    3  C   UNK N   1      23.289  11.846  12.454  0.00  0.00     0.167 A 
HETATM    4  O   UNK N   1      24.572  11.973  11.871  0.00  0.00    -0.391 OA
HETATM    5  C   UNK N   1      24.701  12.411  10.536  0.00  0.00     0.167 A 
HETATM    6  C   UNK N   1      23.496  12.761   9.674  0.00  0.00     0.026 A 
ENDROOT
TORSDOF 0
ENDMDL
MODEL 4
REMARK VINA RESULT:      -3.2     15.566     16.188
REMARK  0 active torsions:
REMARK  status: ('A' for Active; 'I' for Inactive)
ROOT
HETATM    1  C   UNK N   1      31.597  17.275   7.347  0.00  0.00     0.004 A 
HETATM    2  C   UNK N   1      32.571  17.845   8.345  0.00  0.00     0.026 A 
HETATM    3  C   UNK N   1      33.988  18.169   7.896  0.00  0.00     0.167 A 
HETATM    4  O   UNK N   1      34.427  17.954   6.568  0.00  0.00    -0.391 OA
HETATM    5  C   UNK N   1      33.539  17.422   5.609  0.00  0.00     0.167 A 
HETATM    6  C   UNK N   1      32.099  17.060   5.944  0.00  0.00     0.026 A 
ENDROOT
TORSDOF 0
ENDMDL
MODEL 5
REMARK VINA RESULT:      -3.2     20.185     21.104
REMARK  0 active torsions:
REMARK  status: ('A' for Active; 'I' for Inactive)
ROOT
HETATM    1  C   UNK N   1      22.225  12.698  10.139  0.00  0.00     0.004 A 
HETATM    2  C   UNK N   1      23.644  12.807   9.645  0.00  0.00     0.026 A 
HETATM    3  C   UNK N   1      24.785  12.427  10.577  0.00  0.00     0.167 A 
HETATM    4  O   UNK N   1      24.561  11.972  11.899  0.00  0.00    -0.391 OA
HETATM    5  C   UNK N   1      23.244  11.859  12.392  0.00  0.00     0.167 A 
HETATM    6  C   UNK N   1      22.025  12.211  11.550  0.00  0.00     0.026 A 
ENDROOT
TORSDOF 0
ENDMDL
MODEL 6
REMARK VINA RESULT:      -3.2     15.569     16.284
REMARK  0 active torsions:
REMARK  status: ('A' for Active; 'I' for Inactive)
ROOT
HETATM    1  C   UNK N   1      31.587  17.258   7.337  0.00  0.00     0.004 A 
HETATM    2  C   UNK N   1      32.096  17.041   5.936  0.00  0.00     0.026 A 
HETATM    3  C   UNK N   1      33.535  17.409   5.605  0.00  0.00     0.167 A 
HETATM    4  O   UNK N   1      34.416  17.952   6.570  0.00  0.00    -0.391 OA
HETATM    5  C   UNK N   1      33.971  18.168   7.891  0.00  0.00     0.167 A 
HETATM    6  C   UNK N   1      32.553  17.837   8.337  0.00  0.00     0.026 A 
ENDROOT
TORSDOF 0
ENDMDL
MODEL 7
REMARK VINA RESULT:      -2.6     16.606     17.593
REMARK  0 active torsions:
REMARK  status: ('A' for Active; 'I' for Inactive)
ROOT
HETATM    1  C   UNK N   1      34.029  15.584   8.397  0.00  0.00     0.004 A 
HETATM    2  C   UNK N   1      34.321  16.950   8.961  0.00  0.00     0.026 A 
HETATM    3  C   UNK N   1      34.475  18.127   8.009  0.00  0.00     0.167 A 
HETATM    4  O   UNK N   1      34.355  17.985   6.606  0.00  0.00    -0.391 OA
HETATM    5  C   UNK N   1      34.082  16.719   6.046  0.00  0.00     0.167 A 
HETATM    6  C   UNK N   1      33.907  15.471   6.900  0.00  0.00     0.026 A 
ENDROOT
TORSDOF 0
ENDMDL
MODEL 8
REMARK VINA RESULT:      -2.6     15.461     15.965
REMARK  0 active torsions:
REMARK  status: ('A' for Active; 'I' for Inactive)
ROOT
HETATM    1  C   UNK N   1      28.185  17.587   7.713  0.00  0.00     0.004 A 
HETATM    2  C   UNK N   1      29.473  17.130   7.079  0.00  0.00     0.026 A 
HETATM    3  C   UNK N   1      30.792  17.444   7.771  0.00  0.00     0.167 A 
HETATM    4  O   UNK N   1      30.853  18.153   8.993  0.00  0.00    -0.391 OA
HETATM    5  C   UNK N   1      29.665  18.595   9.613  0.00  0.00     0.167 A 
HETATM    6  C   UNK N   1      28.289  18.339   9.014  0.00  0.00     0.026 A 
ENDROOT
TORSDOF 0
ENDMDL
MODEL 9
REMARK VINA RESULT:      -2.6     17.598     18.378
REMARK  0 active torsions:
REMARK  status: ('A' for Active; 'I' for Inactive)
ROOT
HETATM    1  C   UNK N   1      41.624  20.775   2.895  0.00  0.00     0.004 A 
HETATM    2  C   UNK N   1      42.899  21.340   3.465  0.00  0.00     0.026 A 
HETATM    3  C   UNK N   1      43.282  22.777   3.141  0.00  0.00     0.167 A 
HETATM    4  O   UNK N   1      42.482  23.605   2.319  0.00  0.00    -0.391 OA
HETATM    5  C   UNK N   1      41.282  23.106   1.769  0.00  0.00     0.167 A 
HETATM    6  C   UNK N   1      40.798  21.685   2.025  0.00  0.00     0.026 A 
ENDROOT
TORSDOF 0
ENDMDL
