MODEL 1
REMARK VINA RESULT:      -6.1      0.000      0.000
REMARK  6 active torsions:
REMARK  status: ('A' for Active; 'I' for Inactive)
REMARK    1  A    between atoms: C_3  and  N_1 
REMARK    2  A    between atoms: C_9  and  O_16 
REMARK    3  A    between atoms: C_12  and  N_19 
REMARK    4  A    between atoms: C_14  and  C_20 
REMARK    5  A    between atoms: C_15  and  O_21 
REMARK    6  A    between atoms: C_20  and  S_22 
ROOT
HETATM    1  N   UNK N   1      32.584  17.503   6.642  0.00  0.00    -0.297 N 
HETATM    2  C   UNK N   1      31.357  17.228   6.175  0.00  0.00     0.142 A 
HETATM    3  C   UNK N   1      33.371  17.576   5.537  0.00  0.00     0.188 A 
HETATM    4  C   UNK N   1      31.394  17.144   4.833  0.00  0.00     0.122 A 
HETATM    5  N   UNK N   1      30.214  17.046   6.882  0.00  0.00    -0.336 N 
ATOM      6  HN  UNK N   1      30.211  17.114   7.900  1.00  0.00     0.168 HD
HETATM    7  N   UNK N   1      32.651  17.360   4.398  0.00  0.00    -0.346 N 
ATOM      8  HN  UNK N   1      32.987  17.362   3.435  1.00  0.00     0.167 HD
HETATM    9  C   UNK N   1      30.236  16.870   4.120  0.00  0.00     0.131 A 
HETATM   10  C   UNK N   1      29.065  16.766   6.196  0.00  0.00     0.183 A 
HETATM   11  N   UNK N   1      29.079  16.682   4.825  0.00  0.00    -0.337 N 
ATOM     12  HN  UNK N   1      28.214  16.478   4.324  1.00  0.00     0.168 HD
ENDROOT
BRANCH   1  13
HETATM   13  C   UNK N   1      33.015  17.696   8.029  0.00  0.00     0.262 C 
HETATM   14  O   UNK N   1      32.582  16.621   8.835  0.00  0.00    -0.355 OA
HETATM   15  C   UNK N   1      33.721  15.818   8.962  0.00  0.00     0.165 C 
HETATM   16  C   UNK N   1      34.882  16.756   9.181  0.00  0.00     0.180 C 
HETATM   17  C   UNK N   1      34.539  17.743   8.095  0.00  0.00     0.198 C 
BRANCH  15  18
HETATM   18  C   UNK N   1      33.561  14.766  10.042  0.00  0.00     0.108 C 
BRANCH  18  19
HETATM   19  S   UNK N   1      35.081  13.776  10.126  0.00  0.00    -0.171 SA
HETATM   20  C   UNK N   1      35.160  13.914  11.933  0.00  0.00     0.089 C 
ENDBRANCH  18  19
ENDBRANCH  15  18
BRANCH  16  21
HETATM   21  O   UNK N   1      34.758  17.357  10.441  0.00  0.00    -0.390 OA
HETATM   22  H   UNK N   1      34.451  17.003  11.290  0.00  0.00     0.210 HD
ENDBRANCH  16  21
BRANCH  17  23
HETATM   23  O   UNK N   1      35.011  19.027   8.376  0.00  0.00    -0.388 OA
HETATM   24  H   UNK N   1      35.344  19.591   7.660  0.00  0.00     0.210 HD
ENDBRANCH  17  23
ENDBRANCH   1  13
BRANCH   9  25
HETATM   25  N   UNK N   1      30.241  16.787   2.715  0.00  0.00    -0.383 N 
HETATM   26  H   UNK N   1      29.478  16.402   2.225  0.00  0.00     0.157 HD
HETATM   27  H   UNK N   1      31.020  17.121   2.212  0.00  0.00     0.157 HD
ENDBRANCH   9  25
TORSDOF 6
ENDMDL
MODEL 2
REMARK VINA RESULT:      -5.7     11.071     13.126
REMARK  6 active torsions:
REMARK  status: ('A' for Active; 'I' for Inactive)
REMARK    1  A    between atoms: C_3  and  N_1 
REMARK    2  A    between atoms: C_9  and  O_16 
REMARK    3  A    between atoms: C_12  and  N_19 
REMARK    4  A    between atoms: C_14  and  C_20 
REMARK    5  A    between atoms: C_15  and  O_21 
REMARK    6  A    between atoms: C_20  and  S_22 
ROOT
HETATM    1  N   UNK N   1      21.871  13.694   8.309  0.00  0.00    -0.297 N 
HETATM    2  C   UNK N   1      21.984  13.090   9.502  0.00  0.00     0.142 A 
HETATM    3  C   UNK N   1      23.149  13.871   7.883  0.00  0.00     0.188 A 
HETATM    4  C   UNK N   1      23.284  12.899   9.789  0.00  0.00     0.122 A 
HETATM    5  N   UNK N   1      20.991  12.708  10.343  0.00  0.00    -0.336 N 
ATOM      6  HN  UNK N   1      20.012  12.865  10.104  1.00  0.00     0.168 HD
HETATM    7  N   UNK N   1      24.047  13.379   8.787  0.00  0.00    -0.346 N 
ATOM      8  HN  UNK N   1      25.064  13.376   8.718  1.00  0.00     0.167 HD
HETATM    9  C   UNK N   1      23.652  12.284  10.976  0.00  0.00     0.131 A 
HETATM   10  C   UNK N   1      21.337  12.108  11.522  0.00  0.00     0.183 A 
HETATM   11  N   UNK N   1      22.658  11.897  11.832  0.00  0.00    -0.337 N 
ATOM     12  HN  UNK N   1      22.903  11.443  12.713  1.00  0.00     0.168 HD
ENDROOT
BRANCH   1  13
HETATM   13  C   UNK N   1      20.655  14.085   7.592  0.00  0.00     0.262 C 
HETATM   14  O   UNK N   1      19.687  14.582   8.492  0.00  0.00    -0.355 OA
HETATM   15  C   UNK N   1      19.790  15.971   8.362  0.00  0.00     0.165 C 
HETATM   16  C   UNK N   1      19.941  16.251   6.887  0.00  0.00     0.180 C 
HETATM   17  C   UNK N   1      20.977  15.196   6.597  0.00  0.00     0.198 C 
BRANCH  15  18
HETATM   18  C   UNK N   1      18.628  16.694   9.016  0.00  0.00     0.108 C 
BRANCH  18  19
HETATM   19  S   UNK N   1      19.165  18.364   9.482  0.00  0.00    -0.171 SA
HETATM   20  C   UNK N   1      17.788  18.562  10.647  0.00  0.00     0.089 C 
ENDBRANCH  18  19
ENDBRANCH  15  18
BRANCH  16  21
HETATM   21  O   UNK N   1      18.739  15.946   6.235  0.00  0.00    -0.390 OA
HETATM   22  H   UNK N   1      18.501  15.960   5.295  0.00  0.00     0.210 HD
ENDBRANCH  16  21
BRANCH  17  23
HETATM   23  O   UNK N   1      20.921  14.747   5.275  0.00  0.00    -0.388 OA
HETATM   24  H   UNK N   1      21.582  14.118   4.946  0.00  0.00     0.210 HD
ENDBRANCH  17  23
ENDBRANCH   1  13
BRANCH   9  25
HETATM   25  N   UNK N   1      25.004  12.060  11.298  0.00  0.00    -0.383 N 
HETATM   26  H   UNK N   1      25.659  11.818  10.604  0.00  0.00     0.157 HD
HETATM   27  H   UNK N   1      25.300  12.146  12.234  0.00  0.00     0.157 HD
ENDBRANCH   9  25
TORSDOF 6
ENDMDL
MODEL 3
REMARK VINA RESULT:      -5.5      3.126      4.758
REMARK  6 active torsions:
REMARK  status: ('A' for Active; 'I' for Inactive)
REMARK    1  A    between atoms: C_3  and  N_1 
REMARK    2  A    between atoms: C_9  and  O_16 
REMARK    3  A    between atoms: C_12  and  N_19 
REMARK    4  A    between atoms: C_14  and  C_20 
REMARK    5  A    between atoms: C_15  and  O_21 
REMARK    6  A    between atoms: C_20  and  S_22 
ROOT
HETATM    1  N   UNK N   1      29.555  17.544   7.784  0.00  0.00    -0.297 N 
HETATM    2  C   UNK N   1      28.892  18.235   6.845  0.00  0.00     0.142 A 
HETATM    3  C   UNK N   1      29.031  17.965   8.964  0.00  0.00     0.188 A 
HETATM    4  C   UNK N   1      27.992  19.043   7.432  0.00  0.00     0.122 A 
HETATM    5  N   UNK N   1      29.053  18.185   5.499  0.00  0.00    -0.336 N 
ATOM      6  HN  UNK N   1      29.743  17.564   5.077  1.00  0.00     0.168 HD
HETATM    7  N   UNK N   1      28.052  18.896   8.770  0.00  0.00    -0.346 N 
ATOM      8  HN  UNK N   1      27.493  19.372   9.477  1.00  0.00     0.167 HD
HETATM    9  C   UNK N   1      27.179  19.859   6.659  0.00  0.00     0.131 A 
HETATM   10  C   UNK N   1      28.266  18.988   4.722  0.00  0.00     0.183 A 
HETATM   11  N   UNK N   1      27.335  19.816   5.301  0.00  0.00    -0.337 N 
ATOM     12  HN  UNK N   1      26.750  20.407   4.709  1.00  0.00     0.168 HD
ENDROOT
BRANCH   1  13
HETATM   13  C   UNK N   1      30.611  16.543   7.610  0.00  0.00     0.262 C 
HETATM   14  O   UNK N   1      31.274  16.732   6.379  0.00  0.00    -0.355 OA
HETATM   15  C   UNK N   1      32.452  17.402   6.732  0.00  0.00     0.165 C 
HETATM   16  C   UNK N   1      32.959  16.736   7.987  0.00  0.00     0.180 C 
HETATM   17  C   UNK N   1      31.646  16.686   8.723  0.00  0.00     0.198 C 
BRANCH  15  18
HETATM   18  C   UNK N   1      33.455  17.431   5.595  0.00  0.00     0.108 C 
BRANCH  18  19
HETATM   19  S   UNK N   1      32.557  17.366   4.020  0.00  0.00    -0.171 SA
HETATM   20  C   UNK N   1      33.288  15.764   3.582  0.00  0.00     0.089 C 
ENDBRANCH  18  19
ENDBRANCH  15  18
BRANCH  16  21
HETATM   21  O   UNK N   1      33.395  15.441   7.679  0.00  0.00    -0.390 OA
HETATM   22  H   UNK N   1      34.224  15.121   7.288  0.00  0.00     0.210 HD
ENDBRANCH  16  21
BRANCH  17  23
HETATM   23  O   UNK N   1      31.587  15.625   9.631  0.00  0.00    -0.388 OA
HETATM   24  H   UNK N   1      31.373  15.794  10.562  0.00  0.00     0.210 HD
ENDBRANCH  17  23
ENDBRANCH   1  13
BRANCH   9  25
HETATM   25  N   UNK N   1      26.219  20.707   7.244  0.00  0.00    -0.383 N 
HETATM   26  H   UNK N   1      26.486  21.431   7.856  0.00  0.00     0.157 HD
HETATM   27  H   UNK N   1      25.266  20.574   7.038  0.00  0.00     0.157 HD
ENDBRANCH   9  25
TORSDOF 6
ENDMDL
MODEL 4
REMARK VINA RESULT:      -5.5      3.473      4.764
REMARK  6 active torsions:
REMARK  status: ('A' for Active; 'I' for Inactive)
REMARK    1  A    between atoms: C_3  and  N_1 
REMARK    2  A    between atoms: C_9  and  O_16 
REMARK    3  A    between atoms: C_12  and  N_19 
REMARK    4  A    between atoms: C_14  and  C_20 
REMARK    5  A    between atoms: C_15  and  O_21 
REMARK    6  A    between atoms: C_20  and  S_22 
ROOT
HETATM    1  N   UNK N   1      28.307  17.933   6.282  0.00  0.00    -0.297 N 
HETATM    2  C   UNK N   1      27.600  19.058   6.101  0.00  0.00     0.142 A 
HETATM    3  C   UNK N   1      28.612  17.505   5.029  0.00  0.00     0.188 A 
HETATM    4  C   UNK N   1      27.483  19.310   4.786  0.00  0.00     0.122 A 
HETATM    5  N   UNK N   1      27.052  19.862   7.046  0.00  0.00    -0.336 N 
ATOM      6  HN  UNK N   1      27.153  19.649   8.039  1.00  0.00     0.168 HD
HETATM    7  N   UNK N   1      28.112  18.350   4.080  0.00  0.00    -0.346 N 
ATOM      8  HN  UNK N   1      28.196  18.272   3.067  1.00  0.00     0.167 HD
HETATM    9  C   UNK N   1      26.791  20.431   4.350  0.00  0.00     0.131 A 
HETATM   10  C   UNK N   1      26.360  20.967   6.634  0.00  0.00     0.183 A 
HETATM   11  N   UNK N   1      26.235  21.247   5.295  0.00  0.00    -0.337 N 
ATOM     12  HN  UNK N   1      25.720  22.078   5.001  1.00  0.00     0.168 HD
ENDROOT
BRANCH   1  13
HETATM   13  C   UNK N   1      28.692  17.283   7.538  0.00  0.00     0.262 C 
HETATM   14  O   UNK N   1      30.027  16.830   7.472  0.00  0.00    -0.355 OA
HETATM   15  C   UNK N   1      30.748  17.810   8.165  0.00  0.00     0.165 C 
HETATM   16  C   UNK N   1      29.928  18.161   9.381  0.00  0.00     0.180 C 
HETATM   17  C   UNK N   1      28.597  18.284   8.686  0.00  0.00     0.198 C 
BRANCH  15  18
HETATM   18  C   UNK N   1      32.163  17.363   8.478  0.00  0.00     0.108 C 
BRANCH  18  19
HETATM   19  S   UNK N   1      32.455  15.751   7.697  0.00  0.00    -0.171 SA
HETATM   20  C   UNK N   1      32.551  14.907   9.300  0.00  0.00     0.089 C 
ENDBRANCH  18  19
ENDBRANCH  15  18
BRANCH  16  21
HETATM   21  O   UNK N   1      29.919  17.072  10.263  0.00  0.00    -0.390 OA
HETATM   22  H   UNK N   1      29.819  16.121  10.102  0.00  0.00     0.210 HD
ENDBRANCH  16  21
BRANCH  17  23
HETATM   23  O   UNK N   1      27.525  18.002   9.538  0.00  0.00    -0.388 OA
HETATM   24  H   UNK N   1      27.585  17.267  10.168  0.00  0.00     0.210 HD
ENDBRANCH  17  23
ENDBRANCH   1  13
BRANCH   9  25
HETATM   25  N   UNK N   1      26.663  20.728   2.980  0.00  0.00    -0.383 N 
HETATM   26  H   UNK N   1      27.161  21.474   2.573  0.00  0.00     0.157 HD
HETATM   27  H   UNK N   1      26.066  20.181   2.419  0.00  0.00     0.157 HD
ENDBRANCH   9  25
TORSDOF 6
ENDMDL
MODEL 5
REMARK VINA RESULT:      -5.4      3.903      6.630
REMARK  6 active torsions:
REMARK  status: ('A' for Active; 'I' for Inactive)
REMARK    1  A    between atoms: C_3  and  N_1 
REMARK    2  A    between atoms: C_9  and  O_16 
REMARK    3  A    between atoms: C_12  and  N_19 
REMARK    4  A    between atoms: C_14  and  C_20 
REMARK    5  A    between atoms: C_15  and  O_21 
REMARK    6  A    between atoms: C_20  and  S_22 
ROOT
HETATM    1  N   UNK N   1      34.432  15.735   9.427  0.00  0.00    -0.297 N 
HETATM    2  C   UNK N   1      34.693  14.738  10.285  0.00  0.00     0.142 A 
HETATM    3  C   UNK N   1      35.016  16.832   9.977  0.00  0.00     0.188 A 
HETATM    4  C   UNK N   1      35.416  15.208  11.316  0.00  0.00     0.122 A 
HETATM    5  N   UNK N   1      34.316  13.437  10.195  0.00  0.00    -0.336 N 
ATOM      6  HN  UNK N   1      33.767  13.105   9.403  1.00  0.00     0.168 HD
HETATM    7  N   UNK N   1      35.639  16.527  11.153  0.00  0.00    -0.346 N 
ATOM      8  HN  UNK N   1      36.156  17.154  11.767  1.00  0.00     0.167 HD
HETATM    9  C   UNK N   1      35.813  14.355  12.335  0.00  0.00     0.131 A 
HETATM   10  C   UNK N   1      34.692  12.584  11.195  0.00  0.00     0.183 A 
HETATM   11  N   UNK N   1      35.436  13.042  12.255  0.00  0.00    -0.337 N 
ATOM     12  HN  UNK N   1      35.714  12.394  12.992  1.00  0.00     0.168 HD
ENDROOT
BRANCH   1  13
HETATM   13  C   UNK N   1      33.690  15.688   8.164  0.00  0.00     0.262 C 
HETATM   14  O   UNK N   1      32.300  15.735   8.405  0.00  0.00    -0.355 OA
HETATM   15  C   UNK N   1      31.961  17.069   8.149  0.00  0.00     0.165 C 
HETATM   16  C   UNK N   1      32.720  17.471   6.909  0.00  0.00     0.180 C 
HETATM   17  C   UNK N   1      34.055  16.896   7.306  0.00  0.00     0.198 C 
BRANCH  15  18
HETATM   18  C   UNK N   1      30.461  17.268   8.051  0.00  0.00     0.108 C 
BRANCH  18  19
HETATM   19  S   UNK N   1      29.950  18.491   9.291  0.00  0.00    -0.171 SA
HETATM   20  C   UNK N   1      28.220  17.947   9.224  0.00  0.00     0.089 C 
ENDBRANCH  18  19
ENDBRANCH  15  18
BRANCH  16  21
HETATM   21  O   UNK N   1      32.201  16.780   5.806  0.00  0.00    -0.390 OA
HETATM   22  H   UNK N   1      31.713  17.092   5.028  0.00  0.00     0.210 HD
ENDBRANCH  16  21
BRANCH  17  23
HETATM   23  O   UNK N   1      34.829  16.536   6.199  0.00  0.00    -0.388 OA
HETATM   24  H   UNK N   1      34.399  16.259   5.375  0.00  0.00     0.210 HD
ENDBRANCH  17  23
ENDBRANCH   1  13
BRANCH   9  25
HETATM   25  N   UNK N   1      36.581  14.815  13.422  0.00  0.00    -0.383 N 
HETATM   26  H   UNK N   1      36.180  15.374  14.127  0.00  0.00     0.157 HD
HETATM   27  H   UNK N   1      37.534  14.573  13.479  0.00  0.00     0.157 HD
ENDBRANCH   9  25
TORSDOF 6
ENDMDL
MODEL 6
REMARK VINA RESULT:      -5.4      8.320     10.389
REMARK  6 active torsions:
REMARK  status: ('A' for Active; 'I' for Inactive)
REMARK    1  A    between atoms: C_3  and  N_1 
REMARK    2  A    between atoms: C_9  and  O_16 
REMARK    3  A    between atoms: C_12  and  N_19 
REMARK    4  A    between atoms: C_14  and  C_20 
REMARK    5  A    between atoms: C_15  and  O_21 
REMARK    6  A    between atoms: C_20  and  S_22 
ROOT
HETATM    1  N   UNK N   1      23.335  19.341   3.789  0.00  0.00    -0.297 N 
HETATM    2  C   UNK N   1      22.083  19.193   3.329  0.00  0.00     0.142 A 
HETATM    3  C   UNK N   1      23.833  20.408   3.113  0.00  0.00     0.188 A 
HETATM    4  C   UNK N   1      21.826  20.141   2.411  0.00  0.00     0.122 A 
HETATM    5  N   UNK N   1      21.167  18.258   3.682  0.00  0.00    -0.336 N 
ATOM      6  HN  UNK N   1      21.385  17.548   4.381  1.00  0.00     0.168 HD
HETATM    7  N   UNK N   1      22.910  20.926   2.251  0.00  0.00    -0.346 N 
ATOM      8  HN  UNK N   1      23.017  21.726   1.628  1.00  0.00     0.167 HD
HETATM    9  C   UNK N   1      20.587  20.194   1.792  0.00  0.00     0.131 A 
HETATM   10  C   UNK N   1      19.942  18.290   3.076  0.00  0.00     0.183 A 
HETATM   11  N   UNK N   1      19.656  19.254   2.140  0.00  0.00    -0.337 N 
ATOM     12  HN  UNK N   1      18.736  19.271   1.699  1.00  0.00     0.168 HD
ENDROOT
BRANCH   1  13
HETATM   13  C   UNK N   1      24.038  18.548   4.802  0.00  0.00     0.262 C 
HETATM   14  O   UNK N   1      24.039  17.182   4.448  0.00  0.00    -0.355 OA
HETATM   15  C   UNK N   1      25.313  16.976   3.907  0.00  0.00     0.165 C 
HETATM   16  C   UNK N   1      26.277  17.724   4.795  0.00  0.00     0.180 C 
HETATM   17  C   UNK N   1      25.491  19.005   4.897  0.00  0.00     0.198 C 
BRANCH  15  18
HETATM   18  C   UNK N   1      25.634  15.503   3.744  0.00  0.00     0.108 C 
BRANCH  18  19
HETATM   19  S   UNK N   1      26.307  15.231   2.080  0.00  0.00    -0.171 SA
HETATM   20  C   UNK N   1      24.730  14.574   1.469  0.00  0.00     0.089 C 
ENDBRANCH  18  19
ENDBRANCH  15  18
BRANCH  16  21
HETATM   21  O   UNK N   1      26.341  17.091   6.043  0.00  0.00    -0.390 OA
HETATM   22  H   UNK N   1      25.674  16.597   6.545  0.00  0.00     0.210 HD
ENDBRANCH  16  21
BRANCH  17  23
HETATM   23  O   UNK N   1      25.747  19.691   6.087  0.00  0.00    -0.388 OA
HETATM   24  H   UNK N   1      26.581  19.549   6.561  0.00  0.00     0.210 HD
ENDBRANCH  17  23
ENDBRANCH   1  13
BRANCH   9  25
HETATM   25  N   UNK N   1      20.284  21.182   0.836  0.00  0.00    -0.383 N 
HETATM   26  H   UNK N   1      20.073  22.105   1.107  0.00  0.00     0.157 HD
HETATM   27  H   UNK N   1      20.284  20.947  -0.121  0.00  0.00     0.157 HD
ENDBRANCH   9  25
TORSDOF 6
ENDMDL
MODEL 7
REMARK VINA RESULT:      -5.4      4.165      7.133
REMARK  6 active torsions:
REMARK  status: ('A' for Active; 'I' for Inactive)
REMARK    1  A    between atoms: C_3  and  N_1 
REMARK    2  A    between atoms: C_9  and  O_16 
REMARK    3  A    between atoms: C_12  and  N_19 
REMARK    4  A    between atoms: C_14  and  C_20 
REMARK    5  A    between atoms: C_15  and  O_21 
REMARK    6  A    between atoms: C_20  and  S_22 
ROOT
HETATM    1  N   UNK N   1      35.049  14.482   9.989  0.00  0.00    -0.297 N 
HETATM    2  C   UNK N   1      35.382  14.324  11.279  0.00  0.00     0.142 A 
HETATM    3  C   UNK N   1      34.364  13.354   9.663  0.00  0.00     0.188 A 
HETATM    4  C   UNK N   1      34.911  13.146  11.725  0.00  0.00     0.122 A 
HETATM    5  N   UNK N   1      36.085  15.171  12.071  0.00  0.00    -0.336 N 
ATOM      6  HN  UNK N   1      36.433  16.059  11.709  1.00  0.00     0.168 HD
HETATM    7  N   UNK N   1      34.261  12.509  10.730  0.00  0.00    -0.346 N 
ATOM      8  HN  UNK N   1      33.798  11.602  10.767  1.00  0.00     0.167 HD
HETATM    9  C   UNK N   1      35.129  12.761  13.039  0.00  0.00     0.131 A 
HETATM   10  C   UNK N   1      36.316  14.804  13.367  0.00  0.00     0.183 A 
HETATM   11  N   UNK N   1      35.838  13.608  13.845  0.00  0.00    -0.337 N 
ATOM     12  HN  UNK N   1      36.013  13.348  14.816  1.00  0.00     0.168 HD
ENDROOT
BRANCH   1  13
HETATM   13  C   UNK N   1      35.337  15.610   9.099  0.00  0.00     0.262 C 
HETATM   14  O   UNK N   1      34.839  15.357   7.803  0.00  0.00    -0.355 OA
HETATM   15  C   UNK N   1      33.641  16.080   7.756  0.00  0.00     0.165 C 
HETATM   16  C   UNK N   1      33.918  17.405   8.421  0.00  0.00     0.180 C 
HETATM   17  C   UNK N   1      34.651  16.868   9.623  0.00  0.00     0.198 C 
BRANCH  15  18
HETATM   18  C   UNK N   1      33.097  16.194   6.346  0.00  0.00     0.108 C 
BRANCH  18  19
HETATM   19  S   UNK N   1      31.373  16.754   6.427  0.00  0.00    -0.171 SA
HETATM   20  C   UNK N   1      31.427  17.410   4.736  0.00  0.00     0.089 C 
ENDBRANCH  18  19
ENDBRANCH  15  18
BRANCH  16  21
HETATM   21  O   UNK N   1      34.787  18.153   7.616  0.00  0.00    -0.390 OA
HETATM   22  H   UNK N   1      35.107  18.006   6.711  0.00  0.00     0.210 HD
ENDBRANCH  16  21
BRANCH  17  23
HETATM   23  O   UNK N   1      35.568  17.787  10.140  0.00  0.00    -0.388 OA
HETATM   24  H   UNK N   1      36.403  17.955   9.676  0.00  0.00     0.210 HD
ENDBRANCH  17  23
ENDBRANCH   1  13
BRANCH   9  25
HETATM   25  N   UNK N   1      34.638  11.540  13.538  0.00  0.00    -0.383 N 
HETATM   26  H   UNK N   1      33.813  11.138  13.179  0.00  0.00     0.157 HD
HETATM   27  H   UNK N   1      35.127  11.078  14.258  0.00  0.00     0.157 HD
ENDBRANCH   9  25
TORSDOF 6
ENDMDL
MODEL 8
REMARK VINA RESULT:      -5.4      2.719      4.269
REMARK  6 active torsions:
REMARK  status: ('A' for Active; 'I' for Inactive)
REMARK    1  A    between atoms: C_3  and  N_1 
REMARK    2  A    between atoms: C_9  and  O_16 
REMARK    3  A    between atoms: C_12  and  N_19 
REMARK    4  A    between atoms: C_14  and  C_20 
REMARK    5  A    between atoms: C_15  and  O_21 
REMARK    6  A    between atoms: C_20  and  S_22 
ROOT
HETATM    1  N   UNK N   1      33.779  14.846   9.903  0.00  0.00    -0.297 N 
HETATM    2  C   UNK N   1      33.200  15.746   9.095  0.00  0.00     0.142 A 
HETATM    3  C   UNK N   1      33.455  13.638   9.372  0.00  0.00     0.188 A 
HETATM    4  C   UNK N   1      32.552  15.110   8.102  0.00  0.00     0.122 A 
HETATM    5  N   UNK N   1      33.216  17.098   9.201  0.00  0.00    -0.336 N 
ATOM      6  HN  UNK N   1      33.713  17.558   9.963  1.00  0.00     0.168 HD
HETATM    7  N   UNK N   1      32.695  13.777   8.247  0.00  0.00    -0.346 N 
ATOM      8  HN  UNK N   1      32.320  13.040   7.650  1.00  0.00     0.167 HD
HETATM    9  C   UNK N   1      31.876  15.836   7.134  0.00  0.00     0.131 A 
HETATM   10  C   UNK N   1      32.547  17.829   8.259  0.00  0.00     0.183 A 
HETATM   11  N   UNK N   1      31.885  17.200   7.233  0.00  0.00    -0.337 N 
ATOM     12  HN  UNK N   1      31.394  17.758   6.534  1.00  0.00     0.168 HD
ENDROOT
BRANCH   1  13
HETATM   13  C   UNK N   1      34.593  15.078  11.099  0.00  0.00     0.262 C 
HETATM   14  O   UNK N   1      34.257  14.156  12.113  0.00  0.00    -0.355 OA
HETATM   15  C   UNK N   1      35.269  13.192  12.040  0.00  0.00     0.165 C 
HETATM   16  C   UNK N   1      36.560  13.945  11.837  0.00  0.00     0.180 C 
HETATM   17  C   UNK N   1      36.069  14.883  10.765  0.00  0.00     0.198 C 
BRANCH  15  18
HETATM   18  C   UNK N   1      35.269  12.271  13.244  0.00  0.00     0.108 C 
BRANCH  18  19
HETATM   19  S   UNK N   1      36.573  11.026  13.029  0.00  0.00    -0.171 SA
HETATM   20  C   UNK N   1      37.370  11.482  14.594  0.00  0.00     0.089 C 
ENDBRANCH  18  19
ENDBRANCH  15  18
BRANCH  16  21
HETATM   21  O   UNK N   1      36.866  14.658  13.004  0.00  0.00    -0.390 OA
HETATM   22  H   UNK N   1      36.400  15.380  13.453  0.00  0.00     0.210 HD
ENDBRANCH  16  21
BRANCH  17  23
HETATM   23  O   UNK N   1      36.768  16.093  10.757  0.00  0.00    -0.388 OA
HETATM   24  H   UNK N   1      37.629  16.155  10.315  0.00  0.00     0.210 HD
ENDBRANCH  17  23
ENDBRANCH   1  13
BRANCH   9  25
HETATM   25  N   UNK N   1      31.200  15.199   6.076  0.00  0.00    -0.383 N 
HETATM   26  H   UNK N   1      31.476  14.308   5.759  0.00  0.00     0.157 HD
HETATM   27  H   UNK N   1      30.437  15.650   5.646  0.00  0.00     0.157 HD
ENDBRANCH   9  25
TORSDOF 6
ENDMDL
MODEL 9
REMARK VINA RESULT:      -5.3      3.942      5.891
REMARK  6 active torsions:
REMARK  status: ('A' for Active; 'I' for Inactive)
REMARK    1  A    between atoms: C_3  and  N_1 
REMARK    2  A    between atoms: C_9  and  O_16 
REMARK    3  A    between atoms: C_12  and  N_19 
REMARK    4  A    between atoms: C_14  and  C_20 
REMARK    5  A    between atoms: C_15  and  O_21 
REMARK    6  A    between atoms: C_20  and  S_22 
ROOT
HETATM    1  N   UNK N   1      34.946  14.911  10.991  0.00  0.00    -0.297 N 
HETATM    2  C   UNK N   1      34.587  15.319   9.764  0.00  0.00     0.142 A 
HETATM    3  C   UNK N   1      35.358  16.037  11.628  0.00  0.00     0.188 A 
HETATM    4  C   UNK N   1      34.768  16.647   9.661  0.00  0.00     0.122 A 
HETATM    5  N   UNK N   1      34.115  14.568   8.738  0.00  0.00    -0.336 N 
ATOM      6  HN  UNK N   1      33.987  13.561   8.840  1.00  0.00     0.168 HD
HETATM    7  N   UNK N   1      35.253  17.133  10.821  0.00  0.00    -0.346 N 
ATOM      8  HN  UNK N   1      35.487  18.099  11.045  1.00  0.00     0.167 HD
HETATM    9  C   UNK N   1      34.461  17.302   8.477  0.00  0.00     0.131 A 
HETATM   10  C   UNK N   1      33.814  15.196   7.561  0.00  0.00     0.183 A 
HETATM   11  N   UNK N   1      33.985  16.554   7.436  0.00  0.00    -0.337 N 
ATOM     12  HN  UNK N   1      33.752  17.011   6.554  1.00  0.00     0.168 HD
ENDROOT
BRANCH   1  13
HETATM   13  C   UNK N   1      34.908  13.558  11.554  0.00  0.00     0.262 C 
HETATM   14  O   UNK N   1      35.567  12.648  10.701  0.00  0.00    -0.355 OA
HETATM   15  C   UNK N   1      36.824  12.482  11.295  0.00  0.00     0.165 C 
HETATM   16  C   UNK N   1      36.582  12.380  12.780  0.00  0.00     0.180 C 
HETATM   17  C   UNK N   1      35.628  13.540  12.900  0.00  0.00     0.198 C 
BRANCH  15  18
HETATM   18  C   UNK N   1      37.583  11.308  10.707  0.00  0.00     0.108 C 
BRANCH  18  19
HETATM   19  S   UNK N   1      38.553  11.889   9.287  0.00  0.00    -0.171 SA
HETATM   20  C   UNK N   1      38.696  13.562   9.975  0.00  0.00     0.089 C 
ENDBRANCH  18  19
ENDBRANCH  15  18
BRANCH  16  21
HETATM   21  O   UNK N   1      35.922  11.176  13.059  0.00  0.00    -0.390 OA
HETATM   22  H   UNK N   1      35.639  10.452  12.478  0.00  0.00     0.210 HD
ENDBRANCH  16  21
BRANCH  17  23
HETATM   23  O   UNK N   1      34.738  13.387  13.966  0.00  0.00    -0.388 OA
HETATM   24  H   UNK N   1      34.402  12.507  14.198  0.00  0.00     0.210 HD
ENDBRANCH  17  23
ENDBRANCH   1  13
BRANCH   9  25
HETATM   25  N   UNK N   1      34.628  18.694   8.343  0.00  0.00    -0.383 N 
HETATM   26  H   UNK N   1      34.166  19.322   8.945  0.00  0.00     0.157 HD
HETATM   27  H   UNK N   1      35.216  19.045   7.635  0.00  0.00     0.157 HD
ENDBRANCH   9  25
TORSDOF 6
ENDMDL
