REMARK  11 active torsions:
REMARK  status: ('A' for Active; 'I' for Inactive)
REMARK    1  A    between atoms: C_15  and  C_11 
REMARK    2  A    between atoms: C_21  and  C_11 
REMARK    3  A    between atoms: C_23  and  C_12 
REMARK    4  A    between atoms: C_15  and  C_13 
REMARK    5  A    between atoms: C_16  and  C_14 
REMARK    6  A    between atoms: C_15  and  C_25 
REMARK    7  A    between atoms: C_24  and  C_17 
REMARK    8  A    between atoms: O_38  and  C_20 
REMARK    9  A    between atoms: O_34  and  C_22 
REMARK   10  A    between atoms: N_28  and  C_23 
REMARK   11  A    between atoms: O_37  and  C_25 
ROOT
HETATM    1  C   UNK N   1      -2.182   0.410   0.037  0.00  0.00     0.023 A 
HETATM    2  C   UNK N   1      -0.023  -0.605   0.162  0.00  0.00     0.026 A 
HETATM    3  C   UNK N   1      -1.394  -0.753   0.121  0.00  0.00    -0.042 A 
HETATM    4  C   UNK N   1      -1.604   1.702  -0.008  0.00  0.00     0.011 A 
HETATM    5  C   UNK N   1       0.603   0.628   0.084  0.00  0.00     0.043 A 
HETATM    6  C   UNK N   1      -0.176   1.798   0.004  0.00  0.00     0.090 A 
ENDROOT
BRANCH   5   7
HETATM    7  C   UNK N   1       2.078   0.611   0.076  0.00  0.00     0.119 A 
HETATM    8  N   UNK N   1       2.888   1.698  -0.017  0.00  0.00    -0.340 N 
HETATM    9  C   UNK N   1       4.127   1.170  -0.026  0.00  0.00     0.060 A 
ATOM     10  HN  UNK N   1       2.621   2.682  -0.067  1.00  0.00     0.167 HD
HETATM   11  C   UNK N   1       5.350   1.824  -0.114  0.00  0.00     0.033 A 
HETATM   12  C   UNK N   1       4.044  -0.183   0.056  0.00  0.00     0.061 A 
HETATM   13  C   UNK N   1       6.515   1.024  -0.118  0.00  0.00     0.017 A 
HETATM   14  C   UNK N   1       6.424  -0.394  -0.036  0.00  0.00     0.009 A 
HETATM   15  C   UNK N   1       5.160  -1.004   0.054  0.00  0.00     0.047 A 
HETATM   16  N   UNK N   1       2.770  -0.557   0.122  0.00  0.00    -0.340 N 
HETATM   17  H   UNK N   1       2.411  -1.471   0.190  0.00  0.00     0.167 HD
BRANCH  14  18
HETATM   18  C   UNK N   1       7.635  -1.240  -0.051  0.00  0.00     0.102 C 
HETATM   19  N   UNK N   1       8.798  -0.709  -0.138  0.00  0.00    -0.385 N 
HETATM   20  H   UNK N   1       9.599  -1.278  -0.204  0.00  0.00     0.157 HD
ATOM     21  HN  UNK N   1       8.895   0.307  -0.138  1.00  0.00     0.157 HD
BRANCH  18  22
HETATM   22  N   UNK N   1       7.518  -2.649   0.017  0.00  0.00    -0.385 N 
HETATM   23  H   UNK N   1       6.629  -3.068   0.064  0.00  0.00     0.157 HD
HETATM   24  H   UNK N   1       8.327  -3.210   0.017  0.00  0.00     0.157 HD
ENDBRANCH  18  22
ENDBRANCH  14  18
ENDBRANCH   5   7
BRANCH   6  25
HETATM   25  O   UNK N   1       0.443   2.990  -0.060  0.00  0.00    -0.359 OA
ATOM     26  HO  UNK N   1       1.391   3.054  -0.052  1.00  0.00     0.217 HD
ENDBRANCH   6  25
BRANCH   3  27
HETATM   27  C   UNK N   1      -1.949  -2.177   0.222  0.00  0.00     0.126 C 
BRANCH  27  28
HETATM   28  C   UNK N   1      -1.297  -3.122  -0.812  0.00  0.00     0.133 C 
BRANCH  28  29
HETATM   29  C   UNK N   1       0.016  -3.723  -0.375  0.00  0.00     0.173 C 
HETATM   30  O   UNK N   1       0.053  -4.887  -0.011  0.00  0.00    -0.648 OA
HETATM   31  O   UNK N   1       1.160  -3.017  -0.444  0.00  0.00    -0.648 OA
ENDBRANCH  28  29
ENDBRANCH  27  28
BRANCH  27  32
HETATM   32  C   UNK N   1      -3.448  -2.344   0.075  0.00  0.00     0.148 C 
HETATM   33  O   UNK N   1      -3.941  -3.451   0.229  0.00  0.00    -0.649 OA
BRANCH  32  34
HETATM   34  O   UNK N   1      -4.252  -1.313  -0.243  0.00  0.00    -0.776 OA
HETATM   35  H   UNK N   1      -3.909  -0.469  -0.464  0.00  0.00     0.167 HD
ENDBRANCH  32  34
ENDBRANCH  27  32
ENDBRANCH   3  27
BRANCH   4  36
HETATM   36  C   UNK N   1      -2.492   2.932  -0.040  0.00  0.00     0.010 A 
HETATM   37  C   UNK N   1      -1.900   4.209   0.005  0.00  0.00     0.015 A 
HETATM   38  C   UNK N   1      -2.663   5.376   0.007  0.00  0.00     0.001 A 
HETATM   39  C   UNK N   1      -4.049   5.298  -0.036  0.00  0.00     0.003 A 
HETATM   40  C   UNK N   1      -4.671   4.053  -0.085  0.00  0.00     0.037 A 
HETATM   41  C   UNK N   1      -3.916   2.862  -0.086  0.00  0.00     0.079 A 
BRANCH  41  42
HETATM   42  O   UNK N   1      -4.549   1.664  -0.132  0.00  0.00    -0.355 OA
HETATM   43  C   UNK N   1      -5.920   1.530  -0.183  0.00  0.00     0.210 C 
ENDBRANCH  41  42
ENDBRANCH   4  36
TORSDOF 11
