MODEL 1
REMARK VINA RESULT:      -4.3      0.000      0.000
REMARK  6 active torsions:
REMARK  status: ('A' for Active; 'I' for Inactive)
REMARK    1  A    between atoms: C_2  and  C_4 
REMARK    2  A    between atoms: C_4  and  C_5 
REMARK    3  A    between atoms: C_5  and  N_6 
REMARK    4  A    between atoms: C_5  and  P_7 
REMARK    5  A    between atoms: P_7  and  O_8 
REMARK    6  A    between atoms: P_7  and  O_9 
ROOT
HETATM    1  C   UNK N   1      34.562  16.475   9.233  0.00  0.00     0.187 C 
ENDROOT
BRANCH   1   2
HETATM    2  C   UNK N   1      33.282  15.658   9.291  0.00  0.00     0.040 C 
BRANCH   2   3
HETATM    3  C   UNK N   1      33.252  14.655   8.148  0.00  0.00    -0.020 C 
HETATM    4  C   UNK N   1      32.034  14.895   7.284  0.00  0.00     0.009 C 
HETATM    5  C   UNK N   1      33.210  13.243   8.700  0.00  0.00     0.009 C 
ENDBRANCH   2   3
ENDBRANCH   1   2
BRANCH   1   6
HETATM    6  N   UNK N   1      34.912  16.929  10.568  0.00  0.00    -0.417 N 
HETATM    7  H   UNK N   1      35.694  17.524  10.840  0.00  0.00     0.150 HD
HETATM    8  H   UNK N   1      34.303  16.614  11.323  0.00  0.00     0.150 HD
ENDBRANCH   1   6
BRANCH   1   9
HETATM    9  P   UNK N   1      34.324  17.957   8.128  0.00  0.00     0.258 P 
HETATM   10  O   UNK N   1      32.870  18.492   8.231  0.00  0.00    -0.652 OA
BRANCH   9  11
HETATM   11  O   UNK N   1      35.308  19.331   8.526  0.00  0.00    -0.328 OA
HETATM   12  H   UNK N   1      35.451  20.259   8.769  0.00  0.00     0.220 HD
ENDBRANCH   9  11
BRANCH   9  13
HETATM   13  O   UNK N   1      34.539  17.651   6.435  0.00  0.00    -0.328 OA
HETATM   14  H   UNK N   1      35.331  17.451   5.911  0.00  0.00     0.220 HD
ENDBRANCH   9  13
ENDBRANCH   1   9
TORSDOF 6
ENDMDL
MODEL 2
REMARK VINA RESULT:      -4.1      1.004      1.558
REMARK  6 active torsions:
REMARK  status: ('A' for Active; 'I' for Inactive)
REMARK    1  A    between atoms: C_2  and  C_4 
REMARK    2  A    between atoms: C_4  and  C_5 
REMARK    3  A    between atoms: C_5  and  N_6 
REMARK    4  A    between atoms: C_5  and  P_7 
REMARK    5  A    between atoms: P_7  and  O_8 
REMARK    6  A    between atoms: P_7  and  O_9 
ROOT
HETATM    1  C   UNK N   1      34.748  16.481   9.239  0.00  0.00     0.187 C 
ENDROOT
BRANCH   1   2
HETATM    2  C   UNK N   1      33.617  15.472   9.146  0.00  0.00     0.040 C 
BRANCH   2   3
HETATM    3  C   UNK N   1      34.167  14.103   8.774  0.00  0.00    -0.020 C 
HETATM    4  C   UNK N   1      34.466  13.310  10.026  0.00  0.00     0.009 C 
HETATM    5  C   UNK N   1      35.438  14.261   7.960  0.00  0.00     0.009 C 
ENDBRANCH   2   3
ENDBRANCH   1   2
BRANCH   1   6
HETATM    6  N   UNK N   1      34.896  16.923  10.614  0.00  0.00    -0.417 N 
HETATM    7  H   UNK N   1      34.707  17.849  10.996  0.00  0.00     0.150 HD
HETATM    8  H   UNK N   1      35.229  16.223  11.277  0.00  0.00     0.150 HD
ENDBRANCH   1   6
BRANCH   1   9
HETATM    9  P   UNK N   1      34.378  17.956   8.161  0.00  0.00     0.258 P 
HETATM   10  O   UNK N   1      32.906  18.415   8.345  0.00  0.00    -0.652 OA
BRANCH   9  11
HETATM   11  O   UNK N   1      35.310  19.376   8.520  0.00  0.00    -0.328 OA
HETATM   12  H   UNK N   1      35.427  20.328   8.660  0.00  0.00     0.220 HD
ENDBRANCH   9  11
BRANCH   9  13
HETATM   13  O   UNK N   1      34.520  17.673   6.456  0.00  0.00    -0.328 OA
HETATM   14  H   UNK N   1      34.418  18.264   5.694  0.00  0.00     0.220 HD
ENDBRANCH   9  13
ENDBRANCH   1   9
TORSDOF 6
ENDMDL
MODEL 3
REMARK VINA RESULT:      -4.1      7.421      7.977
REMARK  6 active torsions:
REMARK  status: ('A' for Active; 'I' for Inactive)
REMARK    1  A    between atoms: C_2  and  C_4 
REMARK    2  A    between atoms: C_4  and  C_5 
REMARK    3  A    between atoms: C_5  and  N_6 
REMARK    4  A    between atoms: C_5  and  P_7 
REMARK    5  A    between atoms: P_7  and  O_8 
REMARK    6  A    between atoms: P_7  and  O_9 
ROOT
HETATM    1  C   UNK N   1      36.525  12.647  14.542  0.00  0.00     0.187 C 
ENDROOT
BRANCH   1   2
HETATM    2  C   UNK N   1      36.400  13.538  15.767  0.00  0.00     0.040 C 
BRANCH   2   3
HETATM    3  C   UNK N   1      35.252  13.063  16.643  0.00  0.00    -0.020 C 
HETATM    4  C   UNK N   1      35.217  13.863  17.926  0.00  0.00     0.009 C 
HETATM    5  C   UNK N   1      35.423  11.592  16.969  0.00  0.00     0.009 C 
ENDBRANCH   2   3
ENDBRANCH   1   2
BRANCH   1   6
HETATM    6  N   UNK N   1      37.892  12.173  14.420  0.00  0.00    -0.417 N 
HETATM    7  H   UNK N   1      38.289  11.598  13.678  0.00  0.00     0.150 HD
HETATM    8  H   UNK N   1      38.530  12.447  15.167  0.00  0.00     0.150 HD
ENDBRANCH   1   6
BRANCH   1   9
HETATM    9  P   UNK N   1      36.072  13.605  13.008  0.00  0.00     0.258 P 
HETATM   10  O   UNK N   1      36.867  13.082  11.780  0.00  0.00    -0.652 OA
BRANCH   9  11
HETATM   11  O   UNK N   1      34.411  13.468  12.524  0.00  0.00    -0.328 OA
HETATM   12  H   UNK N   1      33.470  13.290  12.681  0.00  0.00     0.220 HD
ENDBRANCH   9  11
BRANCH   9  13
HETATM   13  O   UNK N   1      36.448  15.297  13.062  0.00  0.00    -0.328 OA
HETATM   14  H   UNK N   1      36.101  16.017  13.611  0.00  0.00     0.220 HD
ENDBRANCH   9  13
ENDBRANCH   1   9
TORSDOF 6
ENDMDL
MODEL 4
REMARK VINA RESULT:      -4.0      1.801      2.575
REMARK  6 active torsions:
REMARK  status: ('A' for Active; 'I' for Inactive)
REMARK    1  A    between atoms: C_2  and  C_4 
REMARK    2  A    between atoms: C_4  and  C_5 
REMARK    3  A    between atoms: C_5  and  N_6 
REMARK    4  A    between atoms: C_5  and  P_7 
REMARK    5  A    between atoms: P_7  and  O_8 
REMARK    6  A    between atoms: P_7  and  O_9 
ROOT
HETATM    1  C   UNK N   1      34.225  16.483   9.271  0.00  0.00     0.187 C 
ENDROOT
BRANCH   1   2
HETATM    2  C   UNK N   1      35.148  15.405   8.730  0.00  0.00     0.040 C 
BRANCH   2   3
HETATM    3  C   UNK N   1      36.093  14.930   9.823  0.00  0.00    -0.020 C 
HETATM    4  C   UNK N   1      35.653  13.577  10.333  0.00  0.00     0.009 C 
HETATM    5  C   UNK N   1      36.101  15.925  10.968  0.00  0.00     0.009 C 
ENDBRANCH   2   3
ENDBRANCH   1   2
BRANCH   1   6
HETATM    6  N   UNK N   1      32.875  15.960   9.383  0.00  0.00    -0.417 N 
HETATM    7  H   UNK N   1      32.581  14.984   9.376  0.00  0.00     0.150 HD
HETATM    8  H   UNK N   1      32.132  16.652   9.480  0.00  0.00     0.150 HD
ENDBRANCH   1   6
BRANCH   1   9
HETATM    9  P   UNK N   1      34.217  17.951   8.122  0.00  0.00     0.258 P 
HETATM   10  O   UNK N   1      32.822  18.634   8.113  0.00  0.00    -0.652 OA
BRANCH   9  11
HETATM   11  O   UNK N   1      35.308  19.228   8.559  0.00  0.00    -0.328 OA
HETATM   12  H   UNK N   1      36.150  19.579   8.890  0.00  0.00     0.220 HD
ENDBRANCH   9  11
BRANCH   9  13
HETATM   13  O   UNK N   1      34.512  17.579   6.454  0.00  0.00    -0.328 OA
HETATM   14  H   UNK N   1      35.188  17.892   5.834  0.00  0.00     0.220 HD
ENDBRANCH   9  13
ENDBRANCH   1   9
TORSDOF 6
ENDMDL
MODEL 5
REMARK VINA RESULT:      -4.0      2.823      3.558
REMARK  6 active torsions:
REMARK  status: ('A' for Active; 'I' for Inactive)
REMARK    1  A    between atoms: C_2  and  C_4 
REMARK    2  A    between atoms: C_4  and  C_5 
REMARK    3  A    between atoms: C_5  and  N_6 
REMARK    4  A    between atoms: C_5  and  P_7 
REMARK    5  A    between atoms: P_7  and  O_8 
REMARK    6  A    between atoms: P_7  and  O_9 
ROOT
HETATM    1  C   UNK N   1      32.428  16.626   8.365  0.00  0.00     0.187 C 
ENDROOT
BRANCH   1   2
HETATM    2  C   UNK N   1      31.632  17.908   8.536  0.00  0.00     0.040 C 
BRANCH   2   3
HETATM    3  C   UNK N   1      30.168  17.583   8.792  0.00  0.00    -0.020 C 
HETATM    4  C   UNK N   1      29.394  17.635   7.494  0.00  0.00     0.009 C 
HETATM    5  C   UNK N   1      29.580  18.582   9.771  0.00  0.00     0.009 C 
ENDBRANCH   2   3
ENDBRANCH   1   2
BRANCH   1   6
HETATM    6  N   UNK N   1      32.330  15.826   9.573  0.00  0.00    -0.417 N 
HETATM    7  H   UNK N   1      31.858  16.066  10.444  0.00  0.00     0.150 HD
HETATM    8  H   UNK N   1      32.789  14.915   9.546  0.00  0.00     0.150 HD
ENDBRANCH   1   6
BRANCH   1   9
HETATM    9  P   UNK N   1      34.220  17.026   8.043  0.00  0.00     0.258 P 
HETATM   10  O   UNK N   1      35.030  15.731   7.764  0.00  0.00    -0.652 OA
BRANCH   9  11
HETATM   11  O   UNK N   1      34.509  18.013   6.644  0.00  0.00    -0.328 OA
HETATM   12  H   UNK N   1      34.671  18.158   5.699  0.00  0.00     0.220 HD
ENDBRANCH   9  11
BRANCH   9  13
HETATM   13  O   UNK N   1      35.057  17.767   9.369  0.00  0.00    -0.328 OA
HETATM   14  H   UNK N   1      35.477  17.389  10.157  0.00  0.00     0.220 HD
ENDBRANCH   9  13
ENDBRANCH   1   9
TORSDOF 6
ENDMDL
MODEL 6
REMARK VINA RESULT:      -3.9      3.088      3.480
REMARK  6 active torsions:
REMARK  status: ('A' for Active; 'I' for Inactive)
REMARK    1  A    between atoms: C_2  and  C_4 
REMARK    2  A    between atoms: C_4  and  C_5 
REMARK    3  A    between atoms: C_5  and  N_6 
REMARK    4  A    between atoms: C_5  and  P_7 
REMARK    5  A    between atoms: P_7  and  O_8 
REMARK    6  A    between atoms: P_7  and  O_9 
ROOT
HETATM    1  C   UNK N   1      33.104  16.699   8.404  0.00  0.00     0.187 C 
ENDROOT
BRANCH   1   2
HETATM    2  C   UNK N   1      33.907  17.686   7.574  0.00  0.00     0.040 C 
BRANCH   2   3
HETATM    3  C   UNK N   1      33.858  17.294   6.105  0.00  0.00    -0.020 C 
HETATM    4  C   UNK N   1      32.428  17.317   5.614  0.00  0.00     0.009 C 
HETATM    5  C   UNK N   1      34.434  15.904   5.921  0.00  0.00     0.009 C 
ENDBRANCH   2   3
ENDBRANCH   1   2
BRANCH   1   6
HETATM    6  N   UNK N   1      31.948  17.368   8.973  0.00  0.00    -0.417 N 
HETATM    7  H   UNK N   1      31.468  17.151   9.847  0.00  0.00     0.150 HD
HETATM    8  H   UNK N   1      31.569  18.146   8.435  0.00  0.00     0.150 HD
ENDBRANCH   1   6
BRANCH   1   9
HETATM    9  P   UNK N   1      34.157  16.021   9.785  0.00  0.00     0.258 P 
HETATM   10  O   UNK N   1      35.254  15.075   9.225  0.00  0.00    -0.652 OA
BRANCH   9  11
HETATM   11  O   UNK N   1      35.047  17.214  10.679  0.00  0.00    -0.328 OA
HETATM   12  H   UNK N   1      35.692  17.932  10.770  0.00  0.00     0.220 HD
ENDBRANCH   9  11
BRANCH   9  13
HETATM   13  O   UNK N   1      33.311  15.045  10.942  0.00  0.00    -0.328 OA
HETATM   14  H   UNK N   1      33.594  14.286  11.474  0.00  0.00     0.220 HD
ENDBRANCH   9  13
ENDBRANCH   1   9
TORSDOF 6
ENDMDL
MODEL 7
REMARK VINA RESULT:      -3.8     12.478     13.110
REMARK  6 active torsions:
REMARK  status: ('A' for Active; 'I' for Inactive)
REMARK    1  A    between atoms: C_2  and  C_4 
REMARK    2  A    between atoms: C_4  and  C_5 
REMARK    3  A    between atoms: C_5  and  N_6 
REMARK    4  A    between atoms: C_5  and  P_7 
REMARK    5  A    between atoms: P_7  and  O_8 
REMARK    6  A    between atoms: P_7  and  O_9 
ROOT
HETATM    1  C   UNK N   1      43.588  23.015   3.084  0.00  0.00     0.187 C 
ENDROOT
BRANCH   1   2
HETATM    2  C   UNK N   1      42.227  22.908   2.418  0.00  0.00     0.040 C 
BRANCH   2   3
HETATM    3  C   UNK N   1      41.831  21.446   2.274  0.00  0.00    -0.020 C 
HETATM    4  C   UNK N   1      40.325  21.316   2.305  0.00  0.00     0.009 C 
HETATM    5  C   UNK N   1      42.432  20.633   3.404  0.00  0.00     0.009 C 
ENDBRANCH   2   3
ENDBRANCH   1   2
BRANCH   1   6
HETATM    6  N   UNK N   1      43.485  23.839   4.275  0.00  0.00    -0.417 N 
HETATM    7  H   UNK N   1      42.849  23.720   5.064  0.00  0.00     0.150 HD
HETATM    8  H   UNK N   1      44.125  24.631   4.330  0.00  0.00     0.150 HD
ENDBRANCH   1   6
BRANCH   1   9
HETATM    9  P   UNK N   1      44.813  23.790   1.911  0.00  0.00     0.258 P 
HETATM   10  O   UNK N   1      44.158  24.958   1.125  0.00  0.00    -0.652 OA
BRANCH   9  11
HETATM   11  O   UNK N   1      46.194  24.517   2.672  0.00  0.00    -0.328 OA
HETATM   12  H   UNK N   1      46.836  25.230   2.813  0.00  0.00     0.220 HD
ENDBRANCH   9  11
BRANCH   9  13
HETATM   13  O   UNK N   1      45.412  22.735   0.673  0.00  0.00    -0.328 OA
HETATM   14  H   UNK N   1      45.496  21.769   0.634  0.00  0.00     0.220 HD
ENDBRANCH   9  13
ENDBRANCH   1   9
TORSDOF 6
ENDMDL
MODEL 8
REMARK VINA RESULT:      -3.8      3.379      3.895
REMARK  6 active torsions:
REMARK  status: ('A' for Active; 'I' for Inactive)
REMARK    1  A    between atoms: C_2  and  C_4 
REMARK    2  A    between atoms: C_4  and  C_5 
REMARK    3  A    between atoms: C_5  and  N_6 
REMARK    4  A    between atoms: C_5  and  P_7 
REMARK    5  A    between atoms: P_7  and  O_8 
REMARK    6  A    between atoms: P_7  and  O_9 
ROOT
HETATM    1  C   UNK N   1      32.955  14.874   9.440  0.00  0.00     0.187 C 
ENDROOT
BRANCH   1   2
HETATM    2  C   UNK N   1      33.132  15.697   8.176  0.00  0.00     0.040 C 
BRANCH   2   3
HETATM    3  C   UNK N   1      32.272  16.950   8.245  0.00  0.00    -0.020 C 
HETATM    4  C   UNK N   1      31.282  16.959   7.102  0.00  0.00     0.009 C 
HETATM    5  C   UNK N   1      33.149  18.185   8.165  0.00  0.00     0.009 C 
ENDBRANCH   2   3
ENDBRANCH   1   2
BRANCH   1   6
HETATM    6  N   UNK N   1      31.766  15.314  10.148  0.00  0.00    -0.417 N 
HETATM    7  H   UNK N   1      30.793  15.214   9.857  0.00  0.00     0.150 HD
HETATM    8  H   UNK N   1      31.922  15.779  11.042  0.00  0.00     0.150 HD
ENDBRANCH   1   6
BRANCH   1   9
HETATM    9  P   UNK N   1      34.438  15.083  10.551  0.00  0.00     0.258 P 
HETATM   10  O   UNK N   1      35.721  14.545   9.862  0.00  0.00    -0.652 OA
BRANCH   9  11
HETATM   11  O   UNK N   1      34.829  16.728  10.944  0.00  0.00    -0.328 OA
HETATM   12  H   UNK N   1      35.419  17.432  11.255  0.00  0.00     0.220 HD
ENDBRANCH   9  11
BRANCH   9  13
HETATM   13  O   UNK N   1      34.365  14.207  12.045  0.00  0.00    -0.328 OA
HETATM   14  H   UNK N   1      34.996  14.126  12.777  0.00  0.00     0.220 HD
ENDBRANCH   9  13
ENDBRANCH   1   9
TORSDOF 6
ENDMDL
MODEL 9
REMARK VINA RESULT:      -3.8      2.863      3.659
REMARK  6 active torsions:
REMARK  status: ('A' for Active; 'I' for Inactive)
REMARK    1  A    between atoms: C_2  and  C_4 
REMARK    2  A    between atoms: C_4  and  C_5 
REMARK    3  A    between atoms: C_5  and  N_6 
REMARK    4  A    between atoms: C_5  and  P_7 
REMARK    5  A    between atoms: P_7  and  O_8 
REMARK    6  A    between atoms: P_7  and  O_9 
ROOT
HETATM    1  C   UNK N   1      34.219  16.783   6.797  0.00  0.00     0.187 C 
ENDROOT
BRANCH   1   2
HETATM    2  C   UNK N   1      33.690  17.487   5.559  0.00  0.00     0.040 C 
BRANCH   2   3
HETATM    3  C   UNK N   1      32.645  16.620   4.873  0.00  0.00    -0.020 C 
HETATM    4  C   UNK N   1      33.059  16.347   3.445  0.00  0.00     0.009 C 
HETATM    5  C   UNK N   1      31.301  17.324   4.885  0.00  0.00     0.009 C 
ENDBRANCH   2   3
ENDBRANCH   1   2
BRANCH   1   6
HETATM    6  N   UNK N   1      33.523  15.522   6.977  0.00  0.00    -0.417 N 
HETATM    7  H   UNK N   1      33.110  15.153   7.834  0.00  0.00     0.150 HD
HETATM    8  H   UNK N   1      33.437  14.934   6.148  0.00  0.00     0.150 HD
ENDBRANCH   1   6
BRANCH   1   9
HETATM    9  P   UNK N   1      33.948  17.850   8.302  0.00  0.00     0.258 P 
HETATM   10  O   UNK N   1      34.888  19.086   8.275  0.00  0.00    -0.652 OA
BRANCH   9  11
HETATM   11  O   UNK N   1      32.358  18.531   8.438  0.00  0.00    -0.328 OA
HETATM   12  H   UNK N   1      31.441  18.666   8.153  0.00  0.00     0.220 HD
ENDBRANCH   9  11
BRANCH   9  13
HETATM   13  O   UNK N   1      34.305  17.085   9.817  0.00  0.00    -0.328 OA
HETATM   14  H   UNK N   1      34.648  17.439  10.652  0.00  0.00     0.220 HD
ENDBRANCH   9  13
ENDBRANCH   1   9
TORSDOF 6
ENDMDL
