MODEL 1
REMARK VINA RESULT:      -3.8      0.000      0.000
REMARK  0 active torsions:
REMARK  status: ('A' for Active; 'I' for Inactive)
ROOT
HETATM    1  O   UNK N   1      26.927  24.592  -2.932  0.00  0.00    -0.298 OA
HETATM    2  C   UNK N   1      26.401  25.412  -3.666  0.00  0.00     0.127 A 
HETATM    3  C   UNK N   1      25.910  24.948  -4.999  0.00  0.00     0.078 A 
HETATM    4  C   UNK N   1      25.252  25.968  -5.918  0.00  0.00     0.007 A 
HETATM    5  C   UNK N   1      25.112  27.417  -5.464  0.00  0.00     0.001 A 
HETATM    6  C   UNK N   1      25.628  27.844  -4.094  0.00  0.00     0.007 A 
HETATM    7  C   UNK N   1      26.285  26.819  -3.179  0.00  0.00     0.078 A 
ENDROOT
TORSDOF 0
ENDMDL
MODEL 2
REMARK VINA RESULT:      -3.8     19.336     20.466
REMARK  0 active torsions:
REMARK  status: ('A' for Active; 'I' for Inactive)
ROOT
HETATM    1  O   UNK N   1      20.310  13.117   9.984  0.00  0.00    -0.298 OA
HETATM    2  C   UNK N   1      21.485  12.878  10.210  0.00  0.00     0.127 A 
HETATM    3  C   UNK N   1      21.821  12.116  11.450  0.00  0.00     0.078 A 
HETATM    4  C   UNK N   1      23.285  11.816  11.736  0.00  0.00     0.007 A 
HETATM    5  C   UNK N   1      24.359  12.291  10.764  0.00  0.00     0.001 A 
HETATM    6  C   UNK N   1      23.968  13.066   9.509  0.00  0.00     0.007 A 
HETATM    7  C   UNK N   1      22.502  13.363   9.230  0.00  0.00     0.078 A 
ENDROOT
TORSDOF 0
ENDMDL
MODEL 3
REMARK VINA RESULT:      -3.8      0.126      1.997
REMARK  0 active torsions:
REMARK  status: ('A' for Active; 'I' for Inactive)
ROOT
HETATM    1  O   UNK N   1      26.836  24.483  -3.067  0.00  0.00    -0.298 OA
HETATM    2  C   UNK N   1      26.351  25.359  -3.763  0.00  0.00     0.127 A 
HETATM    3  C   UNK N   1      26.271  26.740  -3.200  0.00  0.00     0.078 A 
HETATM    4  C   UNK N   1      25.666  27.836  -4.065  0.00  0.00     0.007 A 
HETATM    5  C   UNK N   1      25.164  27.504  -5.466  0.00  0.00     0.001 A 
HETATM    6  C   UNK N   1      25.267  26.079  -5.999  0.00  0.00     0.007 A 
HETATM    7  C   UNK N   1      25.872  24.988  -5.129  0.00  0.00     0.078 A 
ENDROOT
TORSDOF 0
ENDMDL
MODEL 4
REMARK VINA RESULT:      -3.8      1.623      2.581
REMARK  0 active torsions:
REMARK  status: ('A' for Active; 'I' for Inactive)
ROOT
HETATM    1  O   UNK N   1      25.273  24.748  -6.582  0.00  0.00    -0.298 OA
HETATM    2  C   UNK N   1      25.504  25.517  -5.663  0.00  0.00     0.127 A 
HETATM    3  C   UNK N   1      25.004  26.920  -5.779  0.00  0.00     0.078 A 
HETATM    4  C   UNK N   1      25.289  27.882  -4.635  0.00  0.00     0.007 A 
HETATM    5  C   UNK N   1      26.067  27.399  -3.415  0.00  0.00     0.001 A 
HETATM    6  C   UNK N   1      26.557  25.957  -3.342  0.00  0.00     0.007 A 
HETATM    7  C   UNK N   1      26.269  25.000  -4.489  0.00  0.00     0.078 A 
ENDROOT
TORSDOF 0
ENDMDL
MODEL 5
REMARK VINA RESULT:      -3.8     19.809     20.851
REMARK  0 active torsions:
REMARK  status: ('A' for Active; 'I' for Inactive)
ROOT
HETATM    1  O   UNK N   1      23.014  11.766  13.098  0.00  0.00    -0.298 OA
HETATM    2  C   UNK N   1      23.047  12.001  11.901  0.00  0.00     0.127 A 
HETATM    3  C   UNK N   1      21.750  12.201  11.188  0.00  0.00     0.078 A 
HETATM    4  C   UNK N   1      21.787  12.494   9.695  0.00  0.00     0.007 A 
HETATM    5  C   UNK N   1      23.127  12.577   8.973  0.00  0.00     0.001 A 
HETATM    6  C   UNK N   1      24.426  12.366   9.743  0.00  0.00     0.007 A 
HETATM    7  C   UNK N   1      24.382  12.073  11.236  0.00  0.00     0.078 A 
ENDROOT
TORSDOF 0
ENDMDL
MODEL 6
REMARK VINA RESULT:      -3.7     19.313     20.419
REMARK  0 active torsions:
REMARK  status: ('A' for Active; 'I' for Inactive)
ROOT
HETATM    1  O   UNK N   1      20.323  13.096   9.973  0.00  0.00    -0.298 OA
HETATM    2  C   UNK N   1      21.502  12.869  10.192  0.00  0.00     0.127 A 
HETATM    3  C   UNK N   1      22.502  13.296   9.168  0.00  0.00     0.078 A 
HETATM    4  C   UNK N   1      23.973  13.014   9.437  0.00  0.00     0.007 A 
HETATM    5  C   UNK N   1      24.386  12.313  10.727  0.00  0.00     0.001 A 
HETATM    6  C   UNK N   1      23.329  11.895  11.744  0.00  0.00     0.007 A 
HETATM    7  C   UNK N   1      21.859  12.180  11.468  0.00  0.00     0.078 A 
ENDROOT
TORSDOF 0
ENDMDL
MODEL 7
REMARK VINA RESULT:      -3.7     19.600     20.622
REMARK  0 active torsions:
REMARK  status: ('A' for Active; 'I' for Inactive)
ROOT
HETATM    1  O   UNK N   1      24.809  11.927  11.718  0.00  0.00    -0.298 OA
HETATM    2  C   UNK N   1      23.743  12.256  11.225  0.00  0.00     0.127 A 
HETATM    3  C   UNK N   1      23.770  13.047   9.958  0.00  0.00     0.078 A 
HETATM    4  C   UNK N   1      22.443  13.459   9.338  0.00  0.00     0.007 A 
HETATM    5  C   UNK N   1      21.135  13.061  10.015  0.00  0.00     0.001 A 
HETATM    6  C   UNK N   1      21.157  12.253  11.307  0.00  0.00     0.007 A 
HETATM    7  C   UNK N   1      22.488  11.843  11.922  0.00  0.00     0.078 A 
ENDROOT
TORSDOF 0
ENDMDL
MODEL 8
REMARK VINA RESULT:      -3.7     14.981     15.804
REMARK  0 active torsions:
REMARK  status: ('A' for Active; 'I' for Inactive)
ROOT
HETATM    1  O   UNK N   1      34.522  17.794   6.484  0.00  0.00    -0.298 OA
HETATM    2  C   UNK N   1      33.343  17.666   6.771  0.00  0.00     0.127 A 
HETATM    3  C   UNK N   1      32.918  18.000   8.163  0.00  0.00     0.078 A 
HETATM    4  C   UNK N   1      31.448  17.841   8.524  0.00  0.00     0.007 A 
HETATM    5  C   UNK N   1      30.459  17.352   7.473  0.00  0.00     0.001 A 
HETATM    6  C   UNK N   1      30.939  17.022   6.064  0.00  0.00     0.007 A 
HETATM    7  C   UNK N   1      32.410  17.183   5.709  0.00  0.00     0.078 A 
ENDROOT
TORSDOF 0
ENDMDL
MODEL 9
REMARK VINA RESULT:      -3.6     14.988     15.736
REMARK  0 active torsions:
REMARK  status: ('A' for Active; 'I' for Inactive)
ROOT
HETATM    1  O   UNK N   1      34.699  18.232   7.229  0.00  0.00    -0.298 OA
HETATM    2  C   UNK N   1      33.541  17.874   7.092  0.00  0.00     0.127 A 
HETATM    3  C   UNK N   1      33.100  17.427   5.737  0.00  0.00     0.078 A 
HETATM    4  C   UNK N   1      31.656  16.979   5.561  0.00  0.00     0.007 A 
HETATM    5  C   UNK N   1      30.707  16.998   6.754  0.00  0.00     0.001 A 
HETATM    6  C   UNK N   1      31.202  17.462   8.120  0.00  0.00     0.007 A 
HETATM    7  C   UNK N   1      32.648  17.908   8.289  0.00  0.00     0.078 A 
ENDROOT
TORSDOF 0
ENDMDL
