MODEL 1
REMARK VINA RESULT:      -4.3      0.000      0.000
REMARK  5 active torsions:
REMARK  status: ('A' for Active; 'I' for Inactive)
REMARK    1  A    between atoms: S_2  and  C_3 
REMARK    2  A    between atoms: C_3  and  C_4 
REMARK    3  A    between atoms: C_4  and  C_5 
REMARK    4  A    between atoms: C_5  and  C_7 
REMARK    5  A    between atoms: C_7  and  O_8 
ROOT
HETATM    1  C   UNK N   1      21.225  20.775   2.369  0.00  0.00     0.222 C 
HETATM    2  O   UNK N   1      22.349  21.005   2.788  0.00  0.00    -0.286 OA
ENDROOT
BRANCH   1   3
HETATM    3  C   UNK N   1      20.273  20.060   3.292  0.00  0.00     0.100 C 
BRANCH   3   4
HETATM    4  C   UNK N   1      19.488  18.906   2.681  0.00  0.00     0.081 C 
BRANCH   4   5
HETATM    5  S   UNK N   1      20.464  17.387   2.360  0.00  0.00    -0.173 SA
HETATM    6  C   UNK N   1      20.050  17.134   0.604  0.00  0.00     0.089 C 
ENDBRANCH   4   5
ENDBRANCH   3   4
ENDBRANCH   1   3
BRANCH   1   7
HETATM    7  C   UNK N   1      20.882  21.213   0.991  0.00  0.00     0.213 C 
HETATM    8  O   UNK N   1      21.098  20.499   0.024  0.00  0.00    -0.644 OA
BRANCH   7   9
HETATM    9  O   UNK N   1      20.323  22.422   0.800  0.00  0.00    -0.771 OA
HETATM   10  H   UNK N   1      20.466  23.107   1.423  0.00  0.00     0.167 HD
ENDBRANCH   7   9
ENDBRANCH   1   7
TORSDOF 5
ENDMDL
MODEL 2
REMARK VINA RESULT:      -4.0      1.015      1.453
REMARK  5 active torsions:
REMARK  status: ('A' for Active; 'I' for Inactive)
REMARK    1  A    between atoms: S_2  and  C_3 
REMARK    2  A    between atoms: C_3  and  C_4 
REMARK    3  A    between atoms: C_4  and  C_5 
REMARK    4  A    between atoms: C_5  and  C_7 
REMARK    5  A    between atoms: C_7  and  O_8 
ROOT
HETATM    1  C   UNK N   1      21.280  20.846   2.380  0.00  0.00     0.222 C 
HETATM    2  O   UNK N   1      22.409  21.099   2.773  0.00  0.00    -0.286 OA
ENDROOT
BRANCH   1   3
HETATM    3  C   UNK N   1      20.353  20.144   3.337  0.00  0.00     0.100 C 
BRANCH   3   4
HETATM    4  C   UNK N   1      19.524  19.007   2.753  0.00  0.00     0.081 C 
BRANCH   4   5
HETATM    5  S   UNK N   1      20.101  17.323   3.191  0.00  0.00    -0.173 SA
HETATM    6  C   UNK N   1      21.033  17.714   4.707  0.00  0.00     0.089 C 
ENDBRANCH   4   5
ENDBRANCH   3   4
ENDBRANCH   1   3
BRANCH   1   7
HETATM    7  C   UNK N   1      20.908  21.247   0.997  0.00  0.00     0.213 C 
HETATM    8  O   UNK N   1      21.119  20.514   0.044  0.00  0.00    -0.644 OA
BRANCH   7   9
HETATM    9  O   UNK N   1      20.327  22.442   0.789  0.00  0.00    -0.771 OA
HETATM   10  H   UNK N   1      19.750  22.802   1.433  0.00  0.00     0.167 HD
ENDBRANCH   7   9
ENDBRANCH   1   7
TORSDOF 5
ENDMDL
MODEL 3
REMARK VINA RESULT:      -4.0     13.148     14.282
REMARK  5 active torsions:
REMARK  status: ('A' for Active; 'I' for Inactive)
REMARK    1  A    between atoms: S_2  and  C_3 
REMARK    2  A    between atoms: C_3  and  C_4 
REMARK    3  A    between atoms: C_4  and  C_5 
REMARK    4  A    between atoms: C_5  and  C_7 
REMARK    5  A    between atoms: C_7  and  O_8 
ROOT
HETATM    1  C   UNK N   1      33.874  17.741   7.343  0.00  0.00     0.222 C 
HETATM    2  O   UNK N   1      34.329  17.881   6.217  0.00  0.00    -0.286 OA
ENDROOT
BRANCH   1   3
HETATM    3  C   UNK N   1      32.513  17.108   7.468  0.00  0.00     0.100 C 
BRANCH   3   4
HETATM    4  C   UNK N   1      31.546  17.785   8.431  0.00  0.00     0.081 C 
BRANCH   4   5
HETATM    5  S   UNK N   1      29.770  17.564   8.032  0.00  0.00    -0.173 SA
HETATM    6  C   UNK N   1      29.036  18.390   9.480  0.00  0.00     0.089 C 
ENDBRANCH   4   5
ENDBRANCH   3   4
ENDBRANCH   1   3
BRANCH   1   7
HETATM    7  C   UNK N   1      34.691  18.203   8.496  0.00  0.00     0.213 C 
HETATM    8  O   UNK N   1      35.294  19.264   8.464  0.00  0.00    -0.644 OA
BRANCH   7   9
HETATM    9  O   UNK N   1      34.770  17.438   9.599  0.00  0.00    -0.771 OA
HETATM   10  H   UNK N   1      35.394  17.642  10.267  0.00  0.00     0.167 HD
ENDBRANCH   7   9
ENDBRANCH   1   7
TORSDOF 5
ENDMDL
MODEL 4
REMARK VINA RESULT:      -3.9     13.542     14.490
REMARK  5 active torsions:
REMARK  status: ('A' for Active; 'I' for Inactive)
REMARK    1  A    between atoms: S_2  and  C_3 
REMARK    2  A    between atoms: C_3  and  C_4 
REMARK    3  A    between atoms: C_4  and  C_5 
REMARK    4  A    between atoms: C_5  and  C_7 
REMARK    5  A    between atoms: C_7  and  O_8 
ROOT
HETATM    1  C   UNK N   1      34.221  17.203   9.051  0.00  0.00     0.222 C 
HETATM    2  O   UNK N   1      34.752  17.152  10.150  0.00  0.00    -0.286 OA
ENDROOT
BRANCH   1   3
HETATM    3  C   UNK N   1      33.150  16.187   8.750  0.00  0.00     0.100 C 
BRANCH   3   4
HETATM    4  C   UNK N   1      31.734  16.731   8.603  0.00  0.00     0.081 C 
BRANCH   4   5
HETATM    5  S   UNK N   1      31.087  16.756   6.888  0.00  0.00    -0.173 SA
HETATM    6  C   UNK N   1      29.390  17.329   7.220  0.00  0.00     0.089 C 
ENDBRANCH   4   5
ENDBRANCH   3   4
ENDBRANCH   1   3
BRANCH   1   7
HETATM    7  C   UNK N   1      34.667  18.255   8.100  0.00  0.00     0.213 C 
HETATM    8  O   UNK N   1      34.444  18.165   6.903  0.00  0.00    -0.644 OA
BRANCH   7   9
HETATM    9  O   UNK N   1      35.331  19.328   8.564  0.00  0.00    -0.771 OA
HETATM   10  H   UNK N   1      36.266  19.313   8.622  0.00  0.00     0.167 HD
ENDBRANCH   7   9
ENDBRANCH   1   7
TORSDOF 5
ENDMDL
MODEL 5
REMARK VINA RESULT:      -3.8     14.065     15.142
REMARK  5 active torsions:
REMARK  status: ('A' for Active; 'I' for Inactive)
REMARK    1  A    between atoms: S_2  and  C_3 
REMARK    2  A    between atoms: C_3  and  C_4 
REMARK    3  A    between atoms: C_4  and  C_5 
REMARK    4  A    between atoms: C_5  and  C_7 
REMARK    5  A    between atoms: C_7  and  O_8 
ROOT
HETATM    1  C   UNK N   1      34.546  18.148   8.454  0.00  0.00     0.222 C 
HETATM    2  O   UNK N   1      35.275  19.127   8.408  0.00  0.00    -0.286 OA
ENDROOT
BRANCH   1   3
HETATM    3  C   UNK N   1      33.509  18.004   7.371  0.00  0.00     0.100 C 
BRANCH   3   4
HETATM    4  C   UNK N   1      33.901  17.140   6.179  0.00  0.00     0.081 C 
BRANCH   4   5
HETATM    5  S   UNK N   1      32.889  17.393   4.672  0.00  0.00    -0.173 SA
HETATM    6  C   UNK N   1      31.281  16.805   5.292  0.00  0.00     0.089 C 
ENDBRANCH   4   5
ENDBRANCH   3   4
ENDBRANCH   1   3
BRANCH   1   7
HETATM    7  C   UNK N   1      34.735  17.180   9.566  0.00  0.00     0.213 C 
HETATM    8  O   UNK N   1      35.661  17.289  10.354  0.00  0.00    -0.644 OA
BRANCH   7   9
HETATM    9  O   UNK N   1      33.870  16.160   9.710  0.00  0.00    -0.771 OA
HETATM   10  H   UNK N   1      34.081  15.442  10.273  0.00  0.00     0.167 HD
ENDBRANCH   7   9
ENDBRANCH   1   7
TORSDOF 5
ENDMDL
MODEL 6
REMARK VINA RESULT:      -3.8     13.894     14.859
REMARK  5 active torsions:
REMARK  status: ('A' for Active; 'I' for Inactive)
REMARK    1  A    between atoms: S_2  and  C_3 
REMARK    2  A    between atoms: C_3  and  C_4 
REMARK    3  A    between atoms: C_4  and  C_5 
REMARK    4  A    between atoms: C_5  and  C_7 
REMARK    5  A    between atoms: C_7  and  O_8 
ROOT
HETATM    1  C   UNK N   1      33.742  17.791   7.264  0.00  0.00     0.222 C 
HETATM    2  O   UNK N   1      34.280  17.899   6.172  0.00  0.00    -0.286 OA
ENDROOT
BRANCH   1   3
HETATM    3  C   UNK N   1      32.333  17.260   7.295  0.00  0.00     0.100 C 
BRANCH   3   4
HETATM    4  C   UNK N   1      32.166  15.784   6.957  0.00  0.00     0.081 C 
BRANCH   4   5
HETATM    5  S   UNK N   1      32.519  14.628   8.336  0.00  0.00    -0.173 SA
HETATM    6  C   UNK N   1      34.229  14.170   7.908  0.00  0.00     0.089 C 
ENDBRANCH   4   5
ENDBRANCH   3   4
ENDBRANCH   1   3
BRANCH   1   7
HETATM    7  C   UNK N   1      34.513  18.189   8.472  0.00  0.00     0.213 C 
HETATM    8  O   UNK N   1      35.265  19.150   8.458  0.00  0.00    -0.644 OA
BRANCH   7   9
HETATM    9  O   UNK N   1      34.381  17.477   9.605  0.00  0.00    -0.771 OA
HETATM   10  H   UNK N   1      33.853  16.704   9.614  0.00  0.00     0.167 HD
ENDBRANCH   7   9
ENDBRANCH   1   7
TORSDOF 5
ENDMDL
MODEL 7
REMARK VINA RESULT:      -3.8     15.265     16.133
REMARK  5 active torsions:
REMARK  status: ('A' for Active; 'I' for Inactive)
REMARK    1  A    between atoms: S_2  and  C_3 
REMARK    2  A    between atoms: C_3  and  C_4 
REMARK    3  A    between atoms: C_4  and  C_5 
REMARK    4  A    between atoms: C_5  and  C_7 
REMARK    5  A    between atoms: C_7  and  O_8 
ROOT
HETATM    1  C   UNK N   1      34.385  17.215   9.173  0.00  0.00     0.222 C 
HETATM    2  O   UNK N   1      34.959  17.210  10.251  0.00  0.00    -0.286 OA
ENDROOT
BRANCH   1   3
HETATM    3  C   UNK N   1      33.368  16.133   8.923  0.00  0.00     0.100 C 
BRANCH   3   4
HETATM    4  C   UNK N   1      33.909  14.711   8.847  0.00  0.00     0.081 C 
BRANCH   4   5
HETATM    5  S   UNK N   1      35.403  14.504   7.805  0.00  0.00    -0.173 SA
HETATM    6  C   UNK N   1      36.629  14.166   9.109  0.00  0.00     0.089 C 
ENDBRANCH   4   5
ENDBRANCH   3   4
ENDBRANCH   1   3
BRANCH   1   7
HETATM    7  C   UNK N   1      34.729  18.281   8.196  0.00  0.00     0.213 C 
HETATM    8  O   UNK N   1      35.307  19.299   8.542  0.00  0.00    -0.644 OA
BRANCH   7   9
HETATM    9  O   UNK N   1      34.398  18.125   6.902  0.00  0.00    -0.771 OA
HETATM   10  H   UNK N   1      34.108  17.291   6.590  0.00  0.00     0.167 HD
ENDBRANCH   7   9
ENDBRANCH   1   7
TORSDOF 5
ENDMDL
MODEL 8
REMARK VINA RESULT:      -3.8     13.167     14.177
REMARK  5 active torsions:
REMARK  status: ('A' for Active; 'I' for Inactive)
REMARK    1  A    between atoms: S_2  and  C_3 
REMARK    2  A    between atoms: C_3  and  C_4 
REMARK    3  A    between atoms: C_4  and  C_5 
REMARK    4  A    between atoms: C_5  and  C_7 
REMARK    5  A    between atoms: C_7  and  O_8 
ROOT
HETATM    1  C   UNK N   1      33.727  17.809   7.277  0.00  0.00     0.222 C 
HETATM    2  O   UNK N   1      34.275  17.854   6.186  0.00  0.00    -0.286 OA
ENDROOT
BRANCH   1   3
HETATM    3  C   UNK N   1      32.288  17.368   7.314  0.00  0.00     0.100 C 
BRANCH   3   4
HETATM    4  C   UNK N   1      32.050  15.873   7.486  0.00  0.00     0.081 C 
BRANCH   4   5
HETATM    5  S   UNK N   1      31.196  15.056   6.084  0.00  0.00    -0.173 SA
HETATM    6  C   UNK N   1      30.950  16.503   5.004  0.00  0.00     0.089 C 
ENDBRANCH   4   5
ENDBRANCH   3   4
ENDBRANCH   1   3
BRANCH   1   7
HETATM    7  C   UNK N   1      34.516  18.190   8.478  0.00  0.00     0.213 C 
HETATM    8  O   UNK N   1      35.275  19.146   8.463  0.00  0.00    -0.644 OA
BRANCH   7   9
HETATM    9  O   UNK N   1      34.394  17.469   9.606  0.00  0.00    -0.771 OA
HETATM   10  H   UNK N   1      34.815  17.754  10.393  0.00  0.00     0.167 HD
ENDBRANCH   7   9
ENDBRANCH   1   7
TORSDOF 5
ENDMDL
MODEL 9
REMARK VINA RESULT:      -3.8     13.815     14.905
REMARK  5 active torsions:
REMARK  status: ('A' for Active; 'I' for Inactive)
REMARK    1  A    between atoms: S_2  and  C_3 
REMARK    2  A    between atoms: C_3  and  C_4 
REMARK    3  A    between atoms: C_4  and  C_5 
REMARK    4  A    between atoms: C_5  and  C_7 
REMARK    5  A    between atoms: C_7  and  O_8 
ROOT
HETATM    1  C   UNK N   1      34.545  18.071   8.492  0.00  0.00     0.222 C 
HETATM    2  O   UNK N   1      35.242  19.074   8.477  0.00  0.00    -0.286 OA
ENDROOT
BRANCH   1   3
HETATM    3  C   UNK N   1      33.370  18.028   7.551  0.00  0.00     0.100 C 
BRANCH   3   4
HETATM    4  C   UNK N   1      32.028  17.662   8.173  0.00  0.00     0.081 C 
BRANCH   4   5
HETATM    5  S   UNK N   1      30.798  16.962   7.008  0.00  0.00    -0.173 SA
HETATM    6  C   UNK N   1      29.268  17.534   7.814  0.00  0.00     0.089 C 
ENDBRANCH   4   5
ENDBRANCH   3   4
ENDBRANCH   1   3
BRANCH   1   7
HETATM    7  C   UNK N   1      34.906  16.975   9.430  0.00  0.00     0.213 C 
HETATM    8  O   UNK N   1      35.124  15.842   9.031  0.00  0.00    -0.644 OA
BRANCH   7   9
HETATM    9  O   UNK N   1      34.996  17.234  10.747  0.00  0.00    -0.771 OA
HETATM   10  H   UNK N   1      35.267  18.081  11.041  0.00  0.00     0.167 HD
ENDBRANCH   7   9
ENDBRANCH   1   7
TORSDOF 5
ENDMDL
