MODEL 1
REMARK VINA RESULT:      -9.2      0.000      0.000
REMARK  7 active torsions:
REMARK  status: ('A' for Active; 'I' for Inactive)
REMARK    1  A    between atoms: O_1  and  C_2 
REMARK    2  A    between atoms: C_3  and  C_4 
REMARK    3  A    between atoms: C_4  and  C_5 
REMARK    4  A    between atoms: C_4  and  C_8 
REMARK    5  A    between atoms: C_12  and  N_13 
REMARK    6  A    between atoms: N_13  and  S_14 
REMARK    7  A    between atoms: S_14  and  C_17 
ROOT
HETATM    1  C   UNK N   1      26.237  18.911   4.821  0.00  0.00     0.065 C 
ENDROOT
BRANCH   1   2
HETATM    2  C   UNK N   1      24.901  19.295   4.144  0.00  0.00     0.060 A 
HETATM    3  C   UNK N   1      23.683  18.772   4.646  0.00  0.00     0.087 A 
HETATM    4  C   UNK N   1      22.470  19.195   4.103  0.00  0.00     0.006 A 
HETATM    5  C   UNK N   1      22.473  20.136   3.071  0.00  0.00     0.066 A 
HETATM    6  C   UNK N   1      21.173  18.648   4.618  0.00  0.00     0.044 C 
HETATM    7  O   UNK N   1      23.622  20.560   2.560  0.00  0.00    -0.279 OA
HETATM    8  C   UNK N   1      21.200  20.688   2.513  0.00  0.00     0.066 C 
HETATM    9  C   UNK N   1      24.794  20.170   3.020  0.00  0.00     0.297 A 
HETATM   10  O   UNK N   1      25.794  20.578   2.435  0.00  0.00    -0.259 OA
HETATM   11  C   UNK N   1      20.691  19.846   1.358  0.00  0.00     0.006 C 
HETATM   12  C   UNK N   1      19.880  18.661   1.860  0.00  0.00     0.000 C 
HETATM   13  C   UNK N   1      20.798  17.543   2.332  0.00  0.00     0.000 C 
HETATM   14  C   UNK N   1      20.773  17.382   3.854  0.00  0.00     0.005 C 
BRANCH   3  15
HETATM   15  O   UNK N   1      23.676  17.877   5.651  0.00  0.00    -0.359 OA
HETATM   16  H   UNK N   1      24.399  17.783   6.239  0.00  0.00     0.217 HD
ENDBRANCH   3  15
ENDBRANCH   1   2
BRANCH   1  17
HETATM   17  C   UNK N   1      27.234  20.091   4.866  0.00  0.00    -0.001 A 
HETATM   18  C   UNK N   1      27.776  20.350   6.270  0.00  0.00     0.006 A 
HETATM   19  C   UNK N   1      26.656  21.203   5.730  0.00  0.00     0.006 A 
ENDBRANCH   1  17
BRANCH   1  20
HETATM   20  C   UNK N   1      26.954  17.778   4.136  0.00  0.00    -0.047 A 
HETATM   21  C   UNK N   1      26.245  16.884   3.311  0.00  0.00     0.008 A 
HETATM   22  C   UNK N   1      26.910  15.874   2.634  0.00  0.00     0.003 A 
HETATM   23  C   UNK N   1      28.294  15.844   2.663  0.00  0.00     0.030 A 
HETATM   24  C   UNK N   1      29.019  16.784   3.405  0.00  0.00     0.043 A 
HETATM   25  C   UNK N   1      28.347  17.739   4.161  0.00  0.00     0.038 A 
BRANCH  24  26
HETATM   26  N   UNK N   1      30.365  17.014   3.074  0.00  0.00    -0.281 N 
HETATM   27  H   UNK N   1      30.626  17.622   2.346  0.00  0.00     0.179 HD
BRANCH  26  28
HETATM   28  S   UNK N   1      31.551  16.149   4.037  0.00  0.00     0.263 S 
HETATM   29  O   UNK N   1      30.897  14.770   4.246  0.00  0.00    -0.200 OA
HETATM   30  O   UNK N   1      32.714  15.805   3.097  0.00  0.00    -0.200 OA
BRANCH  28  31
HETATM   31  C   UNK N   1      31.972  16.890   5.606  0.00  0.00     0.079 A 
HETATM   32  C   UNK N   1      33.278  17.342   5.836  0.00  0.00     0.025 A 
HETATM   33  C   UNK N   1      33.636  17.860   7.080  0.00  0.00     0.002 A 
HETATM   34  C   UNK N   1      32.684  17.933   8.100  0.00  0.00     0.000 A 
HETATM   35  C   UNK N   1      31.375  17.494   7.868  0.00  0.00     0.002 A 
HETATM   36  C   UNK N   1      31.021  16.966   6.623  0.00  0.00     0.025 A 
ENDBRANCH  28  31
ENDBRANCH  26  28
ENDBRANCH  24  26
ENDBRANCH   1  20
TORSDOF 7
ENDMDL
MODEL 2
REMARK VINA RESULT:      -8.8      5.207      8.219
REMARK  7 active torsions:
REMARK  status: ('A' for Active; 'I' for Inactive)
REMARK    1  A    between atoms: O_1  and  C_2 
REMARK    2  A    between atoms: C_3  and  C_4 
REMARK    3  A    between atoms: C_4  and  C_5 
REMARK    4  A    between atoms: C_4  and  C_8 
REMARK    5  A    between atoms: C_12  and  N_13 
REMARK    6  A    between atoms: N_13  and  S_14 
REMARK    7  A    between atoms: S_14  and  C_17 
ROOT
HETATM    1  C   UNK N   1      23.416  15.744   4.639  0.00  0.00     0.065 C 
ENDROOT
BRANCH   1   2
HETATM    2  C   UNK N   1      24.340  16.983   4.618  0.00  0.00     0.060 A 
HETATM    3  C   UNK N   1      25.673  16.874   5.090  0.00  0.00     0.087 A 
HETATM    4  C   UNK N   1      26.539  17.961   4.979  0.00  0.00     0.006 A 
HETATM    5  C   UNK N   1      26.082  19.145   4.396  0.00  0.00     0.066 A 
HETATM    6  C   UNK N   1      27.950  17.865   5.478  0.00  0.00     0.044 C 
HETATM    7  O   UNK N   1      24.812  19.258   4.028  0.00  0.00    -0.279 OA
HETATM    8  C   UNK N   1      26.993  20.309   4.174  0.00  0.00     0.066 C 
HETATM    9  C   UNK N   1      23.947  18.269   4.137  0.00  0.00     0.297 A 
HETATM   10  O   UNK N   1      22.783  18.501   3.821  0.00  0.00    -0.259 OA
HETATM   11  C   UNK N   1      27.005  21.240   5.371  0.00  0.00     0.006 C 
HETATM   12  C   UNK N   1      27.987  20.759   6.430  0.00  0.00     0.000 C 
HETATM   13  C   UNK N   1      27.380  19.631   7.252  0.00  0.00     0.000 C 
HETATM   14  C   UNK N   1      28.036  18.281   6.950  0.00  0.00     0.005 C 
BRANCH   3  15
HETATM   15  O   UNK N   1      26.122  15.730   5.637  0.00  0.00    -0.359 OA
HETATM   16  H   UNK N   1      26.605  15.717   6.440  0.00  0.00     0.217 HD
ENDBRANCH   3  15
ENDBRANCH   1   2
BRANCH   1  17
HETATM   17  C   UNK N   1      23.027  15.277   3.218  0.00  0.00    -0.001 A 
HETATM   18  C   UNK N   1      23.442  13.834   2.939  0.00  0.00     0.006 A 
HETATM   19  C   UNK N   1      24.290  14.970   2.428  0.00  0.00     0.006 A 
ENDBRANCH   1  17
BRANCH   1  20
HETATM   20  C   UNK N   1      22.125  15.971   5.378  0.00  0.00    -0.047 A 
HETATM   21  C   UNK N   1      20.895  15.930   4.691  0.00  0.00     0.008 A 
HETATM   22  C   UNK N   1      19.701  16.083   5.378  0.00  0.00     0.003 A 
HETATM   23  C   UNK N   1      19.723  16.130   6.762  0.00  0.00     0.030 A 
HETATM   24  C   UNK N   1      20.932  16.079   7.465  0.00  0.00     0.043 A 
HETATM   25  C   UNK N   1      22.136  16.023   6.770  0.00  0.00     0.038 A 
BRANCH  24  26
HETATM   26  N   UNK N   1      20.914  15.685   8.813  0.00  0.00    -0.281 N 
HETATM   27  H   UNK N   1      20.941  16.338   9.548  0.00  0.00     0.179 HD
BRANCH  26  28
HETATM   28  S   UNK N   1      20.845  13.955   9.106  0.00  0.00     0.263 S 
HETATM   29  O   UNK N   1      19.596  13.798   9.993  0.00  0.00    -0.200 OA
HETATM   30  O   UNK N   1      20.383  13.305   7.796  0.00  0.00    -0.200 OA
BRANCH  28  31
HETATM   31  C   UNK N   1      22.277  13.242   9.901  0.00  0.00     0.079 A 
HETATM   32  C   UNK N   1      23.547  13.414   9.335  0.00  0.00     0.025 A 
HETATM   33  C   UNK N   1      24.662  12.804   9.909  0.00  0.00     0.002 A 
HETATM   34  C   UNK N   1      24.511  12.023  11.057  0.00  0.00     0.000 A 
HETATM   35  C   UNK N   1      23.244  11.860  11.630  0.00  0.00     0.002 A 
HETATM   36  C   UNK N   1      22.126  12.464  11.049  0.00  0.00     0.025 A 
ENDBRANCH  28  31
ENDBRANCH  26  28
ENDBRANCH  24  26
ENDBRANCH   1  20
TORSDOF 7
ENDMDL
MODEL 3
REMARK VINA RESULT:      -8.6     11.188     13.906
REMARK  7 active torsions:
REMARK  status: ('A' for Active; 'I' for Inactive)
REMARK    1  A    between atoms: O_1  and  C_2 
REMARK    2  A    between atoms: C_3  and  C_4 
REMARK    3  A    between atoms: C_4  and  C_5 
REMARK    4  A    between atoms: C_4  and  C_8 
REMARK    5  A    between atoms: C_12  and  N_13 
REMARK    6  A    between atoms: N_13  and  S_14 
REMARK    7  A    between atoms: S_14  and  C_17 
ROOT
HETATM    1  C   UNK N   1      27.161  26.811  -5.292  0.00  0.00     0.065 C 
ENDROOT
BRANCH   1   2
HETATM    2  C   UNK N   1      28.016  25.726  -4.596  0.00  0.00     0.060 A 
HETATM    3  C   UNK N   1      29.415  25.912  -4.462  0.00  0.00     0.087 A 
HETATM    4  C   UNK N   1      30.172  24.986  -3.746  0.00  0.00     0.006 A 
HETATM    5  C   UNK N   1      29.538  23.886  -3.164  0.00  0.00     0.066 A 
HETATM    6  C   UNK N   1      31.654  25.163  -3.600  0.00  0.00     0.044 C 
HETATM    7  O   UNK N   1      28.241  23.684  -3.360  0.00  0.00    -0.279 OA
HETATM    8  C   UNK N   1      30.288  22.912  -2.314  0.00  0.00     0.066 C 
HETATM    9  C   UNK N   1      27.487  24.516  -4.051  0.00  0.00     0.297 A 
HETATM   10  O   UNK N   1      26.312  24.203  -4.222  0.00  0.00    -0.259 OA
HETATM   11  C   UNK N   1      30.861  21.778  -3.143  0.00  0.00     0.006 C 
HETATM   12  C   UNK N   1      32.197  22.170  -3.757  0.00  0.00     0.000 C 
HETATM   13  C   UNK N   1      31.988  23.034  -4.993  0.00  0.00     0.000 C 
HETATM   14  C   UNK N   1      32.400  24.488  -4.754  0.00  0.00     0.005 C 
BRANCH   3  15
HETATM   15  O   UNK N   1      30.027  26.979  -5.008  0.00  0.00    -0.359 OA
HETATM   16  H   UNK N   1      30.727  26.890  -5.625  0.00  0.00     0.217 HD
ENDBRANCH   3  15
ENDBRANCH   1   2
BRANCH   1  17
HETATM   17  C   UNK N   1      25.788  27.003  -4.613  0.00  0.00    -0.001 A 
HETATM   18  C   UNK N   1      25.502  28.462  -4.265  0.00  0.00     0.006 A 
HETATM   19  C   UNK N   1      25.996  27.521  -3.197  0.00  0.00     0.006 A 
ENDBRANCH   1  17
BRANCH   1  20
HETATM   20  C   UNK N   1      26.879  26.514  -6.740  0.00  0.00    -0.047 A 
HETATM   21  C   UNK N   1      27.799  26.895  -7.736  0.00  0.00     0.008 A 
HETATM   22  C   UNK N   1      27.569  26.574  -9.066  0.00  0.00     0.003 A 
HETATM   23  C   UNK N   1      26.503  25.750  -9.383  0.00  0.00     0.030 A 
HETATM   24  C   UNK N   1      25.632  25.285  -8.391  0.00  0.00     0.043 A 
HETATM   25  C   UNK N   1      25.807  25.687  -7.070  0.00  0.00     0.038 A 
BRANCH  24  26
HETATM   26  N   UNK N   1      24.865  24.137  -8.647  0.00  0.00    -0.281 N 
HETATM   27  H   UNK N   1      23.963  24.189  -9.039  0.00  0.00     0.179 HD
BRANCH  26  28
HETATM   28  S   UNK N   1      25.610  22.604  -8.225  0.00  0.00     0.263 S 
HETATM   29  O   UNK N   1      25.048  22.314  -6.821  0.00  0.00    -0.200 OA
HETATM   30  O   UNK N   1      24.915  21.529  -9.070  0.00  0.00    -0.200 OA
BRANCH  28  31
HETATM   31  C   UNK N   1      27.396  22.586  -8.205  0.00  0.00     0.079 A 
HETATM   32  C   UNK N   1      28.082  22.817  -7.005  0.00  0.00     0.025 A 
HETATM   33  C   UNK N   1      29.475  22.874  -6.990  0.00  0.00     0.002 A 
HETATM   34  C   UNK N   1      30.189  22.693  -8.177  0.00  0.00     0.000 A 
HETATM   35  C   UNK N   1      29.505  22.450  -9.374  0.00  0.00     0.002 A 
HETATM   36  C   UNK N   1      28.109  22.403  -9.389  0.00  0.00     0.025 A 
ENDBRANCH  28  31
ENDBRANCH  26  28
ENDBRANCH  24  26
ENDBRANCH   1  20
TORSDOF 7
ENDMDL
MODEL 4
REMARK VINA RESULT:      -8.5      2.972      5.043
REMARK  7 active torsions:
REMARK  status: ('A' for Active; 'I' for Inactive)
REMARK    1  A    between atoms: O_1  and  C_2 
REMARK    2  A    between atoms: C_3  and  C_4 
REMARK    3  A    between atoms: C_4  and  C_5 
REMARK    4  A    between atoms: C_4  and  C_8 
REMARK    5  A    between atoms: C_12  and  N_13 
REMARK    6  A    between atoms: N_13  and  S_14 
REMARK    7  A    between atoms: S_14  and  C_17 
ROOT
HETATM    1  C   UNK N   1      22.197  19.076   4.230  0.00  0.00     0.065 C 
ENDROOT
BRANCH   1   2
HETATM    2  C   UNK N   1      21.751  17.680   4.723  0.00  0.00     0.060 A 
HETATM    3  C   UNK N   1      21.103  17.552   5.978  0.00  0.00     0.087 A 
HETATM    4  C   UNK N   1      20.610  16.311   6.379  0.00  0.00     0.006 A 
HETATM    5  C   UNK N   1      20.757  15.210   5.534  0.00  0.00     0.066 A 
HETATM    6  C   UNK N   1      19.927  16.156   7.705  0.00  0.00     0.044 C 
HETATM    7  O   UNK N   1      21.432  15.327   4.398  0.00  0.00    -0.279 OA
HETATM    8  C   UNK N   1      20.170  13.878   5.878  0.00  0.00     0.066 C 
HETATM    9  C   UNK N   1      21.940  16.472   3.986  0.00  0.00     0.297 A 
HETATM   10  O   UNK N   1      22.597  16.456   2.949  0.00  0.00    -0.259 OA
HETATM   11  C   UNK N   1      21.144  13.032   6.677  0.00  0.00     0.006 C 
HETATM   12  C   UNK N   1      21.075  13.371   8.159  0.00  0.00     0.000 C 
HETATM   13  C   UNK N   1      21.858  14.641   8.457  0.00  0.00     0.000 C 
HETATM   14  C   UNK N   1      20.940  15.816   8.803  0.00  0.00     0.005 C 
BRANCH   3  15
HETATM   15  O   UNK N   1      20.946  18.615   6.787  0.00  0.00    -0.359 OA
HETATM   16  H   UNK N   1      20.102  18.896   7.083  0.00  0.00     0.217 HD
ENDBRANCH   3  15
ENDBRANCH   1   2
BRANCH   1  17
HETATM   17  C   UNK N   1      21.568  19.447   2.868  0.00  0.00    -0.001 A 
HETATM   18  C   UNK N   1      20.668  20.678   2.951  0.00  0.00     0.006 A 
HETATM   19  C   UNK N   1      20.056  19.301   2.958  0.00  0.00     0.006 A 
ENDBRANCH   1  17
BRANCH   1  20
HETATM   20  C   UNK N   1      23.686  19.204   4.056  0.00  0.00    -0.047 A 
HETATM   21  C   UNK N   1      24.217  20.034   3.049  0.00  0.00     0.008 A 
HETATM   22  C   UNK N   1      25.588  20.197   2.922  0.00  0.00     0.003 A 
HETATM   23  C   UNK N   1      26.421  19.655   3.886  0.00  0.00     0.030 A 
HETATM   24  C   UNK N   1      25.901  18.905   4.947  0.00  0.00     0.043 A 
HETATM   25  C   UNK N   1      24.534  18.660   5.020  0.00  0.00     0.038 A 
BRANCH  24  26
HETATM   26  N   UNK N   1      26.674  18.755   6.111  0.00  0.00    -0.281 N 
HETATM   27  H   UNK N   1      26.630  19.401   6.853  0.00  0.00     0.179 HD
BRANCH  26  28
HETATM   28  S   UNK N   1      27.724  17.349   6.161  0.00  0.00     0.263 S 
HETATM   29  O   UNK N   1      26.860  16.290   6.870  0.00  0.00    -0.200 OA
HETATM   30  O   UNK N   1      27.786  16.796   4.731  0.00  0.00    -0.200 OA
BRANCH  28  31
HETATM   31  C   UNK N   1      29.279  17.567   7.012  0.00  0.00     0.079 A 
HETATM   32  C   UNK N   1      30.452  17.028   6.468  0.00  0.00     0.025 A 
HETATM   33  C   UNK N   1      31.660  17.132   7.158  0.00  0.00     0.002 A 
HETATM   34  C   UNK N   1      31.699  17.784   8.393  0.00  0.00     0.000 A 
HETATM   35  C   UNK N   1      30.529  18.333   8.930  0.00  0.00     0.002 A 
HETATM   36  C   UNK N   1      29.318  18.220   8.243  0.00  0.00     0.025 A 
ENDBRANCH  28  31
ENDBRANCH  26  28
ENDBRANCH  24  26
ENDBRANCH   1  20
TORSDOF 7
ENDMDL
MODEL 5
REMARK VINA RESULT:      -8.5     11.498     13.999
REMARK  7 active torsions:
REMARK  status: ('A' for Active; 'I' for Inactive)
REMARK    1  A    between atoms: O_1  and  C_2 
REMARK    2  A    between atoms: C_3  and  C_4 
REMARK    3  A    between atoms: C_4  and  C_5 
REMARK    4  A    between atoms: C_4  and  C_8 
REMARK    5  A    between atoms: C_12  and  N_13 
REMARK    6  A    between atoms: N_13  and  S_14 
REMARK    7  A    between atoms: S_14  and  C_17 
ROOT
HETATM    1  C   UNK N   1      29.106  23.255  -4.578  0.00  0.00     0.065 C 
ENDROOT
BRANCH   1   2
HETATM    2  C   UNK N   1      28.233  24.531  -4.541  0.00  0.00     0.060 A 
HETATM    3  C   UNK N   1      28.498  25.591  -5.444  0.00  0.00     0.087 A 
HETATM    4  C   UNK N   1      27.652  26.698  -5.481  0.00  0.00     0.006 A 
HETATM    5  C   UNK N   1      26.547  26.744  -4.629  0.00  0.00     0.066 A 
HETATM    6  C   UNK N   1      27.920  27.831  -6.426  0.00  0.00     0.044 C 
HETATM    7  O   UNK N   1      26.353  25.782  -3.737  0.00  0.00    -0.279 OA
HETATM    8  C   UNK N   1      25.560  27.866  -4.690  0.00  0.00     0.066 C 
HETATM    9  C   UNK N   1      27.139  24.728  -3.643  0.00  0.00     0.297 A 
HETATM   10  O   UNK N   1      26.904  23.926  -2.743  0.00  0.00    -0.259 OA
HETATM   11  C   UNK N   1      25.956  29.004  -3.769  0.00  0.00     0.006 C 
HETATM   12  C   UNK N   1      26.954  29.933  -4.445  0.00  0.00     0.000 C 
HETATM   13  C   UNK N   1      28.356  29.343  -4.398  0.00  0.00     0.000 C 
HETATM   14  C   UNK N   1      28.831  28.878  -5.777  0.00  0.00     0.005 C 
BRANCH   3  15
HETATM   15  O   UNK N   1      29.553  25.542  -6.278  0.00  0.00    -0.359 OA
HETATM   16  H   UNK N   1      29.966  26.317  -6.605  0.00  0.00     0.217 HD
ENDBRANCH   3  15
ENDBRANCH   1   2
BRANCH   1  17
HETATM   17  C   UNK N   1      30.583  23.542  -4.228  0.00  0.00    -0.001 A 
HETATM   18  C   UNK N   1      31.017  22.884  -2.921  0.00  0.00     0.006 A 
HETATM   19  C   UNK N   1      30.645  24.344  -2.936  0.00  0.00     0.006 A 
ENDBRANCH   1  17
BRANCH   1  20
HETATM   20  C   UNK N   1      29.114  22.573  -5.920  0.00  0.00    -0.047 A 
HETATM   21  C   UNK N   1      30.285  21.950  -6.394  0.00  0.00     0.008 A 
HETATM   22  C   UNK N   1      30.280  21.273  -7.604  0.00  0.00     0.003 A 
HETATM   23  C   UNK N   1      29.079  21.090  -8.267  0.00  0.00     0.030 A 
HETATM   24  C   UNK N   1      27.889  21.625  -7.761  0.00  0.00     0.043 A 
HETATM   25  C   UNK N   1      27.910  22.386  -6.597  0.00  0.00     0.038 A 
BRANCH  24  26
HETATM   26  N   UNK N   1      26.667  21.071  -8.179  0.00  0.00    -0.281 N 
HETATM   27  H   UNK N   1      26.441  20.126  -8.023  0.00  0.00     0.179 HD
BRANCH  26  28
HETATM   28  S   UNK N   1      25.569  22.168  -9.001  0.00  0.00     0.263 S 
HETATM   29  O   UNK N   1      25.250  21.429 -10.314  0.00  0.00    -0.200 OA
HETATM   30  O   UNK N   1      24.228  22.084  -8.261  0.00  0.00    -0.200 OA
BRANCH  28  31
HETATM   31  C   UNK N   1      26.206  23.803  -9.336  0.00  0.00     0.079 A 
HETATM   32  C   UNK N   1      25.737  24.898  -8.599  0.00  0.00     0.025 A 
HETATM   33  C   UNK N   1      26.176  26.187  -8.898  0.00  0.00     0.002 A 
HETATM   34  C   UNK N   1      27.092  26.385  -9.934  0.00  0.00     0.000 A 
HETATM   35  C   UNK N   1      27.570  25.290 -10.663  0.00  0.00     0.002 A 
HETATM   36  C   UNK N   1      27.122  23.999 -10.368  0.00  0.00     0.025 A 
ENDBRANCH  28  31
ENDBRANCH  26  28
ENDBRANCH  24  26
ENDBRANCH   1  20
TORSDOF 7
ENDMDL
MODEL 6
REMARK VINA RESULT:      -8.5      7.130     13.713
REMARK  7 active torsions:
REMARK  status: ('A' for Active; 'I' for Inactive)
REMARK    1  A    between atoms: O_1  and  C_2 
REMARK    2  A    between atoms: C_3  and  C_4 
REMARK    3  A    between atoms: C_4  and  C_5 
REMARK    4  A    between atoms: C_4  and  C_8 
REMARK    5  A    between atoms: C_12  and  N_13 
REMARK    6  A    between atoms: N_13  and  S_14 
REMARK    7  A    between atoms: S_14  and  C_17 
ROOT
HETATM    1  C   UNK N   1      36.772  12.889  10.038  0.00  0.00     0.065 C 
ENDROOT
BRANCH   1   2
HETATM    2  C   UNK N   1      36.597  13.057  11.565  0.00  0.00     0.060 A 
HETATM    3  C   UNK N   1      36.834  11.956  12.426  0.00  0.00     0.087 A 
HETATM    4  C   UNK N   1      36.776  12.130  13.808  0.00  0.00     0.006 A 
HETATM    5  C   UNK N   1      36.490  13.395  14.327  0.00  0.00     0.066 A 
HETATM    6  C   UNK N   1      37.018  10.975  14.732  0.00  0.00     0.044 C 
HETATM    7  O   UNK N   1      36.196  14.399  13.511  0.00  0.00    -0.279 OA
HETATM    8  C   UNK N   1      36.502  13.656  15.799  0.00  0.00     0.066 C 
HETATM    9  C   UNK N   1      36.210  14.278  12.198  0.00  0.00     0.297 A 
HETATM   10  O   UNK N   1      35.864  15.254  11.538  0.00  0.00    -0.259 OA
HETATM   11  C   UNK N   1      35.138  13.409  16.417  0.00  0.00     0.006 C 
HETATM   12  C   UNK N   1      34.945  11.936  16.747  0.00  0.00     0.000 C 
HETATM   13  C   UNK N   1      34.575  11.150  15.497  0.00  0.00     0.000 C 
HETATM   14  C   UNK N   1      35.712  10.236  15.034  0.00  0.00     0.005 C 
BRANCH   3  15
HETATM   15  O   UNK N   1      37.126  10.740  11.929  0.00  0.00    -0.359 OA
HETATM   16  H   UNK N   1      36.497  10.230  11.456  0.00  0.00     0.217 HD
ENDBRANCH   3  15
ENDBRANCH   1   2
BRANCH   1  17
HETATM   17  C   UNK N   1      37.939  13.735   9.483  0.00  0.00    -0.001 A 
HETATM   18  C   UNK N   1      38.986  12.891   8.760  0.00  0.00     0.006 A 
HETATM   19  C   UNK N   1      39.229  13.329  10.181  0.00  0.00     0.006 A 
ENDBRANCH   1  17
BRANCH   1  20
HETATM   20  C   UNK N   1      35.552  13.281   9.248  0.00  0.00    -0.047 A 
HETATM   21  C   UNK N   1      34.274  12.853   9.654  0.00  0.00     0.008 A 
HETATM   22  C   UNK N   1      33.143  13.258   8.961  0.00  0.00     0.003 A 
HETATM   23  C   UNK N   1      33.273  14.202   7.957  0.00  0.00     0.030 A 
HETATM   24  C   UNK N   1      34.529  14.708   7.603  0.00  0.00     0.043 A 
HETATM   25  C   UNK N   1      35.673  14.229   8.233  0.00  0.00     0.038 A 
BRANCH  24  26
HETATM   26  N   UNK N   1      34.598  15.940   6.932  0.00  0.00    -0.281 N 
HETATM   27  H   UNK N   1      35.025  16.032   6.050  0.00  0.00     0.179 HD
BRANCH  26  28
HETATM   28  S   UNK N   1      33.877  17.309   7.764  0.00  0.00     0.263 S 
HETATM   29  O   UNK N   1      34.259  17.066   9.236  0.00  0.00    -0.200 OA
HETATM   30  O   UNK N   1      34.732  18.534   7.417  0.00  0.00    -0.200 OA
BRANCH  28  31
HETATM   31  C   UNK N   1      32.108  17.482   7.592  0.00  0.00     0.079 A 
HETATM   32  C   UNK N   1      31.351  17.993   8.654  0.00  0.00     0.025 A 
HETATM   33  C   UNK N   1      29.962  18.068   8.556  0.00  0.00     0.002 A 
HETATM   34  C   UNK N   1      29.325  17.637   7.391  0.00  0.00     0.000 A 
HETATM   35  C   UNK N   1      30.081  17.137   6.325  0.00  0.00     0.002 A 
HETATM   36  C   UNK N   1      31.472  17.053   6.427  0.00  0.00     0.025 A 
ENDBRANCH  28  31
ENDBRANCH  26  28
ENDBRANCH  24  26
ENDBRANCH   1  20
TORSDOF 7
ENDMDL
MODEL 7
REMARK VINA RESULT:      -8.4      9.192     13.004
REMARK  7 active torsions:
REMARK  status: ('A' for Active; 'I' for Inactive)
REMARK    1  A    between atoms: O_1  and  C_2 
REMARK    2  A    between atoms: C_3  and  C_4 
REMARK    3  A    between atoms: C_4  and  C_5 
REMARK    4  A    between atoms: C_4  and  C_8 
REMARK    5  A    between atoms: C_12  and  N_13 
REMARK    6  A    between atoms: N_13  and  S_14 
REMARK    7  A    between atoms: S_14  and  C_17 
ROOT
HETATM    1  C   UNK N   1      36.568  13.453  10.745  0.00  0.00     0.065 C 
ENDROOT
BRANCH   1   2
HETATM    2  C   UNK N   1      35.674  14.479  10.012  0.00  0.00     0.060 A 
HETATM    3  C   UNK N   1      34.769  14.037   9.014  0.00  0.00     0.087 A 
HETATM    4  C   UNK N   1      33.890  14.944   8.424  0.00  0.00     0.006 A 
HETATM    5  C   UNK N   1      33.910  16.280   8.830  0.00  0.00     0.066 A 
HETATM    6  C   UNK N   1      32.931  14.495   7.362  0.00  0.00     0.044 C 
HETATM    7  O   UNK N   1      34.812  16.695   9.709  0.00  0.00    -0.279 OA
HETATM    8  C   UNK N   1      32.931  17.274   8.292  0.00  0.00     0.066 C 
HETATM    9  C   UNK N   1      35.682  15.882  10.276  0.00  0.00     0.297 A 
HETATM   10  O   UNK N   1      36.511  16.382  11.031  0.00  0.00    -0.259 OA
HETATM   11  C   UNK N   1      33.456  17.946   7.038  0.00  0.00     0.006 C 
HETATM   12  C   UNK N   1      33.173  17.101   5.804  0.00  0.00     0.000 C 
HETATM   13  C   UNK N   1      34.188  15.973   5.682  0.00  0.00     0.000 C 
HETATM   14  C   UNK N   1      33.565  14.605   5.972  0.00  0.00     0.005 C 
BRANCH   3  15
HETATM   15  O   UNK N   1      34.737  12.747   8.632  0.00  0.00    -0.359 OA
HETATM   16  H   UNK N   1      34.316  12.471   7.841  0.00  0.00     0.217 HD
ENDBRANCH   3  15
ENDBRANCH   1   2
BRANCH   1  17
HETATM   17  C   UNK N   1      37.583  12.775   9.798  0.00  0.00    -0.001 A 
HETATM   18  C   UNK N   1      39.031  13.002  10.227  0.00  0.00     0.006 A 
HETATM   19  C   UNK N   1      38.435  13.843   9.128  0.00  0.00     0.006 A 
ENDBRANCH   1  17
BRANCH   1  20
HETATM   20  C   UNK N   1      35.794  12.341  11.401  0.00  0.00    -0.047 A 
HETATM   21  C   UNK N   1      35.970  11.008  10.982  0.00  0.00     0.008 A 
HETATM   22  C   UNK N   1      35.300   9.976  11.620  0.00  0.00     0.003 A 
HETATM   23  C   UNK N   1      34.572  10.254  12.764  0.00  0.00     0.030 A 
HETATM   24  C   UNK N   1      34.463  11.563  13.248  0.00  0.00     0.043 A 
HETATM   25  C   UNK N   1      35.056  12.612  12.552  0.00  0.00     0.038 A 
BRANCH  24  26
HETATM   26  N   UNK N   1      34.122  11.760  14.596  0.00  0.00    -0.281 N 
HETATM   27  H   UNK N   1      33.188  11.868  14.888  0.00  0.00     0.179 HD
BRANCH  26  28
HETATM   28  S   UNK N   1      35.462  11.803  15.730  0.00  0.00     0.263 S 
HETATM   29  O   UNK N   1      34.930  11.006  16.935  0.00  0.00    -0.200 OA
HETATM   30  O   UNK N   1      36.536  10.856  15.178  0.00  0.00    -0.200 OA
BRANCH  28  31
HETATM   31  C   UNK N   1      36.002  13.428  16.237  0.00  0.00     0.079 A 
HETATM   32  C   UNK N   1      36.884  14.155  15.426  0.00  0.00     0.025 A 
HETATM   33  C   UNK N   1      37.366  15.394  15.844  0.00  0.00     0.002 A 
HETATM   34  C   UNK N   1      36.961  15.916  17.075  0.00  0.00     0.000 A 
HETATM   35  C   UNK N   1      36.070  15.197  17.880  0.00  0.00     0.002 A 
HETATM   36  C   UNK N   1      35.596  13.950  17.464  0.00  0.00     0.025 A 
ENDBRANCH  28  31
ENDBRANCH  26  28
ENDBRANCH  24  26
ENDBRANCH   1  20
TORSDOF 7
ENDMDL
MODEL 8
REMARK VINA RESULT:      -8.4      2.682      4.065
REMARK  7 active torsions:
REMARK  status: ('A' for Active; 'I' for Inactive)
REMARK    1  A    between atoms: O_1  and  C_2 
REMARK    2  A    between atoms: C_3  and  C_4 
REMARK    3  A    between atoms: C_4  and  C_5 
REMARK    4  A    between atoms: C_4  and  C_8 
REMARK    5  A    between atoms: C_12  and  N_13 
REMARK    6  A    between atoms: N_13  and  S_14 
REMARK    7  A    between atoms: S_14  and  C_17 
ROOT
HETATM    1  C   UNK N   1      26.279  19.002   4.792  0.00  0.00     0.065 C 
ENDROOT
BRANCH   1   2
HETATM    2  C   UNK N   1      24.910  19.318   4.147  0.00  0.00     0.060 A 
HETATM    3  C   UNK N   1      23.731  18.733   4.675  0.00  0.00     0.087 A 
HETATM    4  C   UNK N   1      22.487  19.095   4.161  0.00  0.00     0.006 A 
HETATM    5  C   UNK N   1      22.418  20.036   3.132  0.00  0.00     0.066 A 
HETATM    6  C   UNK N   1      21.230  18.482   4.704  0.00  0.00     0.044 C 
HETATM    7  O   UNK N   1      23.532  20.519   2.596  0.00  0.00    -0.279 OA
HETATM    8  C   UNK N   1      21.107  20.524   2.605  0.00  0.00     0.066 C 
HETATM    9  C   UNK N   1      24.733  20.188   3.028  0.00  0.00     0.297 A 
HETATM   10  O   UNK N   1      25.697  20.647   2.422  0.00  0.00    -0.259 OA
HETATM   11  C   UNK N   1      20.614  19.659   1.459  0.00  0.00     0.006 C 
HETATM   12  C   UNK N   1      19.876  18.433   1.976  0.00  0.00     0.000 C 
HETATM   13  C   UNK N   1      20.860  17.363   2.424  0.00  0.00     0.000 C 
HETATM   14  C   UNK N   1      20.878  17.198   3.946  0.00  0.00     0.005 C 
BRANCH   3  15
HETATM   15  O   UNK N   1      23.793  17.837   5.678  0.00  0.00    -0.359 OA
HETATM   16  H   UNK N   1      23.338  17.964   6.487  0.00  0.00     0.217 HD
ENDBRANCH   3  15
ENDBRANCH   1   2
BRANCH   1  17
HETATM   17  C   UNK N   1      27.178  20.252   4.906  0.00  0.00    -0.001 A 
HETATM   18  C   UNK N   1      27.710  20.467   6.321  0.00  0.00     0.006 A 
HETATM   19  C   UNK N   1      26.521  21.259   5.841  0.00  0.00     0.006 A 
ENDBRANCH   1  17
BRANCH   1  20
HETATM   20  C   UNK N   1      27.076  17.975   4.034  0.00  0.00    -0.047 A 
HETATM   21  C   UNK N   1      28.424  17.736   4.365  0.00  0.00     0.008 A 
HETATM   22  C   UNK N   1      29.146  16.752   3.707  0.00  0.00     0.003 A 
HETATM   23  C   UNK N   1      28.487  15.911   2.826  0.00  0.00     0.030 A 
HETATM   24  C   UNK N   1      27.124  16.077   2.557  0.00  0.00     0.043 A 
HETATM   25  C   UNK N   1      26.422  17.125   3.144  0.00  0.00     0.038 A 
BRANCH  24  26
HETATM   26  N   UNK N   1      26.399  14.989   2.041  0.00  0.00    -0.281 N 
HETATM   27  H   UNK N   1      26.078  14.970   1.110  0.00  0.00     0.179 HD
BRANCH  26  28
HETATM   28  S   UNK N   1      26.098  13.668   3.157  0.00  0.00     0.263 S 
HETATM   29  O   UNK N   1      25.150  12.748   2.366  0.00  0.00    -0.200 OA
HETATM   30  O   UNK N   1      27.382  12.830   3.203  0.00  0.00    -0.200 OA
BRANCH  28  31
HETATM   31  C   UNK N   1      25.373  14.122   4.725  0.00  0.00     0.079 A 
HETATM   32  C   UNK N   1      26.200  14.482   5.797  0.00  0.00     0.025 A 
HETATM   33  C   UNK N   1      25.649  14.771   7.045  0.00  0.00     0.002 A 
HETATM   34  C   UNK N   1      24.265  14.708   7.223  0.00  0.00     0.000 A 
HETATM   35  C   UNK N   1      23.437  14.360   6.149  0.00  0.00     0.002 A 
HETATM   36  C   UNK N   1      23.991  14.061   4.902  0.00  0.00     0.025 A 
ENDBRANCH  28  31
ENDBRANCH  26  28
ENDBRANCH  24  26
ENDBRANCH   1  20
TORSDOF 7
ENDMDL
MODEL 9
REMARK VINA RESULT:      -8.3      2.991      8.919
REMARK  7 active torsions:
REMARK  status: ('A' for Active; 'I' for Inactive)
REMARK    1  A    between atoms: O_1  and  C_2 
REMARK    2  A    between atoms: C_3  and  C_4 
REMARK    3  A    between atoms: C_4  and  C_5 
REMARK    4  A    between atoms: C_4  and  C_8 
REMARK    5  A    between atoms: C_12  and  N_13 
REMARK    6  A    between atoms: N_13  and  S_14 
REMARK    7  A    between atoms: S_14  and  C_17 
ROOT
HETATM    1  C   UNK N   1      26.993  18.027   4.063  0.00  0.00     0.065 C 
ENDROOT
BRANCH   1   2
HETATM    2  C   UNK N   1      28.202  17.457   4.840  0.00  0.00     0.060 A 
HETATM    3  C   UNK N   1      28.243  17.563   6.254  0.00  0.00     0.087 A 
HETATM    4  C   UNK N   1      29.281  16.961   6.964  0.00  0.00     0.006 A 
HETATM    5  C   UNK N   1      30.266  16.255   6.271  0.00  0.00     0.066 A 
HETATM    6  C   UNK N   1      29.343  17.068   8.459  0.00  0.00     0.044 C 
HETATM    7  O   UNK N   1      30.257  16.227   4.945  0.00  0.00    -0.279 OA
HETATM    8  C   UNK N   1      31.351  15.518   6.991  0.00  0.00     0.066 C 
HETATM    9  C   UNK N   1      29.314  16.802   4.226  0.00  0.00     0.297 A 
HETATM   10  O   UNK N   1      29.434  16.767   3.005  0.00  0.00    -0.259 OA
HETATM   11  C   UNK N   1      32.559  16.404   7.229  0.00  0.00     0.006 C 
HETATM   12  C   UNK N   1      32.384  17.242   8.487  0.00  0.00     0.000 C 
HETATM   13  C   UNK N   1      31.495  18.445   8.213  0.00  0.00     0.000 C 
HETATM   14  C   UNK N   1      30.125  18.315   8.884  0.00  0.00     0.005 C 
BRANCH   3  15
HETATM   15  O   UNK N   1      27.287  18.229   6.925  0.00  0.00    -0.359 OA
HETATM   16  H   UNK N   1      27.397  18.496   7.817  0.00  0.00     0.217 HD
ENDBRANCH   3  15
ENDBRANCH   1   2
BRANCH   1  17
HETATM   17  C   UNK N   1      26.568  19.421   4.577  0.00  0.00    -0.001 A 
HETATM   18  C   UNK N   1      26.397  20.436   3.450  0.00  0.00     0.006 A 
HETATM   19  C   UNK N   1      27.666  20.427   4.263  0.00  0.00     0.006 A 
ENDBRANCH   1  17
BRANCH   1  20
HETATM   20  C   UNK N   1      25.768  17.157   4.138  0.00  0.00    -0.047 A 
HETATM   21  C   UNK N   1      25.781  15.861   3.585  0.00  0.00     0.008 A 
HETATM   22  C   UNK N   1      24.672  15.037   3.701  0.00  0.00     0.003 A 
HETATM   23  C   UNK N   1      23.611  15.444   4.490  0.00  0.00     0.030 A 
HETATM   24  C   UNK N   1      23.622  16.693   5.123  0.00  0.00     0.043 A 
HETATM   25  C   UNK N   1      24.693  17.560   4.928  0.00  0.00     0.038 A 
BRANCH  24  26
HETATM   26  N   UNK N   1      22.788  16.895   6.235  0.00  0.00    -0.281 N 
HETATM   27  H   UNK N   1      23.044  16.604   7.140  0.00  0.00     0.179 HD
BRANCH  26  28
HETATM   28  S   UNK N   1      21.260  17.697   5.913  0.00  0.00     0.263 S 
HETATM   29  O   UNK N   1      20.216  16.634   6.301  0.00  0.00    -0.200 OA
HETATM   30  O   UNK N   1      21.069  18.742   7.020  0.00  0.00    -0.200 OA
BRANCH  28  31
HETATM   31  C   UNK N   1      21.007  18.245   4.232  0.00  0.00     0.079 A 
HETATM   32  C   UNK N   1      21.587  19.443   3.794  0.00  0.00     0.025 A 
HETATM   33  C   UNK N   1      21.339  19.916   2.506  0.00  0.00     0.002 A 
HETATM   34  C   UNK N   1      20.515  19.186   1.647  0.00  0.00     0.000 A 
HETATM   35  C   UNK N   1      19.944  17.983   2.079  0.00  0.00     0.002 A 
HETATM   36  C   UNK N   1      20.185  17.516   3.373  0.00  0.00     0.025 A 
ENDBRANCH  28  31
ENDBRANCH  26  28
ENDBRANCH  24  26
ENDBRANCH   1  20
TORSDOF 7
ENDMDL
