REMARK  5 active torsions:
REMARK  status: ('A' for Active; 'I' for Inactive)
REMARK    1  A    between atoms: S_2  and  C_3 
REMARK    2  A    between atoms: C_3  and  C_4 
REMARK    3  A    between atoms: C_4  and  C_5 
REMARK    4  A    between atoms: C_5  and  C_7 
REMARK    5  A    between atoms: C_7  and  O_8 
ROOT
HETATM    1  C   UNK N   1       5.017   2.324   0.000  0.00  0.00     0.222 C 
HETATM    2  O   UNK N   1       5.507   3.443   0.000  0.00  0.00    -0.286 OA
ENDROOT
BRANCH   1   3
HETATM    3  C   UNK N   1       3.514   2.224   0.000  0.00  0.00     0.100 C 
BRANCH   3   4
HETATM    4  C   UNK N   1       2.937   0.814  -0.000  0.00  0.00     0.081 C 
BRANCH   4   5
HETATM    5  S   UNK N   1       1.106   0.725   0.000  0.00  0.00    -0.173 SA
HETATM    6  C   UNK N   1       0.723   2.506  -0.000  0.00  0.00     0.089 C 
ENDBRANCH   4   5
ENDBRANCH   3   4
ENDBRANCH   1   3
BRANCH   1   7
HETATM    7  C   UNK N   1       5.933   1.153  -0.000  0.00  0.00     0.213 C 
HETATM    8  O   UNK N   1       5.504   0.010   0.000  0.00  0.00    -0.644 OA
BRANCH   7   9
HETATM    9  O   UNK N   1       7.263   1.353  -0.000  0.00  0.00    -0.771 OA
HETATM   10  H   UNK N   1       7.847   0.621  -0.000  0.00  0.00     0.167 HD
ENDBRANCH   7   9
ENDBRANCH   1   7
TORSDOF 5
