MODEL 1
REMARK VINA RESULT:      -5.1      0.000      0.000
REMARK  6 active torsions:
REMARK  status: ('A' for Active; 'I' for Inactive)
REMARK    1  A    between atoms: O_1  and  S_2 
REMARK    2  A    between atoms: S_2  and  C_5 
REMARK    3  A    between atoms: C_5  and  C_6 
REMARK    4  A    between atoms: C_6  and  C_7 
REMARK    5  A    between atoms: C_7  and  N_8 
REMARK    6  A    between atoms: N_8  and  C_9 
ROOT
HETATM    1  C   UNK N   1      26.571  29.598  -3.289  0.00  0.00     0.115 C 
ENDROOT
BRANCH   1   2
HETATM    2  C   UNK N   1      27.736  30.444  -2.799  0.00  0.00     0.036 C 
BRANCH   2   3
HETATM    3  C   UNK N   1      28.485  29.702  -1.700  0.00  0.00     0.157 C 
BRANCH   3   4
HETATM    4  S   UNK N   1      28.392  30.618  -0.124  0.00  0.00     0.094 S 
HETATM    5  O   UNK N   1      27.669  29.277   0.080  0.00  0.00    -0.601 OA
HETATM    6  O   UNK N   1      29.834  30.115  -0.308  0.00  0.00    -0.601 OA
BRANCH   4   7
HETATM    7  O   UNK N   1      28.879  30.203   1.469  0.00  0.00    -0.296 OA
HETATM    8  H   UNK N   1      29.738  30.469   1.834  0.00  0.00     0.232 HD
ENDBRANCH   4   7
ENDBRANCH   3   4
ENDBRANCH   2   3
ENDBRANCH   1   2
BRANCH   1   9
HETATM    9  N   UNK N   1      26.595  28.292  -2.644  0.00  0.00    -0.417 N 
HETATM   10  H   UNK N   1      27.073  28.070  -1.772  0.00  0.00     0.153 HD
BRANCH   9  11
HETATM   11  C   UNK N   1      25.825  27.350  -3.450  0.00  0.00     0.076 C 
HETATM   12  C   UNK N   1      26.669  26.096  -3.685  0.00  0.00     0.024 C 
HETATM   13  C   UNK N   1      25.933  25.106  -4.587  0.00  0.00     0.002 C 
HETATM   14  C   UNK N   1      25.588  25.764  -5.919  0.00  0.00     0.000 C 
HETATM   15  C   UNK N   1      24.717  26.993  -5.678  0.00  0.00     0.002 C 
HETATM   16  C   UNK N   1      25.461  27.988  -4.794  0.00  0.00     0.024 C 
ENDBRANCH   9  11
ENDBRANCH   1   9
TORSDOF 6
ENDMDL
MODEL 2
REMARK VINA RESULT:      -5.1      5.222      6.106
REMARK  6 active torsions:
REMARK  status: ('A' for Active; 'I' for Inactive)
REMARK    1  A    between atoms: O_1  and  S_2 
REMARK    2  A    between atoms: S_2  and  C_5 
REMARK    3  A    between atoms: C_5  and  C_6 
REMARK    4  A    between atoms: C_6  and  C_7 
REMARK    5  A    between atoms: C_7  and  N_8 
REMARK    6  A    between atoms: N_8  and  C_9 
ROOT
HETATM    1  C   UNK N   1      28.625  24.743  -4.101  0.00  0.00     0.115 C 
ENDROOT
BRANCH   1   2
HETATM    2  C   UNK N   1      29.319  23.983  -2.981  0.00  0.00     0.036 C 
BRANCH   2   3
HETATM    3  C   UNK N   1      29.783  22.625  -3.491  0.00  0.00     0.157 C 
BRANCH   3   4
HETATM    4  S   UNK N   1      31.563  22.388  -3.166  0.00  0.00     0.094 S 
HETATM    5  O   UNK N   1      30.899  22.769  -1.833  0.00  0.00    -0.601 OA
HETATM    6  O   UNK N   1      30.924  21.008  -3.395  0.00  0.00    -0.601 OA
BRANCH   4   7
HETATM    7  O   UNK N   1      32.399  21.371  -2.063  0.00  0.00    -0.296 OA
HETATM    8  H   UNK N   1      31.994  21.058  -1.240  0.00  0.00     0.232 HD
ENDBRANCH   4   7
ENDBRANCH   3   4
ENDBRANCH   2   3
ENDBRANCH   1   2
BRANCH   1   9
HETATM    9  N   UNK N   1      27.334  24.135  -4.395  0.00  0.00    -0.417 N 
HETATM   10  H   UNK N   1      27.180  23.153  -4.622  0.00  0.00     0.153 HD
BRANCH   9  11
HETATM   11  C   UNK N   1      26.297  25.157  -4.313  0.00  0.00     0.076 C 
HETATM   12  C   UNK N   1      25.906  25.579  -5.730  0.00  0.00     0.024 C 
HETATM   13  C   UNK N   1      24.872  26.703  -5.698  0.00  0.00     0.002 C 
HETATM   14  C   UNK N   1      25.419  27.900  -4.925  0.00  0.00     0.000 C 
HETATM   15  C   UNK N   1      25.773  27.478  -3.503  0.00  0.00     0.002 C 
HETATM   16  C   UNK N   1      26.820  26.370  -3.537  0.00  0.00     0.024 C 
ENDBRANCH   9  11
ENDBRANCH   1   9
TORSDOF 6
ENDMDL
MODEL 3
REMARK VINA RESULT:      -5.0     13.702     14.648
REMARK  6 active torsions:
REMARK  status: ('A' for Active; 'I' for Inactive)
REMARK    1  A    between atoms: O_1  and  S_2 
REMARK    2  A    between atoms: S_2  and  C_5 
REMARK    3  A    between atoms: C_5  and  C_6 
REMARK    4  A    between atoms: C_6  and  C_7 
REMARK    5  A    between atoms: C_7  and  N_8 
REMARK    6  A    between atoms: N_8  and  C_9 
ROOT
HETATM    1  C   UNK N   1      30.329  17.229   6.636  0.00  0.00     0.115 C 
ENDROOT
BRANCH   1   2
HETATM    2  C   UNK N   1      31.450  17.283   7.662  0.00  0.00     0.036 C 
BRANCH   2   3
HETATM    3  C   UNK N   1      32.797  17.175   6.958  0.00  0.00     0.157 C 
BRANCH   3   4
HETATM    4  S   UNK N   1      34.155  17.617   8.094  0.00  0.00     0.094 S 
HETATM    5  O   UNK N   1      34.617  17.961   6.668  0.00  0.00    -0.601 OA
HETATM    6  O   UNK N   1      33.028  18.649   8.263  0.00  0.00    -0.601 OA
BRANCH   4   7
HETATM    7  O   UNK N   1      34.996  19.092   8.351  0.00  0.00    -0.296 OA
HETATM    8  H   UNK N   1      35.283  19.658   7.619  0.00  0.00     0.232 HD
ENDBRANCH   4   7
ENDBRANCH   3   4
ENDBRANCH   2   3
ENDBRANCH   1   2
BRANCH   1   9
HETATM    9  N   UNK N   1      29.039  17.150   7.307  0.00  0.00    -0.417 N 
HETATM   10  H   UNK N   1      28.818  16.545   8.098  0.00  0.00     0.153 HD
BRANCH   9  11
HETATM   11  C   UNK N   1      28.111  18.076   6.667  0.00  0.00     0.076 C 
HETATM   12  C   UNK N   1      28.602  18.364   5.247  0.00  0.00     0.024 C 
HETATM   13  C   UNK N   1      27.702  19.388   4.557  0.00  0.00     0.002 C 
HETATM   14  C   UNK N   1      27.655  20.679   5.369  0.00  0.00     0.000 C 
HETATM   15  C   UNK N   1      27.131  20.388   6.772  0.00  0.00     0.002 C 
HETATM   16  C   UNK N   1      28.041  19.381   7.465  0.00  0.00     0.024 C 
ENDBRANCH   9  11
ENDBRANCH   1   9
TORSDOF 6
ENDMDL
MODEL 4
REMARK VINA RESULT:      -4.9     16.357     17.199
REMARK  6 active torsions:
REMARK  status: ('A' for Active; 'I' for Inactive)
REMARK    1  A    between atoms: O_1  and  S_2 
REMARK    2  A    between atoms: S_2  and  C_5 
REMARK    3  A    between atoms: C_5  and  C_6 
REMARK    4  A    between atoms: C_6  and  C_7 
REMARK    5  A    between atoms: C_7  and  N_8 
REMARK    6  A    between atoms: N_8  and  C_9 
ROOT
HETATM    1  C   UNK N   1      34.205  17.745   7.411  0.00  0.00     0.115 C 
ENDROOT
BRANCH   1   2
HETATM    2  C   UNK N   1      34.489  17.736   8.906  0.00  0.00     0.036 C 
BRANCH   2   3
HETATM    3  C   UNK N   1      34.182  16.360   9.480  0.00  0.00     0.157 C 
BRANCH   3   4
HETATM    4  S   UNK N   1      35.420  15.894  10.737  0.00  0.00     0.094 S 
HETATM    5  O   UNK N   1      35.846  15.247   9.409  0.00  0.00    -0.601 OA
HETATM    6  O   UNK N   1      35.622  17.377  10.384  0.00  0.00    -0.601 OA
BRANCH   4   7
HETATM    7  O   UNK N   1      37.125  16.091  10.790  0.00  0.00    -0.296 OA
HETATM    8  H   UNK N   1      37.584  16.771  10.273  0.00  0.00     0.232 HD
ENDBRANCH   4   7
ENDBRANCH   3   4
ENDBRANCH   2   3
ENDBRANCH   1   2
BRANCH   1   9
HETATM    9  N   UNK N   1      34.447  16.424   6.848  0.00  0.00    -0.417 N 
HETATM   10  H   UNK N   1      35.130  15.749   7.192  0.00  0.00     0.153 HD
BRANCH   9  11
HETATM   11  C   UNK N   1      33.557  16.221   5.710  0.00  0.00     0.076 C 
HETATM   12  C   UNK N   1      34.251  15.311   4.695  0.00  0.00     0.024 C 
HETATM   13  C   UNK N   1      33.387  15.127   3.449  0.00  0.00     0.002 C 
HETATM   14  C   UNK N   1      33.080  16.481   2.816  0.00  0.00     0.000 C 
HETATM   15  C   UNK N   1      32.357  17.370   3.823  0.00  0.00     0.002 C 
HETATM   16  C   UNK N   1      33.230  17.568   5.058  0.00  0.00     0.024 C 
ENDBRANCH   9  11
ENDBRANCH   1   9
TORSDOF 6
ENDMDL
MODEL 5
REMARK VINA RESULT:      -4.9     16.360     17.215
REMARK  6 active torsions:
REMARK  status: ('A' for Active; 'I' for Inactive)
REMARK    1  A    between atoms: O_1  and  S_2 
REMARK    2  A    between atoms: S_2  and  C_5 
REMARK    3  A    between atoms: C_5  and  C_6 
REMARK    4  A    between atoms: C_6  and  C_7 
REMARK    5  A    between atoms: C_7  and  N_8 
REMARK    6  A    between atoms: N_8  and  C_9 
ROOT
HETATM    1  C   UNK N   1      32.793  17.906   7.979  0.00  0.00     0.115 C 
ENDROOT
BRANCH   1   2
HETATM    2  C   UNK N   1      34.225  17.638   8.416  0.00  0.00     0.036 C 
BRANCH   2   3
HETATM    3  C   UNK N   1      34.380  16.173   8.802  0.00  0.00     0.157 C 
BRANCH   3   4
HETATM    4  S   UNK N   1      35.155  16.017  10.446  0.00  0.00     0.094 S 
HETATM    5  O   UNK N   1      35.953  15.131   9.476  0.00  0.00    -0.601 OA
HETATM    6  O   UNK N   1      35.498  17.405   9.878  0.00  0.00    -0.601 OA
BRANCH   4   7
HETATM    7  O   UNK N   1      36.765  16.284  10.981  0.00  0.00    -0.296 OA
HETATM    8  H   UNK N   1      37.451  15.600  10.920  0.00  0.00     0.232 HD
ENDBRANCH   4   7
ENDBRANCH   3   4
ENDBRANCH   2   3
ENDBRANCH   1   2
BRANCH   1   9
HETATM    9  N   UNK N   1      31.924  18.003   9.144  0.00  0.00    -0.417 N 
HETATM   10  H   UNK N   1      32.197  18.360  10.059  0.00  0.00     0.153 HD
BRANCH   9  11
HETATM   11  C   UNK N   1      30.599  17.504   8.791  0.00  0.00     0.076 C 
HETATM   12  C   UNK N   1      30.504  17.385   7.269  0.00  0.00     0.024 C 
HETATM   13  C   UNK N   1      29.108  16.935   6.844  0.00  0.00     0.002 C 
HETATM   14  C   UNK N   1      28.059  17.915   7.361  0.00  0.00     0.000 C 
HETATM   15  C   UNK N   1      28.137  18.001   8.882  0.00  0.00     0.002 C 
HETATM   16  C   UNK N   1      29.525  18.469   9.303  0.00  0.00     0.024 C 
ENDBRANCH   9  11
ENDBRANCH   1   9
TORSDOF 6
ENDMDL
MODEL 6
REMARK VINA RESULT:      -4.7     18.498     19.655
REMARK  6 active torsions:
REMARK  status: ('A' for Active; 'I' for Inactive)
REMARK    1  A    between atoms: O_1  and  S_2 
REMARK    2  A    between atoms: S_2  and  C_5 
REMARK    3  A    between atoms: C_5  and  C_6 
REMARK    4  A    between atoms: C_6  and  C_7 
REMARK    5  A    between atoms: C_7  and  N_8 
REMARK    6  A    between atoms: N_8  and  C_9 
ROOT
HETATM    1  C   UNK N   1      22.007  14.579   7.640  0.00  0.00     0.115 C 
ENDROOT
BRANCH   1   2
HETATM    2  C   UNK N   1      21.308  15.908   7.403  0.00  0.00     0.036 C 
BRANCH   2   3
HETATM    3  C   UNK N   1      20.583  16.342   8.669  0.00  0.00     0.157 C 
BRANCH   3   4
HETATM    4  S   UNK N   1      18.991  17.136   8.262  0.00  0.00     0.094 S 
HETATM    5  O   UNK N   1      18.699  16.008   9.265  0.00  0.00    -0.601 OA
HETATM    6  O   UNK N   1      19.791  18.090   9.165  0.00  0.00    -0.601 OA
BRANCH   4   7
HETATM    7  O   UNK N   1      17.787  17.858   9.252  0.00  0.00    -0.296 OA
HETATM    8  H   UNK N   1      17.906  18.730   9.658  0.00  0.00     0.232 HD
ENDBRANCH   4   7
ENDBRANCH   3   4
ENDBRANCH   2   3
ENDBRANCH   1   2
BRANCH   1   9
HETATM    9  N   UNK N   1      21.024  13.513   7.780  0.00  0.00    -0.417 N 
HETATM   10  H   UNK N   1      20.165  13.424   7.238  0.00  0.00     0.153 HD
BRANCH   9  11
HETATM   11  C   UNK N   1      21.465  12.593   8.823  0.00  0.00     0.076 C 
HETATM   12  C   UNK N   1      20.902  13.060  10.166  0.00  0.00     0.024 C 
HETATM   13  C   UNK N   1      21.396  12.169  11.304  0.00  0.00     0.002 C 
HETATM   14  C   UNK N   1      22.921  12.166  11.346  0.00  0.00     0.000 C 
HETATM   15  C   UNK N   1      23.474  11.665  10.015  0.00  0.00     0.002 C 
HETATM   16  C   UNK N   1      22.995  12.568   8.884  0.00  0.00     0.024 C 
ENDBRANCH   9  11
ENDBRANCH   1   9
TORSDOF 6
ENDMDL
MODEL 7
REMARK VINA RESULT:      -4.6     11.786     12.777
REMARK  6 active torsions:
REMARK  status: ('A' for Active; 'I' for Inactive)
REMARK    1  A    between atoms: O_1  and  S_2 
REMARK    2  A    between atoms: S_2  and  C_5 
REMARK    3  A    between atoms: C_5  and  C_6 
REMARK    4  A    between atoms: C_6  and  C_7 
REMARK    5  A    between atoms: C_7  and  N_8 
REMARK    6  A    between atoms: N_8  and  C_9 
ROOT
HETATM    1  C   UNK N   1      23.462  17.603   4.546  0.00  0.00     0.115 C 
ENDROOT
BRANCH   1   2
HETATM    2  C   UNK N   1      22.122  17.781   3.848  0.00  0.00     0.036 C 
BRANCH   2   3
HETATM    3  C   UNK N   1      21.550  19.154   4.175  0.00  0.00     0.157 C 
BRANCH   3   4
HETATM    4  S   UNK N   1      21.099  20.046   2.648  0.00  0.00     0.094 S 
HETATM    5  O   UNK N   1      20.277  20.654   3.797  0.00  0.00    -0.601 OA
HETATM    6  O   UNK N   1      22.510  20.490   3.070  0.00  0.00    -0.601 OA
BRANCH   4   7
HETATM    7  O   UNK N   1      21.132  21.716   2.248  0.00  0.00    -0.296 OA
HETATM    8  H   UNK N   1      21.606  22.368   2.786  0.00  0.00     0.232 HD
ENDBRANCH   4   7
ENDBRANCH   3   4
ENDBRANCH   2   3
ENDBRANCH   1   2
BRANCH   1   9
HETATM    9  N   UNK N   1      24.537  18.110   3.705  0.00  0.00    -0.417 N 
HETATM   10  H   UNK N   1      24.534  18.128   2.686  0.00  0.00     0.153 HD
BRANCH   9  11
HETATM   11  C   UNK N   1      25.623  18.585   4.555  0.00  0.00     0.076 C 
HETATM   12  C   UNK N   1      25.548  20.110   4.646  0.00  0.00     0.024 C 
HETATM   13  C   UNK N   1      26.710  20.664   5.469  0.00  0.00     0.002 C 
HETATM   14  C   UNK N   1      28.040  20.239   4.854  0.00  0.00     0.000 C 
HETATM   15  C   UNK N   1      28.121  18.717   4.800  0.00  0.00     0.002 C 
HETATM   16  C   UNK N   1      26.972  18.167   3.963  0.00  0.00     0.024 C 
ENDBRANCH   9  11
ENDBRANCH   1   9
TORSDOF 6
ENDMDL
MODEL 8
REMARK VINA RESULT:      -4.6     22.336     23.320
REMARK  6 active torsions:
REMARK  status: ('A' for Active; 'I' for Inactive)
REMARK    1  A    between atoms: O_1  and  S_2 
REMARK    2  A    between atoms: S_2  and  C_5 
REMARK    3  A    between atoms: C_5  and  C_6 
REMARK    4  A    between atoms: C_6  and  C_7 
REMARK    5  A    between atoms: C_7  and  N_8 
REMARK    6  A    between atoms: N_8  and  C_9 
ROOT
HETATM    1  C   UNK N   1      35.492  14.065  12.467  0.00  0.00     0.115 C 
ENDROOT
BRANCH   1   2
HETATM    2  C   UNK N   1      36.514  13.968  11.345  0.00  0.00     0.036 C 
BRANCH   2   3
HETATM    3  C   UNK N   1      36.497  15.248  10.521  0.00  0.00     0.157 C 
BRANCH   3   4
HETATM    4  S   UNK N   1      34.884  16.089  10.669  0.00  0.00     0.094 S 
HETATM    5  O   UNK N   1      35.967  17.178  10.606  0.00  0.00    -0.601 OA
HETATM    6  O   UNK N   1      35.003  15.516   9.246  0.00  0.00    -0.601 OA
BRANCH   4   7
HETATM    7  O   UNK N   1      34.121  17.277   9.692  0.00  0.00    -0.296 OA
HETATM    8  H   UNK N   1      33.520  17.943  10.062  0.00  0.00     0.232 HD
ENDBRANCH   4   7
ENDBRANCH   3   4
ENDBRANCH   2   3
ENDBRANCH   1   2
BRANCH   1   9
HETATM    9  N   UNK N   1      36.132  13.815  13.751  0.00  0.00    -0.417 N 
HETATM   10  H   UNK N   1      37.058  14.143  14.026  0.00  0.00     0.153 HD
BRANCH   9  11
HETATM   11  C   UNK N   1      35.236  13.019  14.583  0.00  0.00     0.076 C 
HETATM   12  C   UNK N   1      36.030  12.446  15.758  0.00  0.00     0.024 C 
HETATM   13  C   UNK N   1      35.150  11.543  16.621  0.00  0.00     0.002 C 
HETATM   14  C   UNK N   1      34.571  10.412  15.777  0.00  0.00     0.000 C 
HETATM   15  C   UNK N   1      33.751  10.991  14.628  0.00  0.00     0.002 C 
HETATM   16  C   UNK N   1      34.636  11.877  13.758  0.00  0.00     0.024 C 
ENDBRANCH   9  11
ENDBRANCH   1   9
TORSDOF 6
ENDMDL
MODEL 9
REMARK VINA RESULT:      -4.6     23.433     24.464
REMARK  6 active torsions:
REMARK  status: ('A' for Active; 'I' for Inactive)
REMARK    1  A    between atoms: O_1  and  S_2 
REMARK    2  A    between atoms: S_2  and  C_5 
REMARK    3  A    between atoms: C_5  and  C_6 
REMARK    4  A    between atoms: C_6  and  C_7 
REMARK    5  A    between atoms: C_7  and  N_8 
REMARK    6  A    between atoms: N_8  and  C_9 
ROOT
HETATM    1  C   UNK N   1      36.773  12.049  12.816  0.00  0.00     0.115 C 
ENDROOT
BRANCH   1   2
HETATM    2  C   UNK N   1      36.160  12.627  11.550  0.00  0.00     0.036 C 
BRANCH   2   3
HETATM    3  C   UNK N   1      35.147  13.704  11.914  0.00  0.00     0.157 C 
BRANCH   3   4
HETATM    4  S   UNK N   1      35.362  15.176  10.857  0.00  0.00     0.094 S 
HETATM    5  O   UNK N   1      33.871  15.084  11.219  0.00  0.00    -0.601 OA
HETATM    6  O   UNK N   1      35.952  15.484  12.244  0.00  0.00    -0.601 OA
BRANCH   4   7
HETATM    7  O   UNK N   1      34.965  16.828  11.104  0.00  0.00    -0.296 OA
HETATM    8  H   UNK N   1      34.327  17.296  10.545  0.00  0.00     0.232 HD
ENDBRANCH   4   7
ENDBRANCH   3   4
ENDBRANCH   2   3
ENDBRANCH   1   2
BRANCH   1   9
HETATM    9  N   UNK N   1      37.116  13.120  13.741  0.00  0.00    -0.417 N 
HETATM   10  H   UNK N   1      37.464  14.042  13.478  0.00  0.00     0.153 HD
BRANCH   9  11
HETATM   11  C   UNK N   1      36.884  12.662  15.106  0.00  0.00     0.076 C 
HETATM   12  C   UNK N   1      36.827  11.134  15.113  0.00  0.00     0.024 C 
HETATM   13  C   UNK N   1      36.513  10.606  16.512  0.00  0.00     0.002 C 
HETATM   14  C   UNK N   1      35.189  11.183  17.006  0.00  0.00     0.000 C 
HETATM   15  C   UNK N   1      35.266  12.706  17.030  0.00  0.00     0.002 C 
HETATM   16  C   UNK N   1      35.561  13.231  15.630  0.00  0.00     0.024 C 
ENDBRANCH   9  11
ENDBRANCH   1   9
TORSDOF 6
ENDMDL
