MODEL 1
REMARK VINA RESULT:      -6.1      0.000      0.000
REMARK  11 active torsions:
REMARK  status: ('A' for Active; 'I' for Inactive)
REMARK    1  A    between atoms: C_1  and  O_25 
REMARK    2  A    between atoms: N_16  and  C_11 
REMARK    3  A    between atoms: C_17  and  N_16 
REMARK    4  A    between atoms: C_19  and  C_17 
REMARK    5  A    between atoms: C_20  and  C_19 
REMARK    6  A    between atoms: C_21  and  C_20 
REMARK    7  A    between atoms: N_22  and  C_21 
REMARK    8  A    between atoms: C_23  and  N_22 
REMARK    9  A    between atoms: C_24  and  N_22 
REMARK   10  A    between atoms: C_28  and  C_23 
REMARK   11  A    between atoms: C_30  and  C_24 
ROOT
HETATM    1  C   UNK N   1      26.389  27.535  -3.609  0.00  0.00     0.069 A 
HETATM    2  C   UNK N   1      25.307  27.873  -4.434  0.00  0.00     0.039 A 
HETATM    3  C   UNK N   1      27.168  26.418  -3.923  0.00  0.00     0.052 A 
HETATM    4  C   UNK N   1      25.000  27.090  -5.541  0.00  0.00     0.033 A 
HETATM    5  C   UNK N   1      26.863  25.601  -5.018  0.00  0.00     0.021 A 
HETATM    6  C   UNK N   1      25.755  25.950  -5.830  0.00  0.00     0.045 A 
HETATM    7  C   UNK N   1      26.065  24.037  -7.187  0.00  0.00     0.046 A 
HETATM    8  N   UNK N   1      25.397  25.177  -6.879  0.00  0.00    -0.355 N 
ATOM      9  HN  UNK N   1      24.603  25.458  -7.454  1.00  0.00     0.166 HD
HETATM   10  C   UNK N   1      27.180  23.638  -6.419  0.00  0.00     0.018 A 
HETATM   11  C   UNK N   1      27.604  24.420  -5.329  0.00  0.00     0.053 A 
HETATM   12  C   UNK N   1      26.293  22.073  -8.577  0.00  0.00     0.036 A 
HETATM   13  C   UNK N   1      25.629  23.258  -8.258  0.00  0.00     0.054 A 
HETATM   14  C   UNK N   1      27.400  21.666  -7.827  0.00  0.00     0.025 A 
HETATM   15  C   UNK N   1      27.846  22.446  -6.755  0.00  0.00     0.018 A 
HETATM   16 Cl   UNK N   1      25.725  21.091  -9.909  0.00  0.00    -0.084 Cl
ENDROOT
BRANCH  11  17
HETATM   17  N   UNK N   1      28.753  23.982  -4.588  0.00  0.00    -0.384 N 
HETATM   18  H   UNK N   1      28.667  23.131  -4.101  0.00  0.00     0.160 HD
BRANCH  17  19
HETATM   19  C   UNK N   1      30.023  24.661  -4.484  0.00  0.00     0.077 C 
HETATM   20  C   UNK N   1      30.789  24.505  -5.784  0.00  0.00     0.032 C 
BRANCH  19  21
HETATM   21  C   UNK N   1      30.832  24.099  -3.313  0.00  0.00     0.026 C 
BRANCH  21  22
HETATM   22  C   UNK N   1      30.431  22.679  -2.897  0.00  0.00     0.032 C 
BRANCH  22  23
HETATM   23  C   UNK N   1      31.581  21.669  -2.939  0.00  0.00     0.272 C 
BRANCH  23  24
HETATM   24  N   UNK N   1      31.987  21.405  -4.313  0.00  0.00     0.090 N 
BRANCH  24  25
HETATM   25  C   UNK N   1      30.841  20.809  -4.988  0.00  0.00     0.287 C 
BRANCH  25  26
HETATM   26  C   UNK N   1      31.094  20.697  -6.486  0.00  0.00     0.144 C 
HETATM   27 Cl   UNK N   1      30.121  19.391  -7.202  0.00  0.00    -0.129 Cl
ENDBRANCH  25  26
ENDBRANCH  24  25
BRANCH  24  28
HETATM   28  C   UNK N   1      33.051  20.409  -4.273  0.00  0.00     0.287 C 
BRANCH  28  29
HETATM   29  C   UNK N   1      34.398  21.102  -4.206  0.00  0.00     0.144 C 
HETATM   30 Cl   UNK N   1      34.323  22.614  -5.135  0.00  0.00    -0.129 Cl
ENDBRANCH  28  29
ENDBRANCH  24  28
ENDBRANCH  23  24
ENDBRANCH  22  23
ENDBRANCH  21  22
ENDBRANCH  19  21
ENDBRANCH  17  19
ENDBRANCH  11  17
BRANCH   1  31
HETATM   31  O   UNK N   1      26.672  28.244  -2.494  0.00  0.00    -0.356 OA
HETATM   32  C   UNK N   1      27.660  29.201  -2.455  0.00  0.00     0.210 C 
ENDBRANCH   1  31
TORSDOF 11
ENDMDL
MODEL 2
REMARK VINA RESULT:      -6.0      1.206      2.079
REMARK  11 active torsions:
REMARK  status: ('A' for Active; 'I' for Inactive)
REMARK    1  A    between atoms: C_1  and  O_25 
REMARK    2  A    between atoms: N_16  and  C_11 
REMARK    3  A    between atoms: C_17  and  N_16 
REMARK    4  A    between atoms: C_19  and  C_17 
REMARK    5  A    between atoms: C_20  and  C_19 
REMARK    6  A    between atoms: C_21  and  C_20 
REMARK    7  A    between atoms: N_22  and  C_21 
REMARK    8  A    between atoms: C_23  and  N_22 
REMARK    9  A    between atoms: C_24  and  N_22 
REMARK   10  A    between atoms: C_28  and  C_23 
REMARK   11  A    between atoms: C_30  and  C_24 
ROOT
HETATM    1  C   UNK N   1      26.473  27.785  -3.575  0.00  0.00     0.069 A 
HETATM    2  C   UNK N   1      25.311  28.015  -4.323  0.00  0.00     0.039 A 
HETATM    3  C   UNK N   1      27.298  26.706  -3.903  0.00  0.00     0.052 A 
HETATM    4  C   UNK N   1      24.971  27.163  -5.367  0.00  0.00     0.033 A 
HETATM    5  C   UNK N   1      26.964  25.820  -4.934  0.00  0.00     0.021 A 
HETATM    6  C   UNK N   1      25.775  26.060  -5.667  0.00  0.00     0.045 A 
HETATM    7  C   UNK N   1      26.105  24.108  -6.963  0.00  0.00     0.046 A 
HETATM    8  N   UNK N   1      25.389  25.218  -6.650  0.00  0.00    -0.355 N 
ATOM      9  HN  UNK N   1      24.536  25.420  -7.171  1.00  0.00     0.166 HD
HETATM   10  C   UNK N   1      27.301  23.816  -6.271  0.00  0.00     0.018 A 
HETATM   11  C   UNK N   1      27.755  24.674  -5.253  0.00  0.00     0.053 A 
HETATM   12  C   UNK N   1      26.353  22.098  -8.282  0.00  0.00     0.036 A 
HETATM   13  C   UNK N   1      25.640  23.254  -7.961  0.00  0.00     0.054 A 
HETATM   14  C   UNK N   1      27.540  21.798  -7.607  0.00  0.00     0.025 A 
HETATM   15  C   UNK N   1      28.015  22.654  -6.609  0.00  0.00     0.018 A 
HETATM   16 Cl   UNK N   1      25.750  21.020  -9.521  0.00  0.00    -0.084 Cl
ENDROOT
BRANCH  11  17
HETATM   17  N   UNK N   1      28.985  24.346  -4.589  0.00  0.00    -0.384 N 
HETATM   18  H   UNK N   1      29.780  24.864  -4.851  0.00  0.00     0.160 HD
BRANCH  17  19
HETATM   19  C   UNK N   1      29.178  23.333  -3.578  0.00  0.00     0.077 C 
HETATM   20  C   UNK N   1      28.115  23.481  -2.506  0.00  0.00     0.032 C 
BRANCH  19  21
HETATM   21  C   UNK N   1      30.576  23.451  -2.969  0.00  0.00     0.026 C 
BRANCH  21  22
HETATM   22  C   UNK N   1      31.336  22.122  -2.879  0.00  0.00     0.032 C 
BRANCH  22  23
HETATM   23  C   UNK N   1      30.692  20.980  -3.672  0.00  0.00     0.272 C 
BRANCH  23  24
HETATM   24  N   UNK N   1      31.690  20.277  -4.468  0.00  0.00     0.090 N 
BRANCH  24  25
HETATM   25  C   UNK N   1      32.996  20.645  -3.933  0.00  0.00     0.287 C 
BRANCH  25  26
HETATM   26  C   UNK N   1      34.106  19.890  -4.654  0.00  0.00     0.144 C 
HETATM   27 Cl   UNK N   1      34.232  18.218  -4.060  0.00  0.00    -0.129 Cl
ENDBRANCH  25  26
ENDBRANCH  24  25
BRANCH  24  28
HETATM   28  C   UNK N   1      31.604  20.787  -5.831  0.00  0.00     0.287 C 
BRANCH  28  29
HETATM   29  C   UNK N   1      30.633  19.942  -6.632  0.00  0.00     0.144 C 
HETATM   30 Cl   UNK N   1      30.855  20.275  -8.362  0.00  0.00    -0.129 Cl
ENDBRANCH  28  29
ENDBRANCH  24  28
ENDBRANCH  23  24
ENDBRANCH  22  23
ENDBRANCH  21  22
ENDBRANCH  19  21
ENDBRANCH  17  19
ENDBRANCH  11  17
BRANCH   1  31
HETATM   31  O   UNK N   1      26.795  28.563  -2.517  0.00  0.00    -0.356 OA
HETATM   32  C   UNK N   1      27.934  29.335  -2.483  0.00  0.00     0.210 C 
ENDBRANCH   1  31
TORSDOF 11
ENDMDL
MODEL 3
REMARK VINA RESULT:      -5.8     13.058     15.121
REMARK  11 active torsions:
REMARK  status: ('A' for Active; 'I' for Inactive)
REMARK    1  A    between atoms: C_1  and  O_25 
REMARK    2  A    between atoms: N_16  and  C_11 
REMARK    3  A    between atoms: C_17  and  N_16 
REMARK    4  A    between atoms: C_19  and  C_17 
REMARK    5  A    between atoms: C_20  and  C_19 
REMARK    6  A    between atoms: C_21  and  C_20 
REMARK    7  A    between atoms: N_22  and  C_21 
REMARK    8  A    between atoms: C_23  and  N_22 
REMARK    9  A    between atoms: C_24  and  N_22 
REMARK   10  A    between atoms: C_28  and  C_23 
REMARK   11  A    between atoms: C_30  and  C_24 
ROOT
HETATM    1  C   UNK N   1      23.852  19.933   3.434  0.00  0.00     0.069 A 
HETATM    2  C   UNK N   1      24.810  20.771   2.848  0.00  0.00     0.039 A 
HETATM    3  C   UNK N   1      24.271  18.863   4.230  0.00  0.00     0.052 A 
HETATM    4  C   UNK N   1      26.165  20.525   3.038  0.00  0.00     0.033 A 
HETATM    5  C   UNK N   1      25.630  18.581   4.416  0.00  0.00     0.021 A 
HETATM    6  C   UNK N   1      26.583  19.430   3.800  0.00  0.00     0.045 A 
HETATM    7  C   UNK N   1      28.374  18.115   4.612  0.00  0.00     0.046 A 
HETATM    8  N   UNK N   1      27.906  19.183   3.920  0.00  0.00    -0.355 N 
ATOM      9  HN  UNK N   1      28.571  19.817   3.477  1.00  0.00     0.166 HD
HETATM   10  C   UNK N   1      27.474  17.234   5.252  0.00  0.00     0.018 A 
HETATM   11  C   UNK N   1      26.088  17.460   5.173  0.00  0.00     0.053 A 
HETATM   12  C   UNK N   1      30.245  16.782   5.364  0.00  0.00     0.036 A 
HETATM   13  C   UNK N   1      29.748  17.887   4.672  0.00  0.00     0.054 A 
HETATM   14  C   UNK N   1      29.366  15.903   6.004  0.00  0.00     0.025 A 
HETATM   15  C   UNK N   1      27.987  16.128   5.953  0.00  0.00     0.018 A 
HETATM   16 Cl   UNK N   1      31.970  16.493   5.414  0.00  0.00    -0.084 Cl
ENDROOT
BRANCH  11  17
HETATM   17  N   UNK N   1      25.213  16.548   5.854  0.00  0.00    -0.384 N 
HETATM   18  H   UNK N   1      25.063  16.713   6.813  0.00  0.00     0.160 HD
BRANCH  17  19
HETATM   19  C   UNK N   1      24.532  15.412   5.279  0.00  0.00     0.077 C 
HETATM   20  C   UNK N   1      25.065  15.157   3.882  0.00  0.00     0.032 C 
BRANCH  19  21
HETATM   21  C   UNK N   1      23.023  15.660   5.242  0.00  0.00     0.026 C 
BRANCH  21  22
HETATM   22  C   UNK N   1      22.387  15.872   6.621  0.00  0.00     0.032 C 
BRANCH  22  23
HETATM   23  C   UNK N   1      22.213  14.585   7.432  0.00  0.00     0.272 C 
BRANCH  23  24
HETATM   24  N   UNK N   1      20.906  14.553   8.076  0.00  0.00     0.090 N 
BRANCH  24  25
HETATM   25  C   UNK N   1      20.788  15.777   8.859  0.00  0.00     0.287 C 
BRANCH  25  26
HETATM   26  C   UNK N   1      19.381  16.353   8.754  0.00  0.00     0.144 C 
HETATM   27 Cl   UNK N   1      19.374  18.093   9.123  0.00  0.00    -0.129 Cl
ENDBRANCH  25  26
ENDBRANCH  24  25
BRANCH  24  28
HETATM   28  C   UNK N   1      20.900  13.426   9.002  0.00  0.00     0.287 C 
BRANCH  28  29
HETATM   29  C   UNK N   1      22.112  13.504   9.909  0.00  0.00     0.144 C 
HETATM   30 Cl   UNK N   1      21.972  12.272  11.180  0.00  0.00    -0.129 Cl
ENDBRANCH  28  29
ENDBRANCH  24  28
ENDBRANCH  23  24
ENDBRANCH  22  23
ENDBRANCH  21  22
ENDBRANCH  19  21
ENDBRANCH  17  19
ENDBRANCH  11  17
BRANCH   1  31
HETATM   31  O   UNK N   1      22.531  20.114   3.216  0.00  0.00    -0.356 OA
HETATM   32  C   UNK N   1      21.570  19.282   3.745  0.00  0.00     0.210 C 
ENDBRANCH   1  31
TORSDOF 11
ENDMDL
MODEL 4
REMARK VINA RESULT:      -5.8      2.589      4.016
REMARK  11 active torsions:
REMARK  status: ('A' for Active; 'I' for Inactive)
REMARK    1  A    between atoms: C_1  and  O_25 
REMARK    2  A    between atoms: N_16  and  C_11 
REMARK    3  A    between atoms: C_17  and  N_16 
REMARK    4  A    between atoms: C_19  and  C_17 
REMARK    5  A    between atoms: C_20  and  C_19 
REMARK    6  A    between atoms: C_21  and  C_20 
REMARK    7  A    between atoms: N_22  and  C_21 
REMARK    8  A    between atoms: C_23  and  N_22 
REMARK    9  A    between atoms: C_24  and  N_22 
REMARK   10  A    between atoms: C_28  and  C_23 
REMARK   11  A    between atoms: C_30  and  C_24 
ROOT
HETATM    1  C   UNK N   1      26.330  27.396  -3.666  0.00  0.00     0.069 A 
HETATM    2  C   UNK N   1      25.305  27.783  -4.540  0.00  0.00     0.039 A 
HETATM    3  C   UNK N   1      27.085  26.256  -3.955  0.00  0.00     0.052 A 
HETATM    4  C   UNK N   1      25.028  27.024  -5.672  0.00  0.00     0.033 A 
HETATM    5  C   UNK N   1      26.808  25.463  -5.075  0.00  0.00     0.021 A 
HETATM    6  C   UNK N   1      25.756  25.861  -5.937  0.00  0.00     0.045 A 
HETATM    7  C   UNK N   1      26.069  23.955  -7.302  0.00  0.00     0.046 A 
HETATM    8  N   UNK N   1      25.427  25.114  -7.013  0.00  0.00    -0.355 N 
ATOM      9  HN  UNK N   1      24.674  25.430  -7.625  1.00  0.00     0.166 HD
HETATM   10  C   UNK N   1      27.128  23.506  -6.484  0.00  0.00     0.018 A 
HETATM   11  C   UNK N   1      27.522  24.260  -5.363  0.00  0.00     0.053 A 
HETATM   12  C   UNK N   1      26.299  21.999  -8.705  0.00  0.00     0.036 A 
HETATM   13  C   UNK N   1      25.662  23.204  -8.405  0.00  0.00     0.054 A 
HETATM   14  C   UNK N   1      27.351  21.545  -7.904  0.00  0.00     0.025 A 
HETATM   15  C   UNK N   1      27.768  22.295  -6.801  0.00  0.00     0.018 A 
HETATM   16 Cl   UNK N   1      25.767  21.054 -10.078  0.00  0.00    -0.084 Cl
ENDROOT
BRANCH  11  17
HETATM   17  N   UNK N   1      28.616  23.773  -4.570  0.00  0.00    -0.384 N 
HETATM   18  H   UNK N   1      28.382  23.243  -3.774  0.00  0.00     0.160 HD
BRANCH  17  19
HETATM   19  C   UNK N   1      30.023  23.981  -4.819  0.00  0.00     0.077 C 
HETATM   20  C   UNK N   1      30.786  22.710  -4.497  0.00  0.00     0.032 C 
BRANCH  19  21
HETATM   21  C   UNK N   1      30.544  25.149  -3.979  0.00  0.00     0.026 C 
BRANCH  21  22
HETATM   22  C   UNK N   1      30.773  26.441  -4.773  0.00  0.00     0.032 C 
BRANCH  22  23
HETATM   23  C   UNK N   1      30.610  26.279  -6.288  0.00  0.00     0.272 C 
BRANCH  23  24
HETATM   24  N   UNK N   1      29.556  27.152  -6.790  0.00  0.00     0.090 N 
BRANCH  24  25
HETATM   25  C   UNK N   1      28.975  26.490  -7.952  0.00  0.00     0.287 C 
BRANCH  25  26
HETATM   26  C   UNK N   1      29.793  25.264  -8.340  0.00  0.00     0.144 C 
HETATM   27 Cl   UNK N   1      28.993  24.347  -9.637  0.00  0.00    -0.129 Cl
ENDBRANCH  25  26
ENDBRANCH  24  25
BRANCH  24  28
HETATM   28  C   UNK N   1      30.187  28.385  -7.246  0.00  0.00     0.287 C 
BRANCH  28  29
HETATM   29  C   UNK N   1      29.123  29.421  -7.550  0.00  0.00     0.144 C 
HETATM   30 Cl   UNK N   1      27.975  29.495  -6.197  0.00  0.00    -0.129 Cl
ENDBRANCH  28  29
ENDBRANCH  24  28
ENDBRANCH  23  24
ENDBRANCH  22  23
ENDBRANCH  21  22
ENDBRANCH  19  21
ENDBRANCH  17  19
ENDBRANCH  11  17
BRANCH   1  31
HETATM   31  O   UNK N   1      26.580  28.082  -2.528  0.00  0.00    -0.356 OA
HETATM   32  C   UNK N   1      27.499  29.105  -2.465  0.00  0.00     0.210 C 
ENDBRANCH   1  31
TORSDOF 11
ENDMDL
MODEL 5
REMARK VINA RESULT:      -5.8     13.183     15.196
REMARK  11 active torsions:
REMARK  status: ('A' for Active; 'I' for Inactive)
REMARK    1  A    between atoms: C_1  and  O_25 
REMARK    2  A    between atoms: N_16  and  C_11 
REMARK    3  A    between atoms: C_17  and  N_16 
REMARK    4  A    between atoms: C_19  and  C_17 
REMARK    5  A    between atoms: C_20  and  C_19 
REMARK    6  A    between atoms: C_21  and  C_20 
REMARK    7  A    between atoms: N_22  and  C_21 
REMARK    8  A    between atoms: C_23  and  N_22 
REMARK    9  A    between atoms: C_24  and  N_22 
REMARK   10  A    between atoms: C_28  and  C_23 
REMARK   11  A    between atoms: C_30  and  C_24 
ROOT
HETATM    1  C   UNK N   1      23.672  19.665   3.595  0.00  0.00     0.069 A 
HETATM    2  C   UNK N   1      24.543  20.493   2.874  0.00  0.00     0.039 A 
HETATM    3  C   UNK N   1      24.199  18.691   4.447  0.00  0.00     0.052 A 
HETATM    4  C   UNK N   1      25.919  20.329   2.988  0.00  0.00     0.033 A 
HETATM    5  C   UNK N   1      25.580  18.491   4.560  0.00  0.00     0.021 A 
HETATM    6  C   UNK N   1      26.444  19.327   3.808  0.00  0.00     0.045 A 
HETATM    7  C   UNK N   1      28.352  18.175   4.601  0.00  0.00     0.046 A 
HETATM    8  N   UNK N   1      27.783  19.155   3.855  0.00  0.00    -0.355 N 
ATOM      9  HN  UNK N   1      28.383  19.778   3.315  1.00  0.00     0.166 HD
HETATM   10  C   UNK N   1      27.546  17.312   5.375  0.00  0.00     0.018 A 
HETATM   11  C   UNK N   1      26.147  17.464   5.375  0.00  0.00     0.053 A 
HETATM   12  C   UNK N   1      30.337  17.003   5.328  0.00  0.00     0.036 A 
HETATM   13  C   UNK N   1      29.737  18.019   4.583  0.00  0.00     0.054 A 
HETATM   14  C   UNK N   1      29.551  16.143   6.101  0.00  0.00     0.025 A 
HETATM   15  C   UNK N   1      28.162  16.298   6.128  0.00  0.00     0.018 A 
HETATM   16 Cl   UNK N   1      32.075  16.802   5.281  0.00  0.00    -0.084 Cl
ENDROOT
BRANCH  11  17
HETATM   17  N   UNK N   1      25.369  16.575   6.190  0.00  0.00    -0.384 N 
HETATM   18  H   UNK N   1      25.139  16.892   7.093  0.00  0.00     0.160 HD
BRANCH  17  19
HETATM   19  C   UNK N   1      24.890  15.263   5.824  0.00  0.00     0.077 C 
HETATM   20  C   UNK N   1      23.415  15.340   5.482  0.00  0.00     0.032 C 
BRANCH  19  21
HETATM   21  C   UNK N   1      25.127  14.273   6.967  0.00  0.00     0.026 C 
BRANCH  21  22
HETATM   22  C   UNK N   1      25.178  12.805   6.526  0.00  0.00     0.032 C 
BRANCH  22  23
HETATM   23  C   UNK N   1      23.926  12.001   6.890  0.00  0.00     0.272 C 
BRANCH  23  24
HETATM   24  N   UNK N   1      23.372  12.453   8.160  0.00  0.00     0.090 N 
BRANCH  24  25
HETATM   25  C   UNK N   1      23.850  11.531   9.184  0.00  0.00     0.287 C 
BRANCH  25  26
HETATM   26  C   UNK N   1      24.170  12.276  10.474  0.00  0.00     0.144 C 
HETATM   27 Cl   UNK N   1      22.863  12.080  11.666  0.00  0.00    -0.129 Cl
ENDBRANCH  25  26
ENDBRANCH  24  25
BRANCH  24  28
HETATM   28  C   UNK N   1      21.923  12.321   8.079  0.00  0.00     0.287 C 
BRANCH  28  29
HETATM   29  C   UNK N   1      21.291  13.694   7.956  0.00  0.00     0.144 C 
HETATM   30 Cl   UNK N   1      21.215  14.449   9.561  0.00  0.00    -0.129 Cl
ENDBRANCH  28  29
ENDBRANCH  24  28
ENDBRANCH  23  24
ENDBRANCH  22  23
ENDBRANCH  21  22
ENDBRANCH  19  21
ENDBRANCH  17  19
ENDBRANCH  11  17
BRANCH   1  31
HETATM   31  O   UNK N   1      22.331  19.764   3.456  0.00  0.00    -0.356 OA
HETATM   32  C   UNK N   1      21.741  20.522   2.471  0.00  0.00     0.210 C 
ENDBRANCH   1  31
TORSDOF 11
ENDMDL
MODEL 6
REMARK VINA RESULT:      -5.8      2.963      4.302
REMARK  11 active torsions:
REMARK  status: ('A' for Active; 'I' for Inactive)
REMARK    1  A    between atoms: C_1  and  O_25 
REMARK    2  A    between atoms: N_16  and  C_11 
REMARK    3  A    between atoms: C_17  and  N_16 
REMARK    4  A    between atoms: C_19  and  C_17 
REMARK    5  A    between atoms: C_20  and  C_19 
REMARK    6  A    between atoms: C_21  and  C_20 
REMARK    7  A    between atoms: N_22  and  C_21 
REMARK    8  A    between atoms: C_23  and  N_22 
REMARK    9  A    between atoms: C_24  and  N_22 
REMARK   10  A    between atoms: C_28  and  C_23 
REMARK   11  A    between atoms: C_30  and  C_24 
ROOT
HETATM    1  C   UNK N   1      26.304  27.386  -3.749  0.00  0.00     0.069 A 
HETATM    2  C   UNK N   1      25.247  27.744  -4.597  0.00  0.00     0.039 A 
HETATM    3  C   UNK N   1      27.080  26.265  -4.055  0.00  0.00     0.052 A 
HETATM    4  C   UNK N   1      24.959  26.975  -5.719  0.00  0.00     0.033 A 
HETATM    5  C   UNK N   1      26.795  25.462  -5.166  0.00  0.00     0.021 A 
HETATM    6  C   UNK N   1      25.710  25.830  -6.001  0.00  0.00     0.045 A 
HETATM    7  C   UNK N   1      26.036  23.929  -7.369  0.00  0.00     0.046 A 
HETATM    8  N   UNK N   1      25.372  25.072  -7.066  0.00  0.00    -0.355 N 
ATOM      9  HN  UNK N   1      24.595  25.366  -7.658  1.00  0.00     0.166 HD
HETATM   10  C   UNK N   1      27.128  23.510  -6.578  0.00  0.00     0.018 A 
HETATM   11  C   UNK N   1      27.531  24.277  -5.469  0.00  0.00     0.053 A 
HETATM   12  C   UNK N   1      26.279  21.976  -8.773  0.00  0.00     0.036 A 
HETATM   13  C   UNK N   1      25.620  23.165  -8.459  0.00  0.00     0.054 A 
HETATM   14  C   UNK N   1      27.363  21.551  -8.000  0.00  0.00     0.025 A 
HETATM   15  C   UNK N   1      27.790  22.315  -6.910  0.00  0.00     0.018 A 
HETATM   16 Cl   UNK N   1      25.736  21.013 -10.130  0.00  0.00    -0.084 Cl
ENDROOT
BRANCH  11  17
HETATM   17  N   UNK N   1      28.658  23.821  -4.705  0.00  0.00    -0.384 N 
HETATM   18  H   UNK N   1      28.486  23.106  -4.050  0.00  0.00     0.160 HD
BRANCH  17  19
HETATM   19  C   UNK N   1      30.016  24.302  -4.797  0.00  0.00     0.077 C 
HETATM   20  C   UNK N   1      30.918  23.179  -5.272  0.00  0.00     0.032 C 
BRANCH  19  21
HETATM   21  C   UNK N   1      30.485  24.831  -3.440  0.00  0.00     0.026 C 
BRANCH  21  22
HETATM   22  C   UNK N   1      31.080  26.244  -3.489  0.00  0.00     0.032 C 
BRANCH  22  23
HETATM   23  C   UNK N   1      30.487  27.133  -4.587  0.00  0.00     0.272 C 
BRANCH  23  24
HETATM   24  N   UNK N   1      30.722  28.541  -4.294  0.00  0.00     0.090 N 
BRANCH  24  25
HETATM   25  C   UNK N   1      30.415  29.284  -5.510  0.00  0.00     0.287 C 
BRANCH  25  26
HETATM   26  C   UNK N   1      29.517  28.467  -6.430  0.00  0.00     0.144 C 
HETATM   27 Cl   UNK N   1      27.891  29.180  -6.534  0.00  0.00    -0.129 Cl
ENDBRANCH  25  26
ENDBRANCH  24  25
BRANCH  24  28
HETATM   28  C   UNK N   1      32.145  28.701  -4.018  0.00  0.00     0.287 C 
BRANCH  28  29
HETATM   29  C   UNK N   1      32.336  29.672  -2.869  0.00  0.00     0.144 C 
HETATM   30 Cl   UNK N   1      31.244  29.229  -1.541  0.00  0.00    -0.129 Cl
ENDBRANCH  28  29
ENDBRANCH  24  28
ENDBRANCH  23  24
ENDBRANCH  22  23
ENDBRANCH  21  22
ENDBRANCH  19  21
ENDBRANCH  17  19
ENDBRANCH  11  17
BRANCH   1  31
HETATM   31  O   UNK N   1      26.566  28.081  -2.620  0.00  0.00    -0.356 OA
HETATM   32  C   UNK N   1      27.515  29.076  -2.564  0.00  0.00     0.210 C 
ENDBRANCH   1  31
TORSDOF 11
ENDMDL
MODEL 7
REMARK VINA RESULT:      -5.7     13.158     16.141
REMARK  11 active torsions:
REMARK  status: ('A' for Active; 'I' for Inactive)
REMARK    1  A    between atoms: C_1  and  O_25 
REMARK    2  A    between atoms: N_16  and  C_11 
REMARK    3  A    between atoms: C_17  and  N_16 
REMARK    4  A    between atoms: C_19  and  C_17 
REMARK    5  A    between atoms: C_20  and  C_19 
REMARK    6  A    between atoms: C_21  and  C_20 
REMARK    7  A    between atoms: N_22  and  C_21 
REMARK    8  A    between atoms: C_23  and  N_22 
REMARK    9  A    between atoms: C_24  and  N_22 
REMARK   10  A    between atoms: C_28  and  C_23 
REMARK   11  A    between atoms: C_30  and  C_24 
ROOT
HETATM    1  C   UNK N   1      33.517  15.230   4.221  0.00  0.00     0.069 A 
HETATM    2  C   UNK N   1      33.086  15.727   2.984  0.00  0.00     0.039 A 
HETATM    3  C   UNK N   1      32.783  15.525   5.373  0.00  0.00     0.052 A 
HETATM    4  C   UNK N   1      31.951  16.526   2.908  0.00  0.00     0.033 A 
HETATM    5  C   UNK N   1      31.651  16.348   5.325  0.00  0.00     0.021 A 
HETATM    6  C   UNK N   1      31.241  16.855   4.066  0.00  0.00     0.045 A 
HETATM    7  C   UNK N   1      29.470  18.068   5.061  0.00  0.00     0.046 A 
HETATM    8  N   UNK N   1      30.176  17.680   3.969  0.00  0.00    -0.355 N 
ATOM      9  HN  UNK N   1      29.895  18.021   3.050  1.00  0.00     0.166 HD
HETATM   10  C   UNK N   1      29.826  17.594   6.342  0.00  0.00     0.018 A 
HETATM   11  C   UNK N   1      30.916  16.717   6.493  0.00  0.00     0.053 A 
HETATM   12  C   UNK N   1      27.678  19.376   6.021  0.00  0.00     0.036 A 
HETATM   13  C   UNK N   1      28.402  18.951   4.906  0.00  0.00     0.054 A 
HETATM   14  C   UNK N   1      28.018  18.912   7.295  0.00  0.00     0.025 A 
HETATM   15  C   UNK N   1      29.084  18.022   7.457  0.00  0.00     0.018 A 
HETATM   16 Cl   UNK N   1      26.354  20.501   5.819  0.00  0.00    -0.084 Cl
ENDROOT
BRANCH  11  17
HETATM   17  N   UNK N   1      31.229  16.247   7.813  0.00  0.00    -0.384 N 
HETATM   18  H   UNK N   1      30.752  15.443   8.120  0.00  0.00     0.160 HD
BRANCH  17  19
HETATM   19  C   UNK N   1      32.172  16.832   8.737  0.00  0.00     0.077 C 
HETATM   20  C   UNK N   1      32.912  17.967   8.054  0.00  0.00     0.032 C 
BRANCH  19  21
HETATM   21  C   UNK N   1      33.156  15.772   9.235  0.00  0.00     0.026 C 
BRANCH  21  22
HETATM   22  C   UNK N   1      34.626  16.203   9.179  0.00  0.00     0.032 C 
BRANCH  22  23
HETATM   23  C   UNK N   1      35.228  16.548  10.544  0.00  0.00     0.272 C 
BRANCH  23  24
HETATM   24  N   UNK N   1      36.147  15.505  10.982  0.00  0.00     0.090 N 
BRANCH  24  25
HETATM   25  C   UNK N   1      36.436  14.677   9.817  0.00  0.00     0.287 C 
BRANCH  25  26
HETATM   26  C   UNK N   1      37.916  14.320   9.762  0.00  0.00     0.144 C 
HETATM   27 Cl   UNK N   1      38.251  12.837  10.686  0.00  0.00    -0.129 Cl
ENDBRANCH  25  26
ENDBRANCH  24  25
BRANCH  24  28
HETATM   28  C   UNK N   1      35.443  14.679  11.956  0.00  0.00     0.287 C 
BRANCH  28  29
HETATM   29  C   UNK N   1      36.218  14.652  13.258  0.00  0.00     0.144 C 
HETATM   30 Cl   UNK N   1      35.735  13.224  14.197  0.00  0.00    -0.129 Cl
ENDBRANCH  28  29
ENDBRANCH  24  28
ENDBRANCH  23  24
ENDBRANCH  22  23
ENDBRANCH  21  22
ENDBRANCH  19  21
ENDBRANCH  17  19
ENDBRANCH  11  17
BRANCH   1  31
HETATM   31  O   UNK N   1      34.650  14.501   4.331  0.00  0.00    -0.356 OA
HETATM   32  C   UNK N   1      35.164  13.767   3.286  0.00  0.00     0.210 C 
ENDBRANCH   1  31
TORSDOF 11
ENDMDL
MODEL 8
REMARK VINA RESULT:      -5.7     17.962     22.047
REMARK  11 active torsions:
REMARK  status: ('A' for Active; 'I' for Inactive)
REMARK    1  A    between atoms: C_1  and  O_25 
REMARK    2  A    between atoms: N_16  and  C_11 
REMARK    3  A    between atoms: C_17  and  N_16 
REMARK    4  A    between atoms: C_19  and  C_17 
REMARK    5  A    between atoms: C_20  and  C_19 
REMARK    6  A    between atoms: C_21  and  C_20 
REMARK    7  A    between atoms: N_22  and  C_21 
REMARK    8  A    between atoms: C_23  and  N_22 
REMARK    9  A    between atoms: C_24  and  N_22 
REMARK   10  A    between atoms: C_28  and  C_23 
REMARK   11  A    between atoms: C_30  and  C_24 
ROOT
HETATM    1  C   UNK N   1      34.608  10.391  10.054  0.00  0.00     0.069 A 
HETATM    2  C   UNK N   1      33.708   9.697  10.873  0.00  0.00     0.039 A 
HETATM    3  C   UNK N   1      35.448  11.354  10.620  0.00  0.00     0.052 A 
HETATM    4  C   UNK N   1      33.635   9.981  12.232  0.00  0.00     0.033 A 
HETATM    5  C   UNK N   1      35.375  11.675  11.981  0.00  0.00     0.021 A 
HETATM    6  C   UNK N   1      34.446  10.973  12.789  0.00  0.00     0.045 A 
HETATM    7  C   UNK N   1      35.042  12.246  14.692  0.00  0.00     0.046 A 
HETATM    8  N   UNK N   1      34.313  11.267  14.101  0.00  0.00    -0.355 N 
ATOM      9  HN  UNK N   1      33.645  10.738  14.662  1.00  0.00     0.166 HD
HETATM   10  C   UNK N   1      35.987  12.979  13.942  0.00  0.00     0.018 A 
HETATM   11  C   UNK N   1      36.177  12.697  12.576  0.00  0.00     0.053 A 
HETATM   12  C   UNK N   1      35.564  13.550  16.660  0.00  0.00     0.036 A 
HETATM   13  C   UNK N   1      34.837  12.532  16.041  0.00  0.00     0.054 A 
HETATM   14  C   UNK N   1      36.505  14.281  15.930  0.00  0.00     0.025 A 
HETATM   15  C   UNK N   1      36.720  13.996  14.578  0.00  0.00     0.018 A 
HETATM   16 Cl   UNK N   1      35.283  13.915  18.347  0.00  0.00    -0.084 Cl
ENDROOT
BRANCH  11  17
HETATM   17  N   UNK N   1      37.162  13.456  11.859  0.00  0.00    -0.384 N 
HETATM   18  H   UNK N   1      38.080  13.435  12.214  0.00  0.00     0.160 HD
BRANCH  17  19
HETATM   19  C   UNK N   1      36.946  14.247  10.670  0.00  0.00     0.077 C 
HETATM   20  C   UNK N   1      38.209  14.253   9.831  0.00  0.00     0.032 C 
BRANCH  19  21
HETATM   21  C   UNK N   1      36.544  15.674  11.048  0.00  0.00     0.026 C 
BRANCH  21  22
HETATM   22  C   UNK N   1      35.032  15.928  11.021  0.00  0.00     0.032 C 
BRANCH  22  23
HETATM   23  C   UNK N   1      34.462  16.158   9.618  0.00  0.00     0.272 C 
BRANCH  23  24
HETATM   24  N   UNK N   1      33.265  15.354   9.408  0.00  0.00     0.090 N 
BRANCH  24  25
HETATM   25  C   UNK N   1      33.687  14.132   8.735  0.00  0.00     0.287 C 
BRANCH  25  26
HETATM   26  C   UNK N   1      34.702  14.440   7.642  0.00  0.00     0.144 C 
HETATM   27 Cl   UNK N   1      35.796  13.063   7.379  0.00  0.00    -0.129 Cl
ENDBRANCH  25  26
ENDBRANCH  24  25
BRANCH  24  28
HETATM   28  C   UNK N   1      32.396  16.090   8.498  0.00  0.00     0.287 C 
BRANCH  28  29
HETATM   29  C   UNK N   1      32.898  17.514   8.352  0.00  0.00     0.144 C 
HETATM   30 Cl   UNK N   1      33.436  17.775   6.679  0.00  0.00    -0.129 Cl
ENDBRANCH  28  29
ENDBRANCH  24  28
ENDBRANCH  23  24
ENDBRANCH  22  23
ENDBRANCH  21  22
ENDBRANCH  19  21
ENDBRANCH  17  19
ENDBRANCH  11  17
BRANCH   1  31
HETATM   31  O   UNK N   1      34.657  10.177   8.721  0.00  0.00    -0.356 OA
HETATM   32  C   UNK N   1      35.247   9.063   8.169  0.00  0.00     0.210 C 
ENDBRANCH   1  31
TORSDOF 11
ENDMDL
MODEL 9
REMARK VINA RESULT:      -5.7     13.433     15.101
REMARK  11 active torsions:
REMARK  status: ('A' for Active; 'I' for Inactive)
REMARK    1  A    between atoms: C_1  and  O_25 
REMARK    2  A    between atoms: N_16  and  C_11 
REMARK    3  A    between atoms: C_17  and  N_16 
REMARK    4  A    between atoms: C_19  and  C_17 
REMARK    5  A    between atoms: C_20  and  C_19 
REMARK    6  A    between atoms: C_21  and  C_20 
REMARK    7  A    between atoms: N_22  and  C_21 
REMARK    8  A    between atoms: C_23  and  N_22 
REMARK    9  A    between atoms: C_24  and  N_22 
REMARK   10  A    between atoms: C_28  and  C_23 
REMARK   11  A    between atoms: C_30  and  C_24 
ROOT
HETATM    1  C   UNK N   1      20.011  15.921   7.797  0.00  0.00     0.069 A 
HETATM    2  C   UNK N   1      20.831  14.855   8.191  0.00  0.00     0.039 A 
HETATM    3  C   UNK N   1      20.473  16.824   6.837  0.00  0.00     0.052 A 
HETATM    4  C   UNK N   1      22.103  14.713   7.646  0.00  0.00     0.033 A 
HETATM    5  C   UNK N   1      21.758  16.716   6.293  0.00  0.00     0.021 A 
HETATM    6  C   UNK N   1      22.580  15.642   6.717  0.00  0.00     0.045 A 
HETATM    7  C   UNK N   1      24.374  16.400   5.375  0.00  0.00     0.046 A 
HETATM    8  N   UNK N   1      23.839  15.510   6.248  0.00  0.00    -0.355 N 
ATOM      9  HN  UNK N   1      24.405  14.720   6.560  1.00  0.00     0.166 HD
HETATM   10  C   UNK N   1      23.605  17.490   4.912  0.00  0.00     0.018 A 
HETATM   11  C   UNK N   1      22.281  17.659   5.355  0.00  0.00     0.053 A 
HETATM   12  C   UNK N   1      26.264  17.154   4.070  0.00  0.00     0.036 A 
HETATM   13  C   UNK N   1      25.693  16.236   4.953  0.00  0.00     0.054 A 
HETATM   14  C   UNK N   1      25.514  18.236   3.602  0.00  0.00     0.025 A 
HETATM   15  C   UNK N   1      24.189  18.403   4.016  0.00  0.00     0.018 A 
HETATM   16 Cl   UNK N   1      27.927  16.951   3.564  0.00  0.00    -0.084 Cl
ENDROOT
BRANCH  11  17
HETATM   17  N   UNK N   1      21.532  18.772   4.843  0.00  0.00    -0.384 N 
HETATM   18  H   UNK N   1      21.377  19.522   5.462  0.00  0.00     0.160 HD
BRANCH  17  19
HETATM   19  C   UNK N   1      20.983  18.906   3.515  0.00  0.00     0.077 C 
HETATM   20  C   UNK N   1      20.484  20.324   3.315  0.00  0.00     0.032 C 
BRANCH  19  21
HETATM   21  C   UNK N   1      19.847  17.902   3.306  0.00  0.00     0.026 C 
BRANCH  21  22
HETATM   22  C   UNK N   1      20.200  16.741   2.368  0.00  0.00     0.032 C 
BRANCH  22  23
HETATM   23  C   UNK N   1      20.358  15.392   3.078  0.00  0.00     0.272 C 
BRANCH  23  24
HETATM   24  N   UNK N   1      21.267  14.524   2.341  0.00  0.00     0.090 N 
BRANCH  24  25
HETATM   25  C   UNK N   1      22.586  15.141   2.401  0.00  0.00     0.287 C 
BRANCH  25  26
HETATM   26  C   UNK N   1      23.681  14.094   2.241  0.00  0.00     0.144 C 
HETATM   27 Cl   UNK N   1      25.159  14.813   1.561  0.00  0.00    -0.129 Cl
ENDBRANCH  25  26
ENDBRANCH  24  25
BRANCH  24  28
HETATM   28  C   UNK N   1      20.837  14.519   0.947  0.00  0.00     0.287 C 
BRANCH  28  29
HETATM   29  C   UNK N   1      19.976  13.299   0.683  0.00  0.00     0.144 C 
HETATM   30 Cl   UNK N   1      18.342  13.824   0.228  0.00  0.00    -0.129 Cl
ENDBRANCH  28  29
ENDBRANCH  24  28
ENDBRANCH  23  24
ENDBRANCH  22  23
ENDBRANCH  21  22
ENDBRANCH  19  21
ENDBRANCH  17  19
ENDBRANCH  11  17
BRANCH   1  31
HETATM   31  O   UNK N   1      18.795  16.116   8.355  0.00  0.00    -0.356 OA
HETATM   32  C   UNK N   1      18.455  17.281   9.005  0.00  0.00     0.210 C 
ENDBRANCH   1  31
TORSDOF 11
ENDMDL
