REMARK  11 active torsions:
REMARK  status: ('A' for Active; 'I' for Inactive)
REMARK    1  A    between atoms: C_3  and  C_1 
REMARK    2  A    between atoms: C_4  and  C_2 
REMARK    3  A    between atoms: O_13  and  C_2 
REMARK    4  A    between atoms: C_5  and  C_3 
REMARK    5  A    between atoms: C_3  and  O_7 
REMARK    6  A    between atoms: C_5  and  C_4 
REMARK    7  A    between atoms: C_4  and  O_8 
REMARK    8  A    between atoms: C_5  and  O_9 
REMARK    9  A    between atoms: P_14  and  O_10 
REMARK   10  A    between atoms: P_14  and  O_11 
REMARK   11  A    between atoms: P_14  and  O_13 
ROOT
HETATM    1  C   UNK N   1       1.165  -0.710   0.555  0.00  0.00     0.174 C 
ENDROOT
BRANCH   1   2
HETATM    2  C   UNK N   1       2.451  -0.374  -0.192  0.00  0.00     0.215 C 
BRANCH   2   3
HETATM    3  O   UNK N   1       3.552  -0.636   0.629  0.00  0.00    -0.294 OA
BRANCH   3   4
HETATM    4  P   UNK N   1       4.945   0.027  -0.181  0.00  0.00     0.390 P 
HETATM    5  O   UNK N   1       4.569   1.408  -0.788  0.00  0.00    -0.632 OA
BRANCH   4   6
HETATM    6  O   UNK N   1       6.225   0.321   0.954  0.00  0.00    -0.307 OA
HETATM    7  H   UNK N   1       6.725  -0.216   1.588  0.00  0.00     0.222 HD
ENDBRANCH   4   6
BRANCH   4   8
HETATM    8  O   UNK N   1       5.492  -0.993  -1.474  0.00  0.00    -0.307 OA
HETATM    9  H   UNK N   1       5.152  -1.543  -2.197  0.00  0.00     0.222 HD
ENDBRANCH   4   8
ENDBRANCH   3   4
ENDBRANCH   2   3
ENDBRANCH   1   2
BRANCH   1  10
HETATM   10  C   UNK N   1      -0.078  -0.311  -0.267  0.00  0.00     0.184 C 
BRANCH  10  11
HETATM   11  C   UNK N   1      -1.393  -0.596   0.495  0.00  0.00     0.210 C 
BRANCH  11  12
HETATM   12  C   UNK N   1      -2.592  -0.167  -0.300  0.00  0.00     0.265 C 
HETATM   13  O   UNK N   1      -2.839  -0.675  -1.381  0.00  0.00    -0.304 OA
ENDBRANCH  11  12
BRANCH  11  14
HETATM   14  O   UNK N   1      -1.515  -1.957   0.784  0.00  0.00    -0.386 OA
HETATM   15  H   UNK N   1      -2.376  -2.357   0.985  0.00  0.00     0.210 HD
ENDBRANCH  11  14
ENDBRANCH  10  11
BRANCH  10  16
HETATM   16  O   UNK N   1      -0.010   1.057  -0.556  0.00  0.00    -0.390 OA
HETATM   17  H   UNK N   1       0.834   1.490  -0.757  0.00  0.00     0.210 HD
ENDBRANCH  10  16
ENDBRANCH   1  10
BRANCH   1  18
HETATM   18  O   UNK N   1       1.154  -2.081   0.824  0.00  0.00    -0.391 OA
HETATM   19  H   UNK N   1       0.326  -2.551   1.011  0.00  0.00     0.210 HD
ENDBRANCH   1  18
TORSDOF 11
