MODEL 1
REMARK VINA RESULT:      -4.2      0.000      0.000
REMARK  7 active torsions:
REMARK  status: ('A' for Active; 'I' for Inactive)
REMARK    1  A    between atoms: C_2  and  C_3 
REMARK    2  A    between atoms: C_3  and  C_4 
REMARK    3  A    between atoms: C_4  and  C_5 
REMARK    4  A    between atoms: C_5  and  N_6 
REMARK    5  A    between atoms: C_5  and  P_7 
REMARK    6  A    between atoms: P_7  and  O_8 
REMARK    7  A    between atoms: P_7  and  O_9 
ROOT
HETATM    1  C   UNK N   1      19.890  19.787   2.919  0.00  0.00     0.186 C 
ENDROOT
BRANCH   1   2
HETATM    2  C   UNK N   1      20.805  18.922   3.771  0.00  0.00     0.037 C 
BRANCH   2   3
HETATM    3  C   UNK N   1      20.359  17.470   3.689  0.00  0.00     0.002 C 
BRANCH   3   4
HETATM    4  C   UNK N   1      21.386  16.632   2.953  0.00  0.00    -0.004 C 
HETATM    5  C   UNK N   1      20.774  16.042   1.696  0.00  0.00     0.005 C 
ENDBRANCH   3   4
ENDBRANCH   2   3
ENDBRANCH   1   2
BRANCH   1   6
HETATM    6  N   UNK N   1      18.772  18.991   2.445  0.00  0.00    -0.417 N 
HETATM    7  H   UNK N   1      17.784  19.194   2.588  0.00  0.00     0.150 HD
HETATM    8  H   UNK N   1      18.998  18.146   1.917  0.00  0.00     0.150 HD
ENDBRANCH   1   6
BRANCH   1   9
HETATM    9  P   UNK N   1      20.784  20.518   1.455  0.00  0.00     0.258 P 
HETATM   10  O   UNK N   1      22.320  20.540   1.690  0.00  0.00    -0.652 OA
BRANCH   9  11
HETATM   11  O   UNK N   1      20.592  19.664  -0.043  0.00  0.00    -0.328 OA
HETATM   12  H   UNK N   1      20.185  18.969  -0.585  0.00  0.00     0.220 HD
ENDBRANCH   9  11
BRANCH   9  13
HETATM   13  O   UNK N   1      20.391  22.180   1.141  0.00  0.00    -0.328 OA
HETATM   14  H   UNK N   1      19.566  22.679   1.041  0.00  0.00     0.220 HD
ENDBRANCH   9  13
ENDBRANCH   1   9
TORSDOF 7
ENDMDL
MODEL 2
REMARK VINA RESULT:      -4.1     20.189     20.998
REMARK  7 active torsions:
REMARK  status: ('A' for Active; 'I' for Inactive)
REMARK    1  A    between atoms: C_2  and  C_3 
REMARK    2  A    between atoms: C_3  and  C_4 
REMARK    3  A    between atoms: C_4  and  C_5 
REMARK    4  A    between atoms: C_5  and  N_6 
REMARK    5  A    between atoms: C_5  and  P_7 
REMARK    6  A    between atoms: P_7  and  O_8 
REMARK    7  A    between atoms: P_7  and  O_9 
ROOT
HETATM    1  C   UNK N   1      36.422  13.355  14.936  0.00  0.00     0.186 C 
ENDROOT
BRANCH   1   2
HETATM    2  C   UNK N   1      35.146  13.235  15.752  0.00  0.00     0.037 C 
BRANCH   2   3
HETATM    3  C   UNK N   1      35.427  12.467  17.035  0.00  0.00     0.002 C 
BRANCH   3   4
HETATM    4  C   UNK N   1      35.149  13.330  18.251  0.00  0.00    -0.004 C 
HETATM    5  C   UNK N   1      35.308  12.511  19.518  0.00  0.00     0.005 C 
ENDBRANCH   3   4
ENDBRANCH   2   3
ENDBRANCH   1   2
BRANCH   1   6
HETATM    6  N   UNK N   1      37.229  14.445  15.456  0.00  0.00    -0.417 N 
HETATM    7  H   UNK N   1      36.881  15.301  15.884  0.00  0.00     0.150 HD
HETATM    8  H   UNK N   1      38.242  14.343  15.384  0.00  0.00     0.150 HD
ENDBRANCH   1   6
BRANCH   1   9
HETATM    9  P   UNK N   1      36.072  13.662  13.130  0.00  0.00     0.258 P 
HETATM   10  O   UNK N   1      36.964  12.765  12.227  0.00  0.00    -0.652 OA
BRANCH   9  11
HETATM   11  O   UNK N   1      34.453  13.315  12.611  0.00  0.00    -0.328 OA
HETATM   12  H   UNK N   1      33.803  12.758  12.153  0.00  0.00     0.220 HD
ENDBRANCH   9  11
BRANCH   9  13
HETATM   13  O   UNK N   1      36.436  15.274  12.601  0.00  0.00    -0.328 OA
HETATM   14  H   UNK N   1      37.100  15.666  12.014  0.00  0.00     0.220 HD
ENDBRANCH   9  13
ENDBRANCH   1   9
TORSDOF 7
ENDMDL
MODEL 3
REMARK VINA RESULT:      -4.0     14.205     15.052
REMARK  7 active torsions:
REMARK  status: ('A' for Active; 'I' for Inactive)
REMARK    1  A    between atoms: C_2  and  C_3 
REMARK    2  A    between atoms: C_3  and  C_4 
REMARK    3  A    between atoms: C_4  and  C_5 
REMARK    4  A    between atoms: C_5  and  N_6 
REMARK    5  A    between atoms: C_5  and  P_7 
REMARK    6  A    between atoms: P_7  and  O_8 
REMARK    7  A    between atoms: P_7  and  O_9 
ROOT
HETATM    1  C   UNK N   1      34.776  16.483   9.278  0.00  0.00     0.186 C 
ENDROOT
BRANCH   1   2
HETATM    2  C   UNK N   1      33.711  15.401   9.211  0.00  0.00     0.037 C 
BRANCH   2   3
HETATM    3  C   UNK N   1      34.063  14.402   8.120  0.00  0.00     0.002 C 
BRANCH   3   4
HETATM    4  C   UNK N   1      32.815  13.924   7.404  0.00  0.00    -0.004 C 
HETATM    5  C   UNK N   1      31.887  15.094   7.134  0.00  0.00     0.005 C 
ENDBRANCH   3   4
ENDBRANCH   2   3
ENDBRANCH   1   2
BRANCH   1   6
HETATM    6  N   UNK N   1      34.934  16.925  10.653  0.00  0.00    -0.417 N 
HETATM    7  H   UNK N   1      34.284  16.753  11.418  0.00  0.00     0.150 HD
HETATM    8  H   UNK N   1      35.776  17.458  10.872  0.00  0.00     0.150 HD
ENDBRANCH   1   6
BRANCH   1   9
HETATM    9  P   UNK N   1      34.349  17.952   8.211  0.00  0.00     0.258 P 
HETATM   10  O   UNK N   1      34.608  17.646   6.709  0.00  0.00    -0.652 OA
BRANCH   9  11
HETATM   11  O   UNK N   1      32.691  18.460   8.264  0.00  0.00    -0.328 OA
HETATM   12  H   UNK N   1      31.982  19.028   8.606  0.00  0.00     0.220 HD
ENDBRANCH   9  11
BRANCH   9  13
HETATM   13  O   UNK N   1      35.318  19.359   8.519  0.00  0.00    -0.328 OA
HETATM   14  H   UNK N   1      35.881  19.932   7.977  0.00  0.00     0.220 HD
ENDBRANCH   9  13
ENDBRANCH   1   9
TORSDOF 7
ENDMDL
MODEL 4
REMARK VINA RESULT:      -4.0     18.036     18.861
REMARK  7 active torsions:
REMARK  status: ('A' for Active; 'I' for Inactive)
REMARK    1  A    between atoms: C_2  and  C_3 
REMARK    2  A    between atoms: C_3  and  C_4 
REMARK    3  A    between atoms: C_4  and  C_5 
REMARK    4  A    between atoms: C_5  and  N_6 
REMARK    5  A    between atoms: C_5  and  P_7 
REMARK    6  A    between atoms: P_7  and  O_8 
REMARK    7  A    between atoms: P_7  and  O_9 
ROOT
HETATM    1  C   UNK N   1      36.049  14.217  11.684  0.00  0.00     0.186 C 
ENDROOT
BRANCH   1   2
HETATM    2  C   UNK N   1      36.184  14.607  13.147  0.00  0.00     0.037 C 
BRANCH   2   3
HETATM    3  C   UNK N   1      35.649  13.488  14.027  0.00  0.00     0.002 C 
BRANCH   3   4
HETATM    4  C   UNK N   1      36.268  13.548  15.410  0.00  0.00    -0.004 C 
HETATM    5  C   UNK N   1      37.135  14.786  15.541  0.00  0.00     0.005 C 
ENDBRANCH   3   4
ENDBRANCH   2   3
ENDBRANCH   1   2
BRANCH   1   6
HETATM    6  N   UNK N   1      37.343  14.324  11.032  0.00  0.00    -0.417 N 
HETATM    7  H   UNK N   1      37.698  13.715  10.296  0.00  0.00     0.150 HD
HETATM    8  H   UNK N   1      37.954  15.080  11.341  0.00  0.00     0.150 HD
ENDBRANCH   1   6
BRANCH   1   9
HETATM    9  P   UNK N   1      34.821  15.293  10.783  0.00  0.00     0.258 P 
HETATM   10  O   UNK N   1      34.952  15.123   9.244  0.00  0.00    -0.652 OA
BRANCH   9  11
HETATM   11  O   UNK N   1      33.150  14.958  11.110  0.00  0.00    -0.328 OA
HETATM   12  H   UNK N   1      32.344  14.431  10.987  0.00  0.00     0.220 HD
ENDBRANCH   9  11
BRANCH   9  13
HETATM   13  O   UNK N   1      35.052  16.995  11.032  0.00  0.00    -0.328 OA
HETATM   14  H   UNK N   1      35.458  17.534  11.728  0.00  0.00     0.220 HD
ENDBRANCH   9  13
ENDBRANCH   1   9
TORSDOF 7
ENDMDL
MODEL 5
REMARK VINA RESULT:      -4.0     14.435     14.985
REMARK  7 active torsions:
REMARK  status: ('A' for Active; 'I' for Inactive)
REMARK    1  A    between atoms: C_2  and  C_3 
REMARK    2  A    between atoms: C_3  and  C_4 
REMARK    3  A    between atoms: C_4  and  C_5 
REMARK    4  A    between atoms: C_5  and  N_6 
REMARK    5  A    between atoms: C_5  and  P_7 
REMARK    6  A    between atoms: P_7  and  O_8 
REMARK    7  A    between atoms: P_7  and  O_9 
ROOT
HETATM    1  C   UNK N   1      32.998  16.750   8.500  0.00  0.00     0.186 C 
ENDROOT
BRANCH   1   2
HETATM    2  C   UNK N   1      33.693  17.833   7.691  0.00  0.00     0.037 C 
BRANCH   2   3
HETATM    3  C   UNK N   1      33.854  17.373   6.250  0.00  0.00     0.002 C 
BRANCH   3   4
HETATM    4  C   UNK N   1      32.510  17.314   5.551  0.00  0.00    -0.004 C 
HETATM    5  C   UNK N   1      32.687  17.537   4.061  0.00  0.00     0.005 C 
ENDBRANCH   3   4
ENDBRANCH   2   3
ENDBRANCH   1   2
BRANCH   1   6
HETATM    6  N   UNK N   1      31.812  17.302   9.132  0.00  0.00    -0.417 N 
HETATM    7  H   UNK N   1      31.786  18.090   9.777  0.00  0.00     0.150 HD
HETATM    8  H   UNK N   1      30.921  16.857   8.908  0.00  0.00     0.150 HD
ENDBRANCH   1   6
BRANCH   1   9
HETATM    9  P   UNK N   1      34.112  16.034   9.813  0.00  0.00     0.258 P 
HETATM   10  O   UNK N   1      35.180  15.093   9.189  0.00  0.00    -0.652 OA
BRANCH   9  11
HETATM   11  O   UNK N   1      35.037  17.187  10.722  0.00  0.00    -0.328 OA
HETATM   12  H   UNK N   1      35.668  17.923  10.779  0.00  0.00     0.220 HD
ENDBRANCH   9  11
BRANCH   9  13
HETATM   13  O   UNK N   1      33.294  15.025  10.965  0.00  0.00    -0.328 OA
HETATM   14  H   UNK N   1      32.966  15.147  11.868  0.00  0.00     0.220 HD
ENDBRANCH   9  13
ENDBRANCH   1   9
TORSDOF 7
ENDMDL
MODEL 6
REMARK VINA RESULT:      -4.0     18.895     19.652
REMARK  7 active torsions:
REMARK  status: ('A' for Active; 'I' for Inactive)
REMARK    1  A    between atoms: C_2  and  C_3 
REMARK    2  A    between atoms: C_3  and  C_4 
REMARK    3  A    between atoms: C_4  and  C_5 
REMARK    4  A    between atoms: C_5  and  N_6 
REMARK    5  A    between atoms: C_5  and  P_7 
REMARK    6  A    between atoms: P_7  and  O_8 
REMARK    7  A    between atoms: P_7  and  O_9 
ROOT
HETATM    1  C   UNK N   1      36.419  13.983  13.128  0.00  0.00     0.186 C 
ENDROOT
BRANCH   1   2
HETATM    2  C   UNK N   1      35.353  13.137  13.803  0.00  0.00     0.037 C 
BRANCH   2   3
HETATM    3  C   UNK N   1      35.769  12.833  15.233  0.00  0.00     0.002 C 
BRANCH   3   4
HETATM    4  C   UNK N   1      34.611  13.048  16.189  0.00  0.00    -0.004 C 
HETATM    5  C   UNK N   1      35.095  12.956  17.624  0.00  0.00     0.005 C 
ENDBRANCH   3   4
ENDBRANCH   2   3
ENDBRANCH   1   2
BRANCH   1   6
HETATM    6  N   UNK N   1      36.839  15.044  14.028  0.00  0.00    -0.417 N 
HETATM    7  H   UNK N   1      36.950  16.028  13.788  0.00  0.00     0.150 HD
HETATM    8  H   UNK N   1      37.043  14.777  14.991  0.00  0.00     0.150 HD
ENDBRANCH   1   6
BRANCH   1   9
HETATM    9  P   UNK N   1      35.809  14.740  11.536  0.00  0.00     0.258 P 
HETATM   10  O   UNK N   1      35.933  13.736  10.356  0.00  0.00    -0.652 OA
BRANCH   9  11
HETATM   11  O   UNK N   1      34.140  15.212  11.522  0.00  0.00    -0.328 OA
HETATM   12  H   UNK N   1      33.438  15.866  11.375  0.00  0.00     0.220 HD
ENDBRANCH   9  11
BRANCH   9  13
HETATM   13  O   UNK N   1      36.726  16.115  11.007  0.00  0.00    -0.328 OA
HETATM   14  H   UNK N   1      37.511  16.580  11.334  0.00  0.00     0.220 HD
ENDBRANCH   9  13
ENDBRANCH   1   9
TORSDOF 7
ENDMDL
MODEL 7
REMARK VINA RESULT:      -3.9     11.039     11.856
REMARK  7 active torsions:
REMARK  status: ('A' for Active; 'I' for Inactive)
REMARK    1  A    between atoms: C_2  and  C_3 
REMARK    2  A    between atoms: C_3  and  C_4 
REMARK    3  A    between atoms: C_4  and  C_5 
REMARK    4  A    between atoms: C_5  and  N_6 
REMARK    5  A    between atoms: C_5  and  P_7 
REMARK    6  A    between atoms: P_7  and  O_8 
REMARK    7  A    between atoms: P_7  and  O_9 
ROOT
HETATM    1  C   UNK N   1      29.481  17.111   7.665  0.00  0.00     0.186 C 
ENDROOT
BRANCH   1   2
HETATM    2  C   UNK N   1      30.987  17.075   7.860  0.00  0.00     0.037 C 
BRANCH   2   3
HETATM    3  C   UNK N   1      31.681  17.152   6.508  0.00  0.00     0.002 C 
BRANCH   3   4
HETATM    4  C   UNK N   1      33.159  17.444   6.677  0.00  0.00    -0.004 C 
HETATM    5  C   UNK N   1      33.397  18.204   7.969  0.00  0.00     0.005 C 
ENDBRANCH   3   4
ENDBRANCH   2   3
ENDBRANCH   1   2
BRANCH   1   6
HETATM    6  N   UNK N   1      29.166  17.839   6.448  0.00  0.00    -0.417 N 
HETATM    7  H   UNK N   1      29.766  18.515   5.979  0.00  0.00     0.150 HD
HETATM    8  H   UNK N   1      28.256  17.655   6.023  0.00  0.00     0.150 HD
ENDBRANCH   1   6
BRANCH   1   9
HETATM    9  P   UNK N   1      28.609  17.920   9.102  0.00  0.00     0.258 P 
HETATM   10  O   UNK N   1      27.753  16.889   9.889  0.00  0.00    -0.652 OA
BRANCH   9  11
HETATM   11  O   UNK N   1      29.642  18.624  10.305  0.00  0.00    -0.328 OA
HETATM   12  H   UNK N   1      30.193  19.350  10.640  0.00  0.00     0.220 HD
ENDBRANCH   9  11
BRANCH   9  13
HETATM   13  O   UNK N   1      27.465  19.142   8.642  0.00  0.00    -0.328 OA
HETATM   14  H   UNK N   1      27.089  19.443   7.801  0.00  0.00     0.220 HD
ENDBRANCH   9  13
ENDBRANCH   1   9
TORSDOF 7
ENDMDL
MODEL 8
REMARK VINA RESULT:      -3.9     19.584     20.348
REMARK  7 active torsions:
REMARK  status: ('A' for Active; 'I' for Inactive)
REMARK    1  A    between atoms: C_2  and  C_3 
REMARK    2  A    between atoms: C_3  and  C_4 
REMARK    3  A    between atoms: C_4  and  C_5 
REMARK    4  A    between atoms: C_5  and  N_6 
REMARK    5  A    between atoms: C_5  and  P_7 
REMARK    6  A    between atoms: P_7  and  O_8 
REMARK    7  A    between atoms: P_7  and  O_9 
ROOT
HETATM    1  C   UNK N   1      36.427  13.256  14.822  0.00  0.00     0.186 C 
ENDROOT
BRANCH   1   2
HETATM    2  C   UNK N   1      35.152  13.075  15.630  0.00  0.00     0.037 C 
BRANCH   2   3
HETATM    3  C   UNK N   1      35.190  11.738  16.355  0.00  0.00     0.002 C 
BRANCH   3   4
HETATM    4  C   UNK N   1      34.936  10.595  15.391  0.00  0.00    -0.004 C 
HETATM    5  C   UNK N   1      33.588  10.771  14.718  0.00  0.00     0.005 C 
ENDBRANCH   3   4
ENDBRANCH   2   3
ENDBRANCH   1   2
BRANCH   1   6
HETATM    6  N   UNK N   1      37.224  14.320  15.406  0.00  0.00    -0.417 N 
HETATM    7  H   UNK N   1      37.742  15.034  14.895  0.00  0.00     0.150 HD
HETATM    8  H   UNK N   1      37.271  14.356  16.425  0.00  0.00     0.150 HD
ENDBRANCH   1   6
BRANCH   1   9
HETATM    9  P   UNK N   1      36.071  13.668  13.038  0.00  0.00     0.258 P 
HETATM   10  O   UNK N   1      36.931  12.796  12.081  0.00  0.00    -0.652 OA
BRANCH   9  11
HETATM   11  O   UNK N   1      34.440  13.394  12.516  0.00  0.00    -0.328 OA
HETATM   12  H   UNK N   1      33.509  13.186  12.695  0.00  0.00     0.220 HD
ENDBRANCH   9  11
BRANCH   9  13
HETATM   13  O   UNK N   1      36.477  15.295  12.591  0.00  0.00    -0.328 OA
HETATM   14  H   UNK N   1      36.480  16.149  13.050  0.00  0.00     0.220 HD
ENDBRANCH   9  13
ENDBRANCH   1   9
TORSDOF 7
ENDMDL
MODEL 9
REMARK VINA RESULT:      -3.9     12.962     13.635
REMARK  7 active torsions:
REMARK  status: ('A' for Active; 'I' for Inactive)
REMARK    1  A    between atoms: C_2  and  C_3 
REMARK    2  A    between atoms: C_3  and  C_4 
REMARK    3  A    between atoms: C_4  and  C_5 
REMARK    4  A    between atoms: C_5  and  N_6 
REMARK    5  A    between atoms: C_5  and  P_7 
REMARK    6  A    between atoms: P_7  and  O_8 
REMARK    7  A    between atoms: P_7  and  O_9 
ROOT
HETATM    1  C   UNK N   1      32.326  17.948   7.585  0.00  0.00     0.186 C 
ENDROOT
BRANCH   1   2
HETATM    2  C   UNK N   1      31.262  17.467   8.557  0.00  0.00     0.037 C 
BRANCH   2   3
HETATM    3  C   UNK N   1      30.463  18.654   9.072  0.00  0.00     0.002 C 
BRANCH   3   4
HETATM    4  C   UNK N   1      29.031  18.595   8.579  0.00  0.00    -0.004 C 
HETATM    5  C   UNK N   1      28.274  17.498   9.304  0.00  0.00     0.005 C 
ENDBRANCH   3   4
ENDBRANCH   2   3
ENDBRANCH   1   2
BRANCH   1   6
HETATM    6  N   UNK N   1      32.217  17.207   6.340  0.00  0.00    -0.417 N 
HETATM    7  H   UNK N   1      32.648  16.307   6.136  0.00  0.00     0.150 HD
HETATM    8  H   UNK N   1      31.656  17.630   5.600  0.00  0.00     0.150 HD
ENDBRANCH   1   6
BRANCH   1   9
HETATM    9  P   UNK N   1      34.047  17.738   8.271  0.00  0.00     0.258 P 
HETATM   10  O   UNK N   1      34.871  16.735   7.417  0.00  0.00    -0.652 OA
BRANCH   9  11
HETATM   11  O   UNK N   1      35.021  19.173   8.303  0.00  0.00    -0.328 OA
HETATM   12  H   UNK N   1      35.723  19.722   8.690  0.00  0.00     0.220 HD
ENDBRANCH   9  11
BRANCH   9  13
HETATM   13  O   UNK N   1      34.097  17.060   9.868  0.00  0.00    -0.328 OA
HETATM   14  H   UNK N   1      33.748  17.324  10.733  0.00  0.00     0.220 HD
ENDBRANCH   9  13
ENDBRANCH   1   9
TORSDOF 7
ENDMDL
