MODEL 1
REMARK VINA RESULT:      -7.1      0.000      0.000
REMARK  7 active torsions:
REMARK  status: ('A' for Active; 'I' for Inactive)
REMARK    1  A    between atoms: O_1  and  C_2 
REMARK    2  A    between atoms: C_4  and  O_5 
REMARK    3  A    between atoms: C_9  and  O_10 
REMARK    4  A    between atoms: C_11  and  C_15 
REMARK    5  A    between atoms: C_17  and  O_18 
REMARK    6  A    between atoms: C_19  and  O_20 
REMARK    7  A    between atoms: C_21  and  O_22 
ROOT
HETATM    1  C   UNK N   1      19.548  15.683   8.649  0.00  0.00     0.071 A 
HETATM    2  C   UNK N   1      20.678  14.920   8.948  0.00  0.00     0.074 A 
HETATM    3  C   UNK N   1      21.772  14.898   8.074  0.00  0.00     0.085 A 
HETATM    4  C   UNK N   1      21.733  15.654   6.878  0.00  0.00     0.084 A 
HETATM    5  C   UNK N   1      22.792  15.685   5.946  0.00  0.00     0.223 A 
HETATM    6  O   UNK N   1      23.814  15.045   6.135  0.00  0.00    -0.284 OA
HETATM    7  C   UNK N   1      22.666  16.462   4.788  0.00  0.00     0.152 A 
HETATM    8  C   UNK N   1      21.476  17.198   4.582  0.00  0.00     0.123 A 
HETATM    9  O   UNK N   1      20.505  17.139   5.487  0.00  0.00    -0.306 OA
HETATM   10  C   UNK N   1      20.581  16.419   6.593  0.00  0.00     0.096 A 
HETATM   11  C   UNK N   1      19.502  16.429   7.475  0.00  0.00     0.075 A 
ENDROOT
BRANCH   8  12
HETATM   12  C   UNK N   1      21.234  18.051   3.397  0.00  0.00     0.006 A 
HETATM   13  C   UNK N   1      20.810  17.535   2.164  0.00  0.00     0.054 A 
HETATM   14  C   UNK N   1      20.597  18.388   1.078  0.00  0.00     0.102 A 
HETATM   15  C   UNK N   1      20.807  19.769   1.217  0.00  0.00     0.132 A 
HETATM   16  C   UNK N   1      21.230  20.287   2.446  0.00  0.00     0.102 A 
HETATM   17  C   UNK N   1      21.441  19.432   3.523  0.00  0.00     0.054 A 
BRANCH  14  18
HETATM   18  O   UNK N   1      20.190  17.879  -0.096  0.00  0.00    -0.358 OA
HETATM   19  H   UNK N   1      19.442  18.240  -0.530  0.00  0.00     0.217 HD
ENDBRANCH  14  18
BRANCH  15  20
HETATM   20  O   UNK N   1      20.602  20.591   0.173  0.00  0.00    -0.356 OA
HETATM   21  H   UNK N   1      20.477  20.236  -0.686  0.00  0.00     0.218 HD
ENDBRANCH  15  20
BRANCH  16  22
HETATM   22  O   UNK N   1      21.437  21.607   2.596  0.00  0.00    -0.358 OA
HETATM   23  H   UNK N   1      22.045  21.915   3.237  0.00  0.00     0.217 HD
ENDBRANCH  16  22
ENDBRANCH   8  12
BRANCH   7  24
HETATM   24  O   UNK N   1      23.674  16.495   3.895  0.00  0.00    -0.355 OA
HETATM   25  H   UNK N   1      24.404  17.065   4.035  0.00  0.00     0.218 HD
ENDBRANCH   7  24
BRANCH   3  26
HETATM   26  O   UNK N   1      22.844  14.152   8.395  0.00  0.00    -0.360 OA
HETATM   27  H   UNK N   1      22.816  13.221   8.288  0.00  0.00     0.217 HD
ENDBRANCH   3  26
BRANCH   1  28
HETATM   28  O   UNK N   1      18.503  15.700   9.491  0.00  0.00    -0.361 OA
HETATM   29  H   UNK N   1      18.078  14.898   9.726  0.00  0.00     0.217 HD
ENDBRANCH   1  28
TORSDOF 7
ENDMDL
MODEL 2
REMARK VINA RESULT:      -7.0      1.490      3.323
REMARK  7 active torsions:
REMARK  status: ('A' for Active; 'I' for Inactive)
REMARK    1  A    between atoms: O_1  and  C_2 
REMARK    2  A    between atoms: C_4  and  O_5 
REMARK    3  A    between atoms: C_9  and  O_10 
REMARK    4  A    between atoms: C_11  and  C_15 
REMARK    5  A    between atoms: C_17  and  O_18 
REMARK    6  A    between atoms: C_19  and  O_20 
REMARK    7  A    between atoms: C_21  and  O_22 
ROOT
HETATM    1  C   UNK N   1      24.144  14.623   7.073  0.00  0.00     0.071 A 
HETATM    2  C   UNK N   1      23.100  13.908   7.665  0.00  0.00     0.074 A 
HETATM    3  C   UNK N   1      21.774  14.134   7.277  0.00  0.00     0.085 A 
HETATM    4  C   UNK N   1      21.488  15.095   6.277  0.00  0.00     0.084 A 
HETATM    5  C   UNK N   1      20.181  15.381   5.830  0.00  0.00     0.223 A 
HETATM    6  O   UNK N   1      19.214  14.799   6.298  0.00  0.00    -0.284 OA
HETATM    7  C   UNK N   1      19.991  16.348   4.834  0.00  0.00     0.152 A 
HETATM    8  C   UNK N   1      21.118  17.014   4.302  0.00  0.00     0.123 A 
HETATM    9  O   UNK N   1      22.331  16.712   4.753  0.00  0.00    -0.306 OA
HETATM   10  C   UNK N   1      22.557  15.807   5.690  0.00  0.00     0.096 A 
HETATM   11  C   UNK N   1      23.870  15.568   6.090  0.00  0.00     0.075 A 
ENDROOT
BRANCH   8  12
HETATM   12  C   UNK N   1      21.037  18.052   3.249  0.00  0.00     0.006 A 
HETATM   13  C   UNK N   1      21.284  19.409   3.500  0.00  0.00     0.054 A 
HETATM   14  C   UNK N   1      21.193  20.345   2.467  0.00  0.00     0.102 A 
HETATM   15  C   UNK N   1      20.852  19.931   1.171  0.00  0.00     0.132 A 
HETATM   16  C   UNK N   1      20.605  18.577   0.917  0.00  0.00     0.102 A 
HETATM   17  C   UNK N   1      20.698  17.650   1.950  0.00  0.00     0.054 A 
BRANCH  14  18
HETATM   18  O   UNK N   1      21.433  21.642   2.724  0.00  0.00    -0.358 OA
HETATM   19  H   UNK N   1      22.289  21.917   2.988  0.00  0.00     0.217 HD
ENDBRANCH  14  18
BRANCH  15  20
HETATM   20  O   UNK N   1      20.764  20.831   0.175  0.00  0.00    -0.356 OA
HETATM   21  H   UNK N   1      20.578  21.729   0.371  0.00  0.00     0.218 HD
ENDBRANCH  15  20
BRANCH  16  22
HETATM   22  O   UNK N   1      20.277  18.163  -0.320  0.00  0.00    -0.358 OA
HETATM   23  H   UNK N   1      19.690  17.442  -0.431  0.00  0.00     0.217 HD
ENDBRANCH  16  22
ENDBRANCH   8  12
BRANCH   7  24
HETATM   24  O   UNK N   1      18.745  16.626   4.405  0.00  0.00    -0.355 OA
HETATM   25  H   UNK N   1      18.136  17.050   4.976  0.00  0.00     0.218 HD
ENDBRANCH   7  24
BRANCH   3  26
HETATM   26  O   UNK N   1      20.795  13.428   7.868  0.00  0.00    -0.360 OA
HETATM   27  H   UNK N   1      20.990  12.606   8.275  0.00  0.00     0.217 HD
ENDBRANCH   3  26
BRANCH   1  28
HETATM   28  O   UNK N   1      25.412  14.400   7.450  0.00  0.00    -0.361 OA
HETATM   29  H   UNK N   1      25.601  13.752   8.100  0.00  0.00     0.217 HD
ENDBRANCH   1  28
TORSDOF 7
ENDMDL
MODEL 3
REMARK VINA RESULT:      -6.9      2.542      4.947
REMARK  7 active torsions:
REMARK  status: ('A' for Active; 'I' for Inactive)
REMARK    1  A    between atoms: O_1  and  C_2 
REMARK    2  A    between atoms: C_4  and  O_5 
REMARK    3  A    between atoms: C_9  and  O_10 
REMARK    4  A    between atoms: C_11  and  C_15 
REMARK    5  A    between atoms: C_17  and  O_18 
REMARK    6  A    between atoms: C_19  and  O_20 
REMARK    7  A    between atoms: C_21  and  O_22 
ROOT
HETATM    1  C   UNK N   1      24.186  12.151  10.928  0.00  0.00     0.071 A 
HETATM    2  C   UNK N   1      23.005  11.818  11.594  0.00  0.00     0.074 A 
HETATM    3  C   UNK N   1      21.777  12.338  11.166  0.00  0.00     0.085 A 
HETATM    4  C   UNK N   1      21.732  13.208  10.050  0.00  0.00     0.084 A 
HETATM    5  C   UNK N   1      20.538  13.774   9.557  0.00  0.00     0.223 A 
HETATM    6  O   UNK N   1      19.463  13.532  10.084  0.00  0.00    -0.284 OA
HETATM    7  C   UNK N   1      20.588  14.626   8.446  0.00  0.00     0.152 A 
HETATM    8  C   UNK N   1      21.839  14.897   7.846  0.00  0.00     0.123 A 
HETATM    9  O   UNK N   1      22.939  14.341   8.345  0.00  0.00    -0.306 OA
HETATM   10  C   UNK N   1      22.938  13.533   9.391  0.00  0.00     0.096 A 
HETATM   11  C   UNK N   1      24.150  13.005   9.831  0.00  0.00     0.075 A 
ENDROOT
BRANCH   8  12
HETATM   12  C   UNK N   1      22.011  15.780   6.670  0.00  0.00     0.006 A 
HETATM   13  C   UNK N   1      22.654  15.363   5.496  0.00  0.00     0.054 A 
HETATM   14  C   UNK N   1      22.788  16.240   4.416  0.00  0.00     0.102 A 
HETATM   15  C   UNK N   1      22.278  17.544   4.502  0.00  0.00     0.132 A 
HETATM   16  C   UNK N   1      21.636  17.963   5.673  0.00  0.00     0.102 A 
HETATM   17  C   UNK N   1      21.506  17.085   6.744  0.00  0.00     0.054 A 
BRANCH  14  18
HETATM   18  O   UNK N   1      23.407  15.826   3.298  0.00  0.00    -0.358 OA
HETATM   19  H   UNK N   1      23.728  14.947   3.238  0.00  0.00     0.217 HD
ENDBRANCH  14  18
BRANCH  15  20
HETATM   20  O   UNK N   1      22.406  18.390   3.464  0.00  0.00    -0.356 OA
HETATM   21  H   UNK N   1      22.494  18.052   2.594  0.00  0.00     0.218 HD
ENDBRANCH  15  20
BRANCH  16  22
HETATM   22  O   UNK N   1      21.142  19.210   5.772  0.00  0.00    -0.358 OA
HETATM   23  H   UNK N   1      20.304  19.350   6.165  0.00  0.00     0.217 HD
ENDBRANCH  16  22
ENDBRANCH   8  12
BRANCH   7  24
HETATM   24  O   UNK N   1      19.450  15.168   7.971  0.00  0.00    -0.355 OA
HETATM   25  H   UNK N   1      19.482  15.773   7.257  0.00  0.00     0.218 HD
ENDBRANCH   7  24
BRANCH   3  26
HETATM   26  O   UNK N   1      20.660  11.996  11.831  0.00  0.00    -0.360 OA
HETATM   27  H   UNK N   1      20.698  11.816  12.750  0.00  0.00     0.217 HD
ENDBRANCH   3  26
BRANCH   1  28
HETATM   28  O   UNK N   1      25.359  11.648  11.345  0.00  0.00    -0.361 OA
HETATM   29  H   UNK N   1      25.561  11.625  12.259  0.00  0.00     0.217 HD
ENDBRANCH   1  28
TORSDOF 7
ENDMDL
MODEL 4
REMARK VINA RESULT:      -6.9      8.907     11.704
REMARK  7 active torsions:
REMARK  status: ('A' for Active; 'I' for Inactive)
REMARK    1  A    between atoms: O_1  and  C_2 
REMARK    2  A    between atoms: C_4  and  O_5 
REMARK    3  A    between atoms: C_9  and  O_10 
REMARK    4  A    between atoms: C_11  and  C_15 
REMARK    5  A    between atoms: C_17  and  O_18 
REMARK    6  A    between atoms: C_19  and  O_20 
REMARK    7  A    between atoms: C_21  and  O_22 
ROOT
HETATM    1  C   UNK N   1      27.108  18.448   5.465  0.00  0.00     0.071 A 
HETATM    2  C   UNK N   1      27.092  17.710   4.279  0.00  0.00     0.074 A 
HETATM    3  C   UNK N   1      28.186  16.910   3.925  0.00  0.00     0.085 A 
HETATM    4  C   UNK N   1      29.316  16.848   4.775  0.00  0.00     0.084 A 
HETATM    5  C   UNK N   1      30.457  16.067   4.491  0.00  0.00     0.223 A 
HETATM    6  O   UNK N   1      30.520  15.394   3.474  0.00  0.00    -0.284 OA
HETATM    7  C   UNK N   1      31.531  16.066   5.390  0.00  0.00     0.152 A 
HETATM    8  C   UNK N   1      31.443  16.850   6.563  0.00  0.00     0.123 A 
HETATM    9  O   UNK N   1      30.349  17.570   6.790  0.00  0.00    -0.306 OA
HETATM   10  C   UNK N   1      29.313  17.601   5.969  0.00  0.00     0.096 A 
HETATM   11  C   UNK N   1      28.216  18.392   6.304  0.00  0.00     0.075 A 
ENDROOT
BRANCH   8  12
HETATM   12  C   UNK N   1      32.515  16.925   7.581  0.00  0.00     0.006 A 
HETATM   13  C   UNK N   1      32.661  15.974   8.601  0.00  0.00     0.054 A 
HETATM   14  C   UNK N   1      33.692  16.095   9.536  0.00  0.00     0.102 A 
HETATM   15  C   UNK N   1      34.589  17.172   9.459  0.00  0.00     0.132 A 
HETATM   16  C   UNK N   1      34.445  18.123   8.443  0.00  0.00     0.102 A 
HETATM   17  C   UNK N   1      33.416  17.997   7.515  0.00  0.00     0.054 A 
BRANCH  14  18
HETATM   18  O   UNK N   1      33.819  15.175  10.507  0.00  0.00    -0.358 OA
HETATM   19  H   UNK N   1      34.603  14.664  10.569  0.00  0.00     0.217 HD
ENDBRANCH  14  18
BRANCH  15  20
HETATM   20  O   UNK N   1      35.582  17.290  10.358  0.00  0.00    -0.356 OA
HETATM   21  H   UNK N   1      35.533  17.947  11.026  0.00  0.00     0.218 HD
ENDBRANCH  15  20
BRANCH  16  22
HETATM   22  O   UNK N   1      35.295  19.161   8.354  0.00  0.00    -0.358 OA
HETATM   23  H   UNK N   1      35.021  20.014   8.626  0.00  0.00     0.217 HD
ENDBRANCH  16  22
ENDBRANCH   8  12
BRANCH   7  24
HETATM   24  O   UNK N   1      32.621  15.322   5.123  0.00  0.00    -0.355 OA
HETATM   25  H   UNK N   1      32.795  15.043   4.246  0.00  0.00     0.218 HD
ENDBRANCH   7  24
BRANCH   3  26
HETATM   26  O   UNK N   1      28.136  16.213   2.776  0.00  0.00    -0.360 OA
HETATM   27  H   UNK N   1      27.855  16.632   1.986  0.00  0.00     0.217 HD
ENDBRANCH   3  26
BRANCH   1  28
HETATM   28  O   UNK N   1      26.056  19.212   5.797  0.00  0.00    -0.361 OA
HETATM   29  H   UNK N   1      26.187  20.004   6.281  0.00  0.00     0.217 HD
ENDBRANCH   1  28
TORSDOF 7
ENDMDL
MODEL 5
REMARK VINA RESULT:      -6.8     10.871     12.767
REMARK  7 active torsions:
REMARK  status: ('A' for Active; 'I' for Inactive)
REMARK    1  A    between atoms: O_1  and  C_2 
REMARK    2  A    between atoms: C_4  and  O_5 
REMARK    3  A    between atoms: C_9  and  O_10 
REMARK    4  A    between atoms: C_11  and  C_15 
REMARK    5  A    between atoms: C_17  and  O_18 
REMARK    6  A    between atoms: C_19  and  O_20 
REMARK    7  A    between atoms: C_21  and  O_22 
ROOT
HETATM    1  C   UNK N   1      35.179  13.027  10.031  0.00  0.00     0.071 A 
HETATM    2  C   UNK N   1      36.023  13.904  10.715  0.00  0.00     0.074 A 
HETATM    3  C   UNK N   1      35.961  15.282  10.474  0.00  0.00     0.085 A 
HETATM    4  C   UNK N   1      35.037  15.792   9.530  0.00  0.00     0.084 A 
HETATM    5  C   UNK N   1      34.913  17.164   9.231  0.00  0.00     0.223 A 
HETATM    6  O   UNK N   1      35.615  17.995   9.786  0.00  0.00    -0.284 OA
HETATM    7  C   UNK N   1      33.970  17.579   8.282  0.00  0.00     0.152 A 
HETATM    8  C   UNK N   1      33.164  16.606   7.647  0.00  0.00     0.123 A 
HETATM    9  O   UNK N   1      33.316  15.324   7.960  0.00  0.00    -0.306 OA
HETATM   10  C   UNK N   1      34.192  14.888   8.849  0.00  0.00     0.096 A 
HETATM   11  C   UNK N   1      34.268  13.520   9.102  0.00  0.00     0.075 A 
ENDROOT
BRANCH   8  12
HETATM   12  C   UNK N   1      32.137  16.928   6.630  0.00  0.00     0.006 A 
HETATM   13  C   UNK N   1      32.443  17.116   5.275  0.00  0.00     0.054 A 
HETATM   14  C   UNK N   1      31.433  17.419   4.359  0.00  0.00     0.102 A 
HETATM   15  C   UNK N   1      30.103  17.537   4.792  0.00  0.00     0.132 A 
HETATM   16  C   UNK N   1      29.794  17.350   6.144  0.00  0.00     0.102 A 
HETATM   17  C   UNK N   1      30.806  17.049   7.051  0.00  0.00     0.054 A 
BRANCH  14  18
HETATM   18  O   UNK N   1      31.742  17.596   3.064  0.00  0.00    -0.358 OA
HETATM   19  H   UNK N   1      31.060  17.679   2.426  0.00  0.00     0.217 HD
ENDBRANCH  14  18
BRANCH  15  20
HETATM   20  O   UNK N   1      29.129  17.828   3.912  0.00  0.00    -0.356 OA
HETATM   21  H   UNK N   1      29.321  18.348   3.156  0.00  0.00     0.218 HD
ENDBRANCH  15  20
BRANCH  16  22
HETATM   22  O   UNK N   1      28.526  17.459   6.576  0.00  0.00    -0.358 OA
HETATM   23  H   UNK N   1      28.020  16.689   6.741  0.00  0.00     0.217 HD
ENDBRANCH  16  22
ENDBRANCH   8  12
BRANCH   7  24
HETATM   24  O   UNK N   1      33.848  18.889   7.993  0.00  0.00    -0.355 OA
HETATM   25  H   UNK N   1      34.251  19.529   8.544  0.00  0.00     0.218 HD
ENDBRANCH   7  24
BRANCH   3  26
HETATM   26  O   UNK N   1      36.790  16.097  11.151  0.00  0.00    -0.360 OA
HETATM   27  H   UNK N   1      37.236  15.783  11.913  0.00  0.00     0.217 HD
ENDBRANCH   3  26
BRANCH   1  28
HETATM   28  O   UNK N   1      35.243  11.707  10.267  0.00  0.00    -0.361 OA
HETATM   29  H   UNK N   1      34.664  11.123   9.818  0.00  0.00     0.217 HD
ENDBRANCH   1  28
TORSDOF 7
ENDMDL
MODEL 6
REMARK VINA RESULT:      -6.8     10.763     12.667
REMARK  7 active torsions:
REMARK  status: ('A' for Active; 'I' for Inactive)
REMARK    1  A    between atoms: O_1  and  C_2 
REMARK    2  A    between atoms: C_4  and  O_5 
REMARK    3  A    between atoms: C_9  and  O_10 
REMARK    4  A    between atoms: C_11  and  C_15 
REMARK    5  A    between atoms: C_17  and  O_18 
REMARK    6  A    between atoms: C_19  and  O_20 
REMARK    7  A    between atoms: C_21  and  O_22 
ROOT
HETATM    1  C   UNK N   1      34.927  13.082  10.269  0.00  0.00     0.071 A 
HETATM    2  C   UNK N   1      35.855  13.943  10.857  0.00  0.00     0.074 A 
HETATM    3  C   UNK N   1      35.858  15.307  10.542  0.00  0.00     0.085 A 
HETATM    4  C   UNK N   1      34.913  15.819   9.620  0.00  0.00     0.084 A 
HETATM    5  C   UNK N   1      34.850  17.179   9.250  0.00  0.00     0.223 A 
HETATM    6  O   UNK N   1      35.626  17.995   9.720  0.00  0.00    -0.284 OA
HETATM    7  C   UNK N   1      33.880  17.596   8.329  0.00  0.00     0.152 A 
HETATM    8  C   UNK N   1      32.988  16.640   7.793  0.00  0.00     0.123 A 
HETATM    9  O   UNK N   1      33.084  15.369   8.170  0.00  0.00    -0.306 OA
HETATM   10  C   UNK N   1      33.983  14.932   9.036  0.00  0.00     0.096 A 
HETATM   11  C   UNK N   1      33.996  13.577   9.362  0.00  0.00     0.075 A 
ENDROOT
BRANCH   8  12
HETATM   12  C   UNK N   1      31.926  16.967   6.814  0.00  0.00     0.006 A 
HETATM   13  C   UNK N   1      30.577  17.092   7.172  0.00  0.00     0.054 A 
HETATM   14  C   UNK N   1      29.616  17.403   6.206  0.00  0.00     0.102 A 
HETATM   15  C   UNK N   1      29.999  17.591   4.869  0.00  0.00     0.132 A 
HETATM   16  C   UNK N   1      31.346  17.467   4.509  0.00  0.00     0.102 A 
HETATM   17  C   UNK N   1      32.297  17.158   5.476  0.00  0.00     0.054 A 
BRANCH  14  18
HETATM   18  O   UNK N   1      28.327  17.519   6.565  0.00  0.00    -0.358 OA
HETATM   19  H   UNK N   1      27.856  18.306   6.372  0.00  0.00     0.217 HD
ENDBRANCH  14  18
BRANCH  15  20
HETATM   20  O   UNK N   1      29.076  17.891   3.938  0.00  0.00    -0.356 OA
HETATM   21  H   UNK N   1      28.347  17.318   3.801  0.00  0.00     0.218 HD
ENDBRANCH  15  20
BRANCH  16  22
HETATM   22  O   UNK N   1      31.730  17.645   3.233  0.00  0.00    -0.358 OA
HETATM   23  H   UNK N   1      31.458  18.409   2.764  0.00  0.00     0.217 HD
ENDBRANCH  16  22
ENDBRANCH   8  12
BRANCH   7  24
HETATM   24  O   UNK N   1      33.816  18.894   7.973  0.00  0.00    -0.355 OA
HETATM   25  H   UNK N   1      34.201  19.549   8.520  0.00  0.00     0.218 HD
ENDBRANCH   7  24
BRANCH   3  26
HETATM   26  O   UNK N   1      36.766  16.107  11.128  0.00  0.00    -0.360 OA
HETATM   27  H   UNK N   1      37.669  15.858  11.144  0.00  0.00     0.217 HD
ENDBRANCH   3  26
BRANCH   1  28
HETATM   28  O   UNK N   1      34.930  11.775  10.576  0.00  0.00    -0.361 OA
HETATM   29  H   UNK N   1      34.600  11.488  11.404  0.00  0.00     0.217 HD
ENDBRANCH   1  28
TORSDOF 7
ENDMDL
MODEL 7
REMARK VINA RESULT:      -6.6      8.898     11.907
REMARK  7 active torsions:
REMARK  status: ('A' for Active; 'I' for Inactive)
REMARK    1  A    between atoms: O_1  and  C_2 
REMARK    2  A    between atoms: C_4  and  O_5 
REMARK    3  A    between atoms: C_9  and  O_10 
REMARK    4  A    between atoms: C_11  and  C_15 
REMARK    5  A    between atoms: C_17  and  O_18 
REMARK    6  A    between atoms: C_19  and  O_20 
REMARK    7  A    between atoms: C_21  and  O_22 
ROOT
HETATM    1  C   UNK N   1      28.431  16.587   3.849  0.00  0.00     0.071 A 
HETATM    2  C   UNK N   1      27.357  17.314   4.366  0.00  0.00     0.074 A 
HETATM    3  C   UNK N   1      27.441  17.900   5.636  0.00  0.00     0.085 A 
HETATM    4  C   UNK N   1      28.623  17.753   6.402  0.00  0.00     0.084 A 
HETATM    5  C   UNK N   1      28.786  18.311   7.687  0.00  0.00     0.223 A 
HETATM    6  O   UNK N   1      27.894  18.961   8.209  0.00  0.00    -0.284 OA
HETATM    7  C   UNK N   1      29.992  18.115   8.373  0.00  0.00     0.152 A 
HETATM    8  C   UNK N   1      31.016  17.361   7.757  0.00  0.00     0.123 A 
HETATM    9  O   UNK N   1      30.818  16.854   6.545  0.00  0.00    -0.306 OA
HETATM   10  C   UNK N   1      29.697  17.014   5.861  0.00  0.00     0.096 A 
HETATM   11  C   UNK N   1      29.595  16.439   4.596  0.00  0.00     0.075 A 
ENDROOT
BRANCH   8  12
HETATM   12  C   UNK N   1      32.328  17.091   8.388  0.00  0.00     0.006 A 
HETATM   13  C   UNK N   1      32.624  15.883   9.035  0.00  0.00     0.054 A 
HETATM   14  C   UNK N   1      33.881  15.682   9.613  0.00  0.00     0.102 A 
HETATM   15  C   UNK N   1      34.854  16.691   9.548  0.00  0.00     0.132 A 
HETATM   16  C   UNK N   1      34.561  17.898   8.903  0.00  0.00     0.102 A 
HETATM   17  C   UNK N   1      33.308  18.091   8.329  0.00  0.00     0.054 A 
BRANCH  14  18
HETATM   18  O   UNK N   1      34.149  14.519  10.229  0.00  0.00    -0.358 OA
HETATM   19  H   UNK N   1      33.876  13.710   9.844  0.00  0.00     0.217 HD
ENDBRANCH  14  18
BRANCH  15  20
HETATM   20  O   UNK N   1      36.063  16.499  10.104  0.00  0.00    -0.356 OA
HETATM   21  H   UNK N   1      36.839  16.641   9.597  0.00  0.00     0.218 HD
ENDBRANCH  15  20
BRANCH  16  22
HETATM   22  O   UNK N   1      35.481  18.875   8.832  0.00  0.00    -0.358 OA
HETATM   23  H   UNK N   1      35.236  19.762   9.005  0.00  0.00     0.217 HD
ENDBRANCH  16  22
ENDBRANCH   8  12
BRANCH   7  24
HETATM   24  O   UNK N   1      30.153  18.646   9.601  0.00  0.00    -0.355 OA
HETATM   25  H   UNK N   1      29.403  18.868  10.117  0.00  0.00     0.218 HD
ENDBRANCH   7  24
BRANCH   3  26
HETATM   26  O   UNK N   1      26.387  18.593   6.101  0.00  0.00    -0.360 OA
HETATM   27  H   UNK N   1      26.185  18.580   7.016  0.00  0.00     0.217 HD
ENDBRANCH   3  26
BRANCH   1  28
HETATM   28  O   UNK N   1      28.344  16.029   2.632  0.00  0.00    -0.361 OA
HETATM   29  H   UNK N   1      27.515  15.732   2.311  0.00  0.00     0.217 HD
ENDBRANCH   1  28
TORSDOF 7
ENDMDL
MODEL 8
REMARK VINA RESULT:      -6.6     12.613     15.973
REMARK  7 active torsions:
REMARK  status: ('A' for Active; 'I' for Inactive)
REMARK    1  A    between atoms: O_1  and  C_2 
REMARK    2  A    between atoms: C_4  and  O_5 
REMARK    3  A    between atoms: C_9  and  O_10 
REMARK    4  A    between atoms: C_11  and  C_15 
REMARK    5  A    between atoms: C_17  and  O_18 
REMARK    6  A    between atoms: C_19  and  O_20 
REMARK    7  A    between atoms: C_21  and  O_22 
ROOT
HETATM    1  C   UNK N   1      33.360  14.618   4.395  0.00  0.00     0.071 A 
HETATM    2  C   UNK N   1      33.179  15.991   4.217  0.00  0.00     0.074 A 
HETATM    3  C   UNK N   1      33.506  16.889   5.240  0.00  0.00     0.085 A 
HETATM    4  C   UNK N   1      34.025  16.403   6.464  0.00  0.00     0.084 A 
HETATM    5  C   UNK N   1      34.379  17.241   7.543  0.00  0.00     0.223 A 
HETATM    6  O   UNK N   1      34.250  18.453   7.466  0.00  0.00    -0.284 OA
HETATM    7  C   UNK N   1      34.885  16.672   8.719  0.00  0.00     0.152 A 
HETATM    8  C   UNK N   1      35.029  15.267   8.793  0.00  0.00     0.123 A 
HETATM    9  O   UNK N   1      34.682  14.517   7.752  0.00  0.00    -0.306 OA
HETATM   10  C   UNK N   1      34.201  15.011   6.625  0.00  0.00     0.096 A 
HETATM   11  C   UNK N   1      33.869  14.133   5.595  0.00  0.00     0.075 A 
ENDROOT
BRANCH   8  12
HETATM   12  C   UNK N   1      35.552  14.559   9.983  0.00  0.00     0.006 A 
HETATM   13  C   UNK N   1      34.747  14.219  11.079  0.00  0.00     0.054 A 
HETATM   14  C   UNK N   1      35.295  13.549  12.176  0.00  0.00     0.102 A 
HETATM   15  C   UNK N   1      36.657  13.213  12.186  0.00  0.00     0.132 A 
HETATM   16  C   UNK N   1      37.464  13.551  11.093  0.00  0.00     0.102 A 
HETATM   17  C   UNK N   1      36.911  14.217  10.004  0.00  0.00     0.054 A 
BRANCH  14  18
HETATM   18  O   UNK N   1      34.510  13.230  13.219  0.00  0.00    -0.358 OA
HETATM   19  H   UNK N   1      34.890  12.886  14.003  0.00  0.00     0.217 HD
ENDBRANCH  14  18
BRANCH  15  20
HETATM   20  O   UNK N   1      37.186  12.568  13.241  0.00  0.00    -0.356 OA
HETATM   21  H   UNK N   1      37.489  13.055  13.983  0.00  0.00     0.218 HD
ENDBRANCH  15  20
BRANCH  16  22
HETATM   22  O   UNK N   1      38.771  13.236  11.086  0.00  0.00    -0.358 OA
HETATM   23  H   UNK N   1      39.399  13.854  10.769  0.00  0.00     0.217 HD
ENDBRANCH  16  22
ENDBRANCH   8  12
BRANCH   7  24
HETATM   24  O   UNK N   1      35.224  17.468   9.751  0.00  0.00    -0.355 OA
HETATM   25  H   UNK N   1      36.123  17.554   9.999  0.00  0.00     0.218 HD
ENDBRANCH   7  24
BRANCH   3  26
HETATM   26  O   UNK N   1      33.318  18.205   5.034  0.00  0.00    -0.360 OA
HETATM   27  H   UNK N   1      32.986  18.744   5.724  0.00  0.00     0.217 HD
ENDBRANCH   3  26
BRANCH   1  28
HETATM   28  O   UNK N   1      33.044  13.763   3.410  0.00  0.00    -0.361 OA
HETATM   29  H   UNK N   1      33.372  12.885   3.428  0.00  0.00     0.217 HD
ENDBRANCH   1  28
TORSDOF 7
ENDMDL
MODEL 9
REMARK VINA RESULT:      -6.6     10.365     13.356
REMARK  7 active torsions:
REMARK  status: ('A' for Active; 'I' for Inactive)
REMARK    1  A    between atoms: O_1  and  C_2 
REMARK    2  A    between atoms: C_4  and  O_5 
REMARK    3  A    between atoms: C_9  and  O_10 
REMARK    4  A    between atoms: C_11  and  C_15 
REMARK    5  A    between atoms: C_17  and  O_18 
REMARK    6  A    between atoms: C_19  and  O_20 
REMARK    7  A    between atoms: C_21  and  O_22 
ROOT
HETATM    1  C   UNK N   1      28.483  17.880   8.648  0.00  0.00     0.071 A 
HETATM    2  C   UNK N   1      28.427  18.020   7.259  0.00  0.00     0.074 A 
HETATM    3  C   UNK N   1      29.484  17.575   6.457  0.00  0.00     0.085 A 
HETATM    4  C   UNK N   1      30.619  16.977   7.056  0.00  0.00     0.084 A 
HETATM    5  C   UNK N   1      31.725  16.503   6.319  0.00  0.00     0.223 A 
HETATM    6  O   UNK N   1      31.752  16.589   5.101  0.00  0.00    -0.284 OA
HETATM    7  C   UNK N   1      32.806  15.925   6.996  0.00  0.00     0.152 A 
HETATM    8  C   UNK N   1      32.761  15.832   8.406  0.00  0.00     0.123 A 
HETATM    9  O   UNK N   1      31.699  16.292   9.059  0.00  0.00    -0.306 OA
HETATM   10  C   UNK N   1      30.657  16.844   8.461  0.00  0.00     0.096 A 
HETATM   11  C   UNK N   1      29.595  17.294   9.243  0.00  0.00     0.075 A 
ENDROOT
BRANCH   8  12
HETATM   12  C   UNK N   1      33.844  15.241   9.224  0.00  0.00     0.006 A 
HETATM   13  C   UNK N   1      33.887  13.880   9.558  0.00  0.00     0.054 A 
HETATM   14  C   UNK N   1      34.934  13.377  10.334  0.00  0.00     0.102 A 
HETATM   15  C   UNK N   1      35.951  14.234  10.783  0.00  0.00     0.132 A 
HETATM   16  C   UNK N   1      35.911  15.592  10.451  0.00  0.00     0.102 A 
HETATM   17  C   UNK N   1      34.865  16.087   9.678  0.00  0.00     0.054 A 
BRANCH  14  18
HETATM   18  O   UNK N   1      34.961  12.070  10.646  0.00  0.00    -0.358 OA
HETATM   19  H   UNK N   1      34.255  11.512  10.385  0.00  0.00     0.217 HD
ENDBRANCH  14  18
BRANCH  15  20
HETATM   20  O   UNK N   1      36.960  13.751  11.530  0.00  0.00    -0.356 OA
HETATM   21  H   UNK N   1      36.905  12.887  11.890  0.00  0.00     0.218 HD
ENDBRANCH  15  20
BRANCH  16  22
HETATM   22  O   UNK N   1      36.877  16.427  10.873  0.00  0.00    -0.358 OA
HETATM   23  H   UNK N   1      37.739  16.367  10.511  0.00  0.00     0.217 HD
ENDBRANCH  16  22
ENDBRANCH   8  12
BRANCH   7  24
HETATM   24  O   UNK N   1      33.864  15.470   6.296  0.00  0.00    -0.355 OA
HETATM   25  H   UNK N   1      34.277  16.022   5.662  0.00  0.00     0.218 HD
ENDBRANCH   7  24
BRANCH   3  26
HETATM   26  O   UNK N   1      29.396  17.726   5.123  0.00  0.00    -0.360 OA
HETATM   27  H   UNK N   1      29.058  18.523   4.764  0.00  0.00     0.217 HD
ENDBRANCH   3  26
BRANCH   1  28
HETATM   28  O   UNK N   1      27.466  18.309   9.411  0.00  0.00    -0.361 OA
HETATM   29  H   UNK N   1      27.579  19.057   9.964  0.00  0.00     0.217 HD
ENDBRANCH   1  28
TORSDOF 7
ENDMDL
