MODEL 1
REMARK VINA RESULT:      -8.6      0.000      0.000
REMARK  11 active torsions:
REMARK  status: ('A' for Active; 'I' for Inactive)
REMARK    1  A    between atoms: N_2  and  C_5 
REMARK    2  A    between atoms: C_8  and  C_9 
REMARK    3  A    between atoms: C_9  and  N_10 
REMARK       I    between atoms: N_10  and  C_11 
REMARK    4  A    between atoms: C_11  and  C_13 
REMARK    5  A    between atoms: C_19  and  O_20 
REMARK    6  A    between atoms: O_20  and  C_21 
REMARK    7  A    between atoms: C_21  and  C_22 
REMARK    8  A    between atoms: N_29  and  C_30 
REMARK    9  A    between atoms: C_30  and  C_31 
REMARK   10  A    between atoms: C_35  and  C_37 
REMARK   11  A    between atoms: C_37  and  N_38 
ROOT
HETATM    1  C   UNK N   1      22.039  18.361   4.777  0.00  0.00     0.104 A 
HETATM    2  C   UNK N   1      21.255  18.127   5.901  0.00  0.00     0.049 A 
HETATM    3  C   UNK N   1      21.800  17.008   6.479  0.00  0.00    -0.004 A 
HETATM    4  C   UNK N   1      22.834  16.590   5.707  0.00  0.00     0.045 A 
HETATM    5  C   UNK N   1      23.455  15.356   5.947  0.00  0.00     0.033 A 
HETATM    6  C   UNK N   1      22.977  14.551   6.981  0.00  0.00     0.039 A 
HETATM    7  C   UNK N   1      21.912  15.002   7.775  0.00  0.00     0.070 A 
HETATM    8  C   UNK N   1      21.338  16.270   7.543  0.00  0.00     0.050 A 
HETATM    9  N   UNK N   1      23.062  17.455   4.701  0.00  0.00    -0.337 N 
ENDROOT
BRANCH   1  10
HETATM   10  C   UNK N   1      21.520  19.163   3.651  0.00  0.00     0.268 C 
HETATM   11  N   UNK N   1      20.435  18.804   2.943  0.00  0.00    -0.351 N 
HETATM   12  H   UNK N   1      20.215  19.298   2.120  0.00  0.00     0.163 HD
HETATM   13  O   UNK N   1      22.184  20.112   3.267  0.00  0.00    -0.266 OA
BRANCH  11  14
HETATM   14  C   UNK N   1      19.592  17.727   3.355  0.00  0.00     0.161 C 
BRANCH  14  15
HETATM   15  C   UNK N   1      20.204  16.468   2.873  0.00  0.00    -0.040 A 
HETATM   16  C   UNK N   1      20.791  16.427   1.611  0.00  0.00     0.011 A 
HETATM   17  C   UNK N   1      21.301  15.226   1.120  0.00  0.00     0.038 A 
HETATM   18  C   UNK N   1      21.243  14.047   1.895  0.00  0.00     0.135 A 
HETATM   19  C   UNK N   1      20.686  14.121   3.189  0.00  0.00     0.038 A 
HETATM   20  C   UNK N   1      20.175  15.323   3.674  0.00  0.00     0.011 A 
BRANCH  18  21
HETATM   21  N   UNK N   1      21.621  12.786   1.314  0.00  0.00    -0.049 N 
HETATM   22  C   UNK N   1      22.586  13.035   0.274  0.00  0.00     0.278 C 
HETATM   23  C   UNK N   1      20.502  12.074   0.741  0.00  0.00     0.278 C 
HETATM   24  C   UNK N   1      22.262  11.951   2.299  0.00  0.00     0.278 C 
ENDBRANCH  18  21
ENDBRANCH  14  15
ENDBRANCH  11  14
ENDBRANCH   1  10
BRANCH   9  25
HETATM   25  C   UNK N   1      24.157  17.367   3.710  0.00  0.00     0.168 C 
BRANCH  25  26
HETATM   26  C   UNK N   1      25.266  18.388   4.027  0.00  0.00    -0.039 A 
HETATM   27  C   UNK N   1      25.509  19.536   3.255  0.00  0.00     0.009 A 
HETATM   28  C   UNK N   1      26.534  20.432   3.636  0.00  0.00     0.002 A 
HETATM   29  C   UNK N   1      27.298  20.201   4.797  0.00  0.00     0.015 A 
HETATM   30  C   UNK N   1      27.064  19.050   5.556  0.00  0.00     0.007 A 
HETATM   31  C   UNK N   1      26.075  18.179   5.137  0.00  0.00     0.024 A 
BRANCH  30  32
HETATM   32  C   UNK N   1      27.808  18.725   6.801  0.00  0.00     0.102 C 
HETATM   33  N   UNK N   1      28.822  17.943   6.774  0.00  0.00    -0.385 N 
HETATM   34  H   UNK N   1      29.515  17.756   7.448  0.00  0.00     0.157 HD
ATOM     35  HN  UNK N   1      28.930  17.422   5.903  1.00  0.00     0.157 HD
BRANCH  32  36
HETATM   36  N   UNK N   1      27.412  19.299   8.033  0.00  0.00    -0.385 N 
HETATM   37  H   UNK N   1      26.466  19.328   8.304  0.00  0.00     0.157 HD
HETATM   38  H   UNK N   1      28.097  19.677   8.632  0.00  0.00     0.157 HD
ENDBRANCH  32  36
ENDBRANCH  30  32
ENDBRANCH  25  26
ENDBRANCH   9  25
BRANCH   7  39
HETATM   39  O   UNK N   1      21.247  14.124   8.556  0.00  0.00    -0.347 OA
BRANCH  39  40
HETATM   40  C   UNK N   1      21.560  12.763   8.476  0.00  0.00     0.214 C 
BRANCH  40  41
HETATM   41  C   UNK N   1      22.290  12.288   9.715  0.00  0.00    -0.034 A 
HETATM   42  C   UNK N   1      23.690  12.233   9.715  0.00  0.00     0.009 A 
HETATM   43  C   UNK N   1      24.387  12.054  10.914  0.00  0.00     0.001 A 
HETATM   44  C   UNK N   1      23.691  11.958  12.123  0.00  0.00     0.000 A 
HETATM   45  C   UNK N   1      22.294  12.020  12.132  0.00  0.00     0.001 A 
HETATM   46  C   UNK N   1      21.594  12.196  10.933  0.00  0.00     0.009 A 
ENDBRANCH  40  41
ENDBRANCH  39  40
ENDBRANCH   7  39
TORSDOF 11
ENDMDL
MODEL 2
REMARK VINA RESULT:      -8.5      8.270     11.753
REMARK  11 active torsions:
REMARK  status: ('A' for Active; 'I' for Inactive)
REMARK    1  A    between atoms: N_2  and  C_5 
REMARK    2  A    between atoms: C_8  and  C_9 
REMARK    3  A    between atoms: C_9  and  N_10 
REMARK       I    between atoms: N_10  and  C_11 
REMARK    4  A    between atoms: C_11  and  C_13 
REMARK    5  A    between atoms: C_19  and  O_20 
REMARK    6  A    between atoms: O_20  and  C_21 
REMARK    7  A    between atoms: C_21  and  C_22 
REMARK    8  A    between atoms: N_29  and  C_30 
REMARK    9  A    between atoms: C_30  and  C_31 
REMARK   10  A    between atoms: C_35  and  C_37 
REMARK   11  A    between atoms: C_37  and  N_38 
ROOT
HETATM    1  C   UNK N   1      35.039  16.829   9.109  0.00  0.00     0.104 A 
HETATM    2  C   UNK N   1      34.923  16.741  10.491  0.00  0.00     0.049 A 
HETATM    3  C   UNK N   1      35.111  15.411  10.772  0.00  0.00    -0.004 A 
HETATM    4  C   UNK N   1      35.294  14.749   9.603  0.00  0.00     0.045 A 
HETATM    5  C   UNK N   1      35.314  13.348   9.567  0.00  0.00     0.033 A 
HETATM    6  C   UNK N   1      35.120  12.641  10.754  0.00  0.00     0.039 A 
HETATM    7  C   UNK N   1      34.941  13.340  11.957  0.00  0.00     0.070 A 
HETATM    8  C   UNK N   1      34.974  14.752  11.971  0.00  0.00     0.050 A 
HETATM    9  N   UNK N   1      35.345  15.609   8.568  0.00  0.00    -0.337 N 
ENDROOT
BRANCH   1  10
HETATM   10  C   UNK N   1      34.452  17.967   8.375  0.00  0.00     0.268 C 
HETATM   11  N   UNK N   1      33.148  18.028   8.053  0.00  0.00    -0.351 N 
HETATM   12  H   UNK N   1      32.837  18.739   7.446  0.00  0.00     0.163 HD
HETATM   13  O   UNK N   1      35.207  18.815   7.928  0.00  0.00    -0.266 OA
BRANCH  11  14
HETATM   14  C   UNK N   1      32.202  17.092   8.569  0.00  0.00     0.161 C 
BRANCH  14  15
HETATM   15  C   UNK N   1      30.949  17.245   7.795  0.00  0.00    -0.040 A 
HETATM   16  C   UNK N   1      29.723  17.202   8.456  0.00  0.00     0.011 A 
HETATM   17  C   UNK N   1      28.538  17.269   7.726  0.00  0.00     0.038 A 
HETATM   18  C   UNK N   1      28.561  17.394   6.320  0.00  0.00     0.135 A 
HETATM   19  C   UNK N   1      29.814  17.482   5.675  0.00  0.00     0.038 A 
HETATM   20  C   UNK N   1      30.996  17.412   6.409  0.00  0.00     0.011 A 
BRANCH  18  21
HETATM   21  N   UNK N   1      27.338  17.296   5.568  0.00  0.00    -0.049 N 
HETATM   22  C   UNK N   1      27.661  16.875   4.229  0.00  0.00     0.278 C 
HETATM   23  C   UNK N   1      26.622  18.548   5.497  0.00  0.00     0.278 C 
HETATM   24  C   UNK N   1      26.479  16.288   6.137  0.00  0.00     0.278 C 
ENDBRANCH  18  21
ENDBRANCH  14  15
ENDBRANCH  11  14
ENDBRANCH   1  10
BRANCH   9  25
HETATM   25  C   UNK N   1      35.611  15.255   7.157  0.00  0.00     0.168 C 
BRANCH  25  26
HETATM   26  C   UNK N   1      34.296  14.966   6.408  0.00  0.00    -0.039 A 
HETATM   27  C   UNK N   1      33.254  14.188   6.939  0.00  0.00     0.009 A 
HETATM   28  C   UNK N   1      32.071  13.995   6.189  0.00  0.00     0.002 A 
HETATM   29  C   UNK N   1      31.914  14.596   4.924  0.00  0.00     0.015 A 
HETATM   30  C   UNK N   1      32.958  15.358   4.391  0.00  0.00     0.007 A 
HETATM   31  C   UNK N   1      34.113  15.501   5.138  0.00  0.00     0.024 A 
BRANCH  30  32
HETATM   32  C   UNK N   1      32.883  16.042   3.074  0.00  0.00     0.102 C 
HETATM   33  N   UNK N   1      33.727  15.776   2.148  0.00  0.00    -0.385 N 
HETATM   34  H   UNK N   1      33.728  15.997   1.188  0.00  0.00     0.157 HD
ATOM     35  HN  UNK N   1      34.539  15.242   2.458  1.00  0.00     0.157 HD
BRANCH  32  36
HETATM   36  N   UNK N   1      31.858  16.986   2.823  0.00  0.00    -0.385 N 
HETATM   37  H   UNK N   1      31.929  17.916   3.137  0.00  0.00     0.157 HD
HETATM   38  H   UNK N   1      31.057  16.706   2.323  0.00  0.00     0.157 HD
ENDBRANCH  32  36
ENDBRANCH  30  32
ENDBRANCH  25  26
ENDBRANCH   9  25
BRANCH   7  39
HETATM   39  O   UNK N   1      34.448  12.694  13.035  0.00  0.00    -0.347 OA
BRANCH  39  40
HETATM   40  C   UNK N   1      35.205  11.678  13.628  0.00  0.00     0.214 C 
BRANCH  40  41
HETATM   41  C   UNK N   1      35.411  11.931  15.106  0.00  0.00    -0.034 A 
HETATM   42  C   UNK N   1      34.903  13.101  15.686  0.00  0.00     0.009 A 
HETATM   43  C   UNK N   1      34.850  13.231  17.077  0.00  0.00     0.001 A 
HETATM   44  C   UNK N   1      35.277  12.182  17.897  0.00  0.00     0.000 A 
HETATM   45  C   UNK N   1      35.778  11.009  17.327  0.00  0.00     0.001 A 
HETATM   46  C   UNK N   1      35.835  10.877  15.935  0.00  0.00     0.009 A 
ENDBRANCH  40  41
ENDBRANCH  39  40
ENDBRANCH   7  39
TORSDOF 11
ENDMDL
MODEL 3
REMARK VINA RESULT:      -8.5      5.997     10.066
REMARK  11 active torsions:
REMARK  status: ('A' for Active; 'I' for Inactive)
REMARK    1  A    between atoms: N_2  and  C_5 
REMARK    2  A    between atoms: C_8  and  C_9 
REMARK    3  A    between atoms: C_9  and  N_10 
REMARK       I    between atoms: N_10  and  C_11 
REMARK    4  A    between atoms: C_11  and  C_13 
REMARK    5  A    between atoms: C_19  and  O_20 
REMARK    6  A    between atoms: O_20  and  C_21 
REMARK    7  A    between atoms: C_21  and  C_22 
REMARK    8  A    between atoms: N_29  and  C_30 
REMARK    9  A    between atoms: C_30  and  C_31 
REMARK   10  A    between atoms: C_35  and  C_37 
REMARK   11  A    between atoms: C_37  and  N_38 
ROOT
HETATM    1  C   UNK N   1      30.990  14.453   3.851  0.00  0.00     0.104 A 
HETATM    2  C   UNK N   1      30.074  13.411   3.938  0.00  0.00     0.049 A 
HETATM    3  C   UNK N   1      28.933  13.991   4.431  0.00  0.00    -0.004 A 
HETATM    4  C   UNK N   1      29.183  15.305   4.653  0.00  0.00     0.045 A 
HETATM    5  C   UNK N   1      28.260  16.106   5.340  0.00  0.00     0.033 A 
HETATM    6  C   UNK N   1      27.084  15.523   5.813  0.00  0.00     0.039 A 
HETATM    7  C   UNK N   1      26.836  14.164   5.569  0.00  0.00     0.070 A 
HETATM    8  C   UNK N   1      27.761  13.393   4.831  0.00  0.00     0.050 A 
HETATM    9  N   UNK N   1      30.413  15.638   4.220  0.00  0.00    -0.337 N 
ENDROOT
BRANCH   1  10
HETATM   10  C   UNK N   1      32.441  14.180   3.817  0.00  0.00     0.268 C 
HETATM   11  N   UNK N   1      33.128  13.773   4.899  0.00  0.00    -0.351 N 
HETATM   12  H   UNK N   1      34.111  13.740   4.857  0.00  0.00     0.163 HD
HETATM   13  O   UNK N   1      33.056  14.467   2.803  0.00  0.00    -0.266 OA
BRANCH  11  14
HETATM   14  C   UNK N   1      32.469  13.387   6.105  0.00  0.00     0.161 C 
BRANCH  14  15
HETATM   15  C   UNK N   1      33.265  13.909   7.239  0.00  0.00    -0.040 A 
HETATM   16  C   UNK N   1      34.617  14.191   7.058  0.00  0.00     0.011 A 
HETATM   17  C   UNK N   1      35.390  14.610   8.140  0.00  0.00     0.038 A 
HETATM   18  C   UNK N   1      34.816  14.767   9.420  0.00  0.00     0.135 A 
HETATM   19  C   UNK N   1      33.435  14.520   9.571  0.00  0.00     0.038 A 
HETATM   20  C   UNK N   1      32.667  14.099   8.487  0.00  0.00     0.011 A 
BRANCH  18  21
HETATM   21  N   UNK N   1      35.656  15.039  10.557  0.00  0.00    -0.049 N 
HETATM   22  C   UNK N   1      37.010  14.682  10.217  0.00  0.00     0.278 C 
HETATM   23  C   UNK N   1      35.266  14.295  11.732  0.00  0.00     0.278 C 
HETATM   24  C   UNK N   1      35.649  16.447  10.861  0.00  0.00     0.278 C 
ENDBRANCH  18  21
ENDBRANCH  14  15
ENDBRANCH  11  14
ENDBRANCH   1  10
BRANCH   9  25
HETATM   25  C   UNK N   1      30.998  16.997   4.225  0.00  0.00     0.168 C 
BRANCH  25  26
HETATM   26  C   UNK N   1      31.781  17.251   5.528  0.00  0.00    -0.039 A 
HETATM   27  C   UNK N   1      33.173  17.428   5.576  0.00  0.00     0.009 A 
HETATM   28  C   UNK N   1      33.804  17.682   6.815  0.00  0.00     0.002 A 
HETATM   29  C   UNK N   1      33.049  17.785   8.001  0.00  0.00     0.015 A 
HETATM   30  C   UNK N   1      31.664  17.594   7.952  0.00  0.00     0.007 A 
HETATM   31  C   UNK N   1      31.084  17.317   6.728  0.00  0.00     0.024 A 
BRANCH  30  32
HETATM   32  C   UNK N   1      30.782  17.696   9.143  0.00  0.00     0.102 C 
HETATM   33  N   UNK N   1      30.277  18.822   9.491  0.00  0.00    -0.385 N 
HETATM   34  H   UNK N   1      29.559  19.042  10.128  0.00  0.00     0.157 HD
ATOM     35  HN  UNK N   1      30.691  19.630   9.027  1.00  0.00     0.157 HD
BRANCH  32  36
HETATM   36  N   UNK N   1      30.471  16.539   9.898  0.00  0.00    -0.385 N 
HETATM   37  H   UNK N   1      30.796  15.650   9.628  0.00  0.00     0.157 HD
HETATM   38  H   UNK N   1      29.919  16.626  10.709  0.00  0.00     0.157 HD
ENDBRANCH  32  36
ENDBRANCH  30  32
ENDBRANCH  25  26
ENDBRANCH   9  25
BRANCH   7  39
HETATM   39  O   UNK N   1      25.879  13.525   6.274  0.00  0.00    -0.347 OA
BRANCH  39  40
HETATM   40  C   UNK N   1      25.420  14.087   7.470  0.00  0.00     0.214 C 
BRANCH  40  41
HETATM   41  C   UNK N   1      24.748  13.052   8.347  0.00  0.00    -0.034 A 
HETATM   42  C   UNK N   1      24.894  13.124   9.739  0.00  0.00     0.009 A 
HETATM   43  C   UNK N   1      24.080  12.350  10.573  0.00  0.00     0.001 A 
HETATM   44  C   UNK N   1      23.097  11.522  10.022  0.00  0.00     0.000 A 
HETATM   45  C   UNK N   1      22.940  11.450   8.635  0.00  0.00     0.001 A 
HETATM   46  C   UNK N   1      23.755  12.221   7.798  0.00  0.00     0.009 A 
ENDBRANCH  40  41
ENDBRANCH  39  40
ENDBRANCH   7  39
TORSDOF 11
ENDMDL
MODEL 4
REMARK VINA RESULT:      -8.4     13.543     16.356
REMARK  11 active torsions:
REMARK  status: ('A' for Active; 'I' for Inactive)
REMARK    1  A    between atoms: N_2  and  C_5 
REMARK    2  A    between atoms: C_8  and  C_9 
REMARK    3  A    between atoms: C_9  and  N_10 
REMARK       I    between atoms: N_10  and  C_11 
REMARK    4  A    between atoms: C_11  and  C_13 
REMARK    5  A    between atoms: C_19  and  O_20 
REMARK    6  A    between atoms: O_20  and  C_21 
REMARK    7  A    between atoms: C_21  and  C_22 
REMARK    8  A    between atoms: N_29  and  C_30 
REMARK    9  A    between atoms: C_30  and  C_31 
REMARK   10  A    between atoms: C_35  and  C_37 
REMARK   11  A    between atoms: C_37  and  N_38 
ROOT
HETATM    1  C   UNK N   1      29.546  24.161  -4.726  0.00  0.00     0.104 A 
HETATM    2  C   UNK N   1      30.150  23.723  -5.899  0.00  0.00     0.049 A 
HETATM    3  C   UNK N   1      29.116  23.252  -6.668  0.00  0.00    -0.004 A 
HETATM    4  C   UNK N   1      27.965  23.378  -5.961  0.00  0.00     0.045 A 
HETATM    5  C   UNK N   1      26.775  22.799  -6.419  0.00  0.00     0.033 A 
HETATM    6  C   UNK N   1      26.795  22.067  -7.607  0.00  0.00     0.039 A 
HETATM    7  C   UNK N   1      27.991  21.952  -8.331  0.00  0.00     0.070 A 
HETATM    8  C   UNK N   1      29.164  22.588  -7.872  0.00  0.00     0.050 A 
HETATM    9  N   UNK N   1      28.187  24.018  -4.798  0.00  0.00    -0.337 N 
ENDROOT
BRANCH   1  10
HETATM   10  C   UNK N   1      30.328  24.297  -3.481  0.00  0.00     0.268 C 
HETATM   11  N   UNK N   1      30.519  23.276  -2.629  0.00  0.00    -0.351 N 
HETATM   12  H   UNK N   1      30.928  23.454  -1.751  0.00  0.00     0.163 HD
HETATM   13  O   UNK N   1      30.697  25.413  -3.153  0.00  0.00    -0.266 OA
BRANCH  11  14
HETATM   14  C   UNK N   1      30.147  21.938  -2.963  0.00  0.00     0.161 C 
BRANCH  14  15
HETATM   15  C   UNK N   1      31.328  21.279  -3.565  0.00  0.00    -0.040 A 
HETATM   16  C   UNK N   1      31.187  20.571  -4.756  0.00  0.00     0.011 A 
HETATM   17  C   UNK N   1      32.277  19.884  -5.289  0.00  0.00     0.038 A 
HETATM   18  C   UNK N   1      33.532  19.909  -4.643  0.00  0.00     0.135 A 
HETATM   19  C   UNK N   1      33.664  20.670  -3.462  0.00  0.00     0.038 A 
HETATM   20  C   UNK N   1      32.571  21.353  -2.932  0.00  0.00     0.011 A 
BRANCH  18  21
HETATM   21  N   UNK N   1      34.599  19.065  -5.112  0.00  0.00    -0.049 N 
HETATM   22  C   UNK N   1      35.844  19.769  -4.938  0.00  0.00     0.278 C 
HETATM   23  C   UNK N   1      34.463  18.712  -6.506  0.00  0.00     0.278 C 
HETATM   24  C   UNK N   1      34.674  17.863  -4.321  0.00  0.00     0.278 C 
ENDBRANCH  18  21
ENDBRANCH  14  15
ENDBRANCH  11  14
ENDBRANCH   1  10
BRANCH   9  25
HETATM   25  C   UNK N   1      27.156  24.403  -3.808  0.00  0.00     0.168 C 
BRANCH  25  26
HETATM   26  C   UNK N   1      26.426  25.686  -4.250  0.00  0.00    -0.039 A 
HETATM   27  C   UNK N   1      25.408  25.708  -5.216  0.00  0.00     0.009 A 
HETATM   28  C   UNK N   1      24.776  26.930  -5.541  0.00  0.00     0.002 A 
HETATM   29  C   UNK N   1      25.138  28.125  -4.887  0.00  0.00     0.015 A 
HETATM   30  C   UNK N   1      26.163  28.103  -3.935  0.00  0.00     0.007 A 
HETATM   31  C   UNK N   1      26.780  26.896  -3.664  0.00  0.00     0.024 A 
BRANCH  30  32
HETATM   32  C   UNK N   1      26.606  29.306  -3.183  0.00  0.00     0.102 C 
HETATM   33  N   UNK N   1      27.384  29.196  -2.171  0.00  0.00    -0.385 N 
HETATM   34  H   UNK N   1      27.900  29.871  -1.673  0.00  0.00     0.157 HD
ATOM     35  HN  UNK N   1      27.487  28.244  -1.820  1.00  0.00     0.157 HD
BRANCH  32  36
HETATM   36  N   UNK N   1      26.187  30.594  -3.594  0.00  0.00    -0.385 N 
HETATM   37  H   UNK N   1      26.659  31.405  -3.296  0.00  0.00     0.157 HD
HETATM   38  H   UNK N   1      25.408  30.681  -4.190  0.00  0.00     0.157 HD
ENDBRANCH  32  36
ENDBRANCH  30  32
ENDBRANCH  25  26
ENDBRANCH   9  25
BRANCH   7  39
HETATM   39  O   UNK N   1      28.100  21.009  -9.290  0.00  0.00    -0.347 OA
BRANCH  39  40
HETATM   40  C   UNK N   1      29.298  20.893 -10.003  0.00  0.00     0.214 C 
BRANCH  40  41
HETATM   41  C   UNK N   1      29.701  19.444 -10.177  0.00  0.00    -0.034 A 
HETATM   42  C   UNK N   1      29.691  18.871 -11.456  0.00  0.00     0.009 A 
HETATM   43  C   UNK N   1      30.303  17.633 -11.676  0.00  0.00     0.001 A 
HETATM   44  C   UNK N   1      30.953  16.974 -10.628  0.00  0.00     0.000 A 
HETATM   45  C   UNK N   1      30.973  17.542  -9.351  0.00  0.00     0.001 A 
HETATM   46  C   UNK N   1      30.359  18.780  -9.126  0.00  0.00     0.009 A 
ENDBRANCH  40  41
ENDBRANCH  39  40
ENDBRANCH   7  39
TORSDOF 11
ENDMDL
MODEL 5
REMARK VINA RESULT:      -8.3      9.089     14.164
REMARK  11 active torsions:
REMARK  status: ('A' for Active; 'I' for Inactive)
REMARK    1  A    between atoms: N_2  and  C_5 
REMARK    2  A    between atoms: C_8  and  C_9 
REMARK    3  A    between atoms: C_9  and  N_10 
REMARK       I    between atoms: N_10  and  C_11 
REMARK    4  A    between atoms: C_11  and  C_13 
REMARK    5  A    between atoms: C_19  and  O_20 
REMARK    6  A    between atoms: O_20  and  C_21 
REMARK    7  A    between atoms: C_21  and  C_22 
REMARK    8  A    between atoms: N_29  and  C_30 
REMARK    9  A    between atoms: C_30  and  C_31 
REMARK   10  A    between atoms: C_35  and  C_37 
REMARK   11  A    between atoms: C_37  and  N_38 
ROOT
HETATM    1  C   UNK N   1      33.855  16.251   8.625  0.00  0.00     0.104 A 
HETATM    2  C   UNK N   1      32.537  16.682   8.535  0.00  0.00     0.049 A 
HETATM    3  C   UNK N   1      32.247  16.636   7.195  0.00  0.00    -0.004 A 
HETATM    4  C   UNK N   1      33.357  16.229   6.531  0.00  0.00     0.045 A 
HETATM    5  C   UNK N   1      33.415  16.277   5.131  0.00  0.00     0.033 A 
HETATM    6  C   UNK N   1      32.317  16.773   4.429  0.00  0.00     0.039 A 
HETATM    7  C   UNK N   1      31.172  17.183   5.129  0.00  0.00     0.070 A 
HETATM    8  C   UNK N   1      31.123  17.077   6.536  0.00  0.00     0.050 A 
HETATM    9  N   UNK N   1      34.336  15.897   7.394  0.00  0.00    -0.337 N 
ENDROOT
BRANCH   1  10
HETATM   10  C   UNK N   1      34.681  16.594   9.801  0.00  0.00     0.268 C 
HETATM   11  N   UNK N   1      34.665  15.871  10.934  0.00  0.00    -0.351 N 
HETATM   12  H   UNK N   1      35.126  16.220  11.731  0.00  0.00     0.163 HD
HETATM   13  O   UNK N   1      35.294  17.649   9.785  0.00  0.00    -0.266 OA
BRANCH  11  14
HETATM   14  C   UNK N   1      33.999  14.610  11.011  0.00  0.00     0.161 C 
BRANCH  14  15
HETATM   15  C   UNK N   1      34.824  13.717  11.857  0.00  0.00    -0.040 A 
HETATM   16  C   UNK N   1      34.626  12.339  11.799  0.00  0.00     0.011 A 
HETATM   17  C   UNK N   1      35.344  11.498  12.646  0.00  0.00     0.038 A 
HETATM   18  C   UNK N   1      36.285  12.024  13.558  0.00  0.00     0.135 A 
HETATM   19  C   UNK N   1      36.503  13.418  13.568  0.00  0.00     0.038 A 
HETATM   20  C   UNK N   1      35.781  14.255  12.721  0.00  0.00     0.011 A 
BRANCH  18  21
HETATM   21  N   UNK N   1      36.896  11.164  14.537  0.00  0.00    -0.049 N 
HETATM   22  C   UNK N   1      36.436  11.563  15.842  0.00  0.00     0.278 C 
HETATM   23  C   UNK N   1      38.340  11.230  14.519  0.00  0.00     0.278 C 
HETATM   24  C   UNK N   1      36.481   9.799  14.336  0.00  0.00     0.278 C 
ENDBRANCH  18  21
ENDBRANCH  14  15
ENDBRANCH  11  14
ENDBRANCH   1  10
BRANCH   9  25
HETATM   25  C   UNK N   1      35.658  15.337   7.035  0.00  0.00     0.168 C 
BRANCH  25  26
HETATM   26  C   UNK N   1      35.817  13.909   7.591  0.00  0.00    -0.039 A 
HETATM   27  C   UNK N   1      35.091  12.805   7.116  0.00  0.00     0.009 A 
HETATM   28  C   UNK N   1      35.320  11.525   7.669  0.00  0.00     0.002 A 
HETATM   29  C   UNK N   1      36.288  11.339   8.677  0.00  0.00     0.015 A 
HETATM   30  C   UNK N   1      36.999  12.442   9.160  0.00  0.00     0.007 A 
HETATM   31  C   UNK N   1      36.727  13.685   8.617  0.00  0.00     0.024 A 
BRANCH  30  32
HETATM   32  C   UNK N   1      38.047  12.346  10.209  0.00  0.00     0.102 C 
HETATM   33  N   UNK N   1      38.656  13.394  10.625  0.00  0.00    -0.385 N 
HETATM   34  H   UNK N   1      39.236  13.539  11.407  0.00  0.00     0.157 HD
ATOM     35  HN  UNK N   1      38.514  14.222  10.046  1.00  0.00     0.157 HD
BRANCH  32  36
HETATM   36  N   UNK N   1      38.369  11.090  10.776  0.00  0.00    -0.385 N 
HETATM   37  H   UNK N   1      39.014  10.483  10.344  0.00  0.00     0.157 HD
HETATM   38  H   UNK N   1      37.940  10.816  11.619  0.00  0.00     0.157 HD
ENDBRANCH  32  36
ENDBRANCH  30  32
ENDBRANCH  25  26
ENDBRANCH   9  25
BRANCH   7  39
HETATM   39  O   UNK N   1      30.247  17.941   4.505  0.00  0.00    -0.347 OA
BRANCH  39  40
HETATM   40  C   UNK N   1      28.891  17.734   4.782  0.00  0.00     0.214 C 
BRANCH  40  41
HETATM   41  C   UNK N   1      28.190  19.032   5.120  0.00  0.00    -0.034 A 
HETATM   42  C   UNK N   1      27.496  19.725   4.118  0.00  0.00     0.009 A 
HETATM   43  C   UNK N   1      26.632  20.771   4.456  0.00  0.00     0.001 A 
HETATM   44  C   UNK N   1      26.433  21.112   5.798  0.00  0.00     0.000 A 
HETATM   45  C   UNK N   1      27.116  20.422   6.803  0.00  0.00     0.001 A 
HETATM   46  C   UNK N   1      27.984  19.376   6.468  0.00  0.00     0.009 A 
ENDBRANCH  40  41
ENDBRANCH  39  40
ENDBRANCH   7  39
TORSDOF 11
ENDMDL
MODEL 6
REMARK VINA RESULT:      -8.3      8.534     11.619
REMARK  11 active torsions:
REMARK  status: ('A' for Active; 'I' for Inactive)
REMARK    1  A    between atoms: N_2  and  C_5 
REMARK    2  A    between atoms: C_8  and  C_9 
REMARK    3  A    between atoms: C_9  and  N_10 
REMARK       I    between atoms: N_10  and  C_11 
REMARK    4  A    between atoms: C_11  and  C_13 
REMARK    5  A    between atoms: C_19  and  O_20 
REMARK    6  A    between atoms: O_20  and  C_21 
REMARK    7  A    between atoms: C_21  and  C_22 
REMARK    8  A    between atoms: N_29  and  C_30 
REMARK    9  A    between atoms: C_30  and  C_31 
REMARK   10  A    between atoms: C_35  and  C_37 
REMARK   11  A    between atoms: C_37  and  N_38 
ROOT
HETATM    1  C   UNK N   1      34.755  14.845   7.549  0.00  0.00     0.104 A 
HETATM    2  C   UNK N   1      35.065  13.733   8.322  0.00  0.00     0.049 A 
HETATM    3  C   UNK N   1      35.170  14.215   9.602  0.00  0.00    -0.004 A 
HETATM    4  C   UNK N   1      34.964  15.555   9.571  0.00  0.00     0.045 A 
HETATM    5  C   UNK N   1      35.203  16.345  10.704  0.00  0.00     0.033 A 
HETATM    6  C   UNK N   1      35.680  15.732  11.863  0.00  0.00     0.039 A 
HETATM    7  C   UNK N   1      35.881  14.344  11.882  0.00  0.00     0.070 A 
HETATM    8  C   UNK N   1      35.585  13.566  10.741  0.00  0.00     0.050 A 
HETATM    9  N   UNK N   1      34.616  15.958   8.334  0.00  0.00    -0.337 N 
ENDROOT
BRANCH   1  10
HETATM   10  C   UNK N   1      35.016  14.850   6.096  0.00  0.00     0.268 C 
HETATM   11  N   UNK N   1      34.393  14.016   5.244  0.00  0.00    -0.351 N 
HETATM   12  H   UNK N   1      34.703  13.966   4.311  0.00  0.00     0.163 HD
HETATM   13  O   UNK N   1      35.929  15.543   5.678  0.00  0.00    -0.266 OA
BRANCH  11  14
HETATM   14  C   UNK N   1      33.294  13.205   5.657  0.00  0.00     0.161 C 
BRANCH  14  15
HETATM   15  C   UNK N   1      32.074  13.734   5.005  0.00  0.00    -0.040 A 
HETATM   16  C   UNK N   1      30.864  13.719   5.694  0.00  0.00     0.011 A 
HETATM   17  C   UNK N   1      29.698  14.144   5.060  0.00  0.00     0.038 A 
HETATM   18  C   UNK N   1      29.729  14.606   3.726  0.00  0.00     0.135 A 
HETATM   19  C   UNK N   1      30.973  14.655   3.062  0.00  0.00     0.038 A 
HETATM   20  C   UNK N   1      32.135  14.227   3.699  0.00  0.00     0.011 A 
BRANCH  18  21
HETATM   21  N   UNK N   1      28.499  14.884   3.033  0.00  0.00    -0.049 N 
HETATM   22  C   UNK N   1      28.249  16.301   3.101  0.00  0.00     0.278 C 
HETATM   23  C   UNK N   1      27.366  14.190   3.600  0.00  0.00     0.278 C 
HETATM   24  C   UNK N   1      28.619  14.539   1.638  0.00  0.00     0.278 C 
ENDBRANCH  18  21
ENDBRANCH  14  15
ENDBRANCH  11  14
ENDBRANCH   1  10
BRANCH   9  25
HETATM   25  C   UNK N   1      34.239  17.334   7.942  0.00  0.00     0.168 C 
BRANCH  25  26
HETATM   26  C   UNK N   1      32.791  17.375   7.416  0.00  0.00    -0.039 A 
HETATM   27  C   UNK N   1      32.458  17.347   6.053  0.00  0.00     0.009 A 
HETATM   28  C   UNK N   1      31.100  17.364   5.662  0.00  0.00     0.002 A 
HETATM   29  C   UNK N   1      30.073  17.383   6.627  0.00  0.00     0.015 A 
HETATM   30  C   UNK N   1      30.407  17.426   7.984  0.00  0.00     0.007 A 
HETATM   31  C   UNK N   1      31.745  17.439   8.330  0.00  0.00     0.024 A 
BRANCH  30  32
HETATM   32  C   UNK N   1      29.398  17.434   9.075  0.00  0.00     0.102 C 
HETATM   33  N   UNK N   1      29.757  17.330  10.301  0.00  0.00    -0.385 N 
HETATM   34  H   UNK N   1      29.260  17.482  11.137  0.00  0.00     0.157 HD
ATOM     35  HN  UNK N   1      30.725  17.038  10.433  1.00  0.00     0.157 HD
BRANCH  32  36
HETATM   36  N   UNK N   1      28.023  17.580   8.769  0.00  0.00    -0.385 N 
HETATM   37  H   UNK N   1      27.724  17.846   7.870  0.00  0.00     0.157 HD
HETATM   38  H   UNK N   1      27.352  17.412   9.470  0.00  0.00     0.157 HD
ENDBRANCH  32  36
ENDBRANCH  30  32
ENDBRANCH  25  26
ENDBRANCH   9  25
BRANCH   7  39
HETATM   39  O   UNK N   1      36.623  13.793  12.865  0.00  0.00    -0.347 OA
BRANCH  39  40
HETATM   40  C   UNK N   1      36.423  14.205  14.187  0.00  0.00     0.214 C 
BRANCH  40  41
HETATM   41  C   UNK N   1      36.088  13.035  15.088  0.00  0.00    -0.034 A 
HETATM   42  C   UNK N   1      36.762  11.818  14.922  0.00  0.00     0.009 A 
HETATM   43  C   UNK N   1      36.662  10.820  15.897  0.00  0.00     0.001 A 
HETATM   44  C   UNK N   1      35.911  11.042  17.055  0.00  0.00     0.000 A 
HETATM   45  C   UNK N   1      35.241  12.256  17.231  0.00  0.00     0.001 A 
HETATM   46  C   UNK N   1      35.337  13.256  16.256  0.00  0.00     0.009 A 
ENDBRANCH  40  41
ENDBRANCH  39  40
ENDBRANCH   7  39
TORSDOF 11
ENDMDL
MODEL 7
REMARK VINA RESULT:      -8.1      4.288      8.466
REMARK  11 active torsions:
REMARK  status: ('A' for Active; 'I' for Inactive)
REMARK    1  A    between atoms: N_2  and  C_5 
REMARK    2  A    between atoms: C_8  and  C_9 
REMARK    3  A    between atoms: C_9  and  N_10 
REMARK       I    between atoms: N_10  and  C_11 
REMARK    4  A    between atoms: C_11  and  C_13 
REMARK    5  A    between atoms: C_19  and  O_20 
REMARK    6  A    between atoms: O_20  and  C_21 
REMARK    7  A    between atoms: C_21  and  C_22 
REMARK    8  A    between atoms: N_29  and  C_30 
REMARK    9  A    between atoms: C_30  and  C_31 
REMARK   10  A    between atoms: C_35  and  C_37 
REMARK   11  A    between atoms: C_37  and  N_38 
ROOT
HETATM    1  C   UNK N   1      28.815  15.813   4.197  0.00  0.00     0.104 A 
HETATM    2  C   UNK N   1      28.626  14.556   4.758  0.00  0.00     0.049 A 
HETATM    3  C   UNK N   1      27.324  14.561   5.192  0.00  0.00    -0.004 A 
HETATM    4  C   UNK N   1      26.789  15.778   4.926  0.00  0.00     0.045 A 
HETATM    5  C   UNK N   1      25.534  16.138   5.435  0.00  0.00     0.033 A 
HETATM    6  C   UNK N   1      24.849  15.229   6.241  0.00  0.00     0.039 A 
HETATM    7  C   UNK N   1      25.411  13.970   6.501  0.00  0.00     0.070 A 
HETATM    8  C   UNK N   1      26.655  13.616   5.935  0.00  0.00     0.050 A 
HETATM    9  N   UNK N   1      27.656  16.540   4.231  0.00  0.00    -0.337 N 
ENDROOT
BRANCH   1  10
HETATM   10  C   UNK N   1      30.172  16.373   4.044  0.00  0.00     0.268 C 
HETATM   11  N   UNK N   1      30.877  16.863   5.079  0.00  0.00    -0.351 N 
HETATM   12  H   UNK N   1      31.715  17.348   4.902  0.00  0.00     0.163 HD
HETATM   13  O   UNK N   1      30.611  16.519   2.914  0.00  0.00    -0.266 OA
BRANCH  11  14
HETATM   14  C   UNK N   1      30.442  16.696   6.429  0.00  0.00     0.161 C 
BRANCH  14  15
HETATM   15  C   UNK N   1      31.636  16.401   7.253  0.00  0.00    -0.040 A 
HETATM   16  C   UNK N   1      32.006  15.078   7.479  0.00  0.00     0.011 A 
HETATM   17  C   UNK N   1      33.083  14.791   8.316  0.00  0.00     0.038 A 
HETATM   18  C   UNK N   1      33.817  15.829   8.931  0.00  0.00     0.135 A 
HETATM   19  C   UNK N   1      33.452  17.164   8.652  0.00  0.00     0.038 A 
HETATM   20  C   UNK N   1      32.374  17.446   7.817  0.00  0.00     0.011 A 
BRANCH  18  21
HETATM   21  N   UNK N   1      34.816  15.517   9.918  0.00  0.00    -0.049 N 
HETATM   22  C   UNK N   1      35.880  14.791   9.273  0.00  0.00     0.278 C 
HETATM   23  C   UNK N   1      34.302  14.712  11.002  0.00  0.00     0.278 C 
HETATM   24  C   UNK N   1      35.388  16.726  10.453  0.00  0.00     0.278 C 
ENDBRANCH  18  21
ENDBRANCH  14  15
ENDBRANCH  11  14
ENDBRANCH   1  10
BRANCH   9  25
HETATM   25  C   UNK N   1      27.389  17.895   3.699  0.00  0.00     0.168 C 
BRANCH  25  26
HETATM   26  C   UNK N   1      27.445  18.946   4.825  0.00  0.00    -0.039 A 
HETATM   27  C   UNK N   1      27.064  20.286   4.656  0.00  0.00     0.009 A 
HETATM   28  C   UNK N   1      27.126  21.176   5.753  0.00  0.00     0.002 A 
HETATM   29  C   UNK N   1      27.542  20.726   7.022  0.00  0.00     0.015 A 
HETATM   30  C   UNK N   1      27.935  19.394   7.184  0.00  0.00     0.007 A 
HETATM   31  C   UNK N   1      27.892  18.559   6.083  0.00  0.00     0.024 A 
BRANCH  30  32
HETATM   32  C   UNK N   1      28.375  18.823   8.484  0.00  0.00     0.102 C 
HETATM   33  N   UNK N   1      29.528  19.105   8.967  0.00  0.00    -0.385 N 
HETATM   34  H   UNK N   1      29.909  18.961   9.864  0.00  0.00     0.157 HD
ATOM     35  HN  UNK N   1      30.162  19.558   8.308  1.00  0.00     0.157 HD
BRANCH  32  36
HETATM   36  N   UNK N   1      27.511  17.973   9.215  0.00  0.00    -0.385 N 
HETATM   37  H   UNK N   1      27.343  17.046   8.930  0.00  0.00     0.157 HD
HETATM   38  H   UNK N   1      27.067  18.317  10.024  0.00  0.00     0.157 HD
ENDBRANCH  32  36
ENDBRANCH  30  32
ENDBRANCH  25  26
ENDBRANCH   9  25
BRANCH   7  39
HETATM   39  O   UNK N   1      24.923  13.219   7.511  0.00  0.00    -0.347 OA
BRANCH  39  40
HETATM   40  C   UNK N   1      23.565  13.307   7.834  0.00  0.00     0.214 C 
BRANCH  40  41
HETATM   41  C   UNK N   1      23.323  13.009   9.299  0.00  0.00    -0.034 A 
HETATM   42  C   UNK N   1      22.010  12.893   9.775  0.00  0.00     0.009 A 
HETATM   43  C   UNK N   1      21.768  12.365  11.047  0.00  0.00     0.001 A 
HETATM   44  C   UNK N   1      22.832  11.923  11.839  0.00  0.00     0.000 A 
HETATM   45  C   UNK N   1      24.144  12.029  11.369  0.00  0.00     0.001 A 
HETATM   46  C   UNK N   1      24.390  12.560  10.097  0.00  0.00     0.009 A 
ENDBRANCH  40  41
ENDBRANCH  39  40
ENDBRANCH   7  39
TORSDOF 11
ENDMDL
MODEL 8
REMARK VINA RESULT:      -8.1      7.806     13.124
REMARK  11 active torsions:
REMARK  status: ('A' for Active; 'I' for Inactive)
REMARK    1  A    between atoms: N_2  and  C_5 
REMARK    2  A    between atoms: C_8  and  C_9 
REMARK    3  A    between atoms: C_9  and  N_10 
REMARK       I    between atoms: N_10  and  C_11 
REMARK    4  A    between atoms: C_11  and  C_13 
REMARK    5  A    between atoms: C_19  and  O_20 
REMARK    6  A    between atoms: O_20  and  C_21 
REMARK    7  A    between atoms: C_21  and  C_22 
REMARK    8  A    between atoms: N_29  and  C_30 
REMARK    9  A    between atoms: C_30  and  C_31 
REMARK   10  A    between atoms: C_35  and  C_37 
REMARK   11  A    between atoms: C_37  and  N_38 
ROOT
HETATM    1  C   UNK N   1      33.008  17.056   7.964  0.00  0.00     0.104 A 
HETATM    2  C   UNK N   1      31.778  17.235   8.585  0.00  0.00     0.049 A 
HETATM    3  C   UNK N   1      30.870  17.268   7.557  0.00  0.00    -0.004 A 
HETATM    4  C   UNK N   1      31.546  17.148   6.387  0.00  0.00     0.045 A 
HETATM    5  C   UNK N   1      30.898  17.345   5.160  0.00  0.00     0.033 A 
HETATM    6  C   UNK N   1      29.546  17.691   5.161  0.00  0.00     0.039 A 
HETATM    7  C   UNK N   1      28.859  17.803   6.379  0.00  0.00     0.070 A 
HETATM    8  C   UNK N   1      29.525  17.550   7.597  0.00  0.00     0.050 A 
HETATM    9  N   UNK N   1      32.855  16.925   6.611  0.00  0.00    -0.337 N 
ENDROOT
BRANCH   1  10
HETATM   10  C   UNK N   1      34.260  17.431   8.651  0.00  0.00     0.268 C 
HETATM   11  N   UNK N   1      34.926  16.586   9.459  0.00  0.00    -0.351 N 
HETATM   12  H   UNK N   1      35.675  16.930   9.998  0.00  0.00     0.163 HD
HETATM   13  O   UNK N   1      34.625  18.594   8.589  0.00  0.00    -0.266 OA
BRANCH  11  14
HETATM   14  C   UNK N   1      34.577  15.205   9.553  0.00  0.00     0.161 C 
BRANCH  14  15
HETATM   15  C   UNK N   1      35.106  14.693  10.837  0.00  0.00    -0.040 A 
HETATM   16  C   UNK N   1      34.938  13.350  11.163  0.00  0.00     0.011 A 
HETATM   17  C   UNK N   1      35.366  12.877  12.403  0.00  0.00     0.038 A 
HETATM   18  C   UNK N   1      35.984  13.743  13.332  0.00  0.00     0.135 A 
HETATM   19  C   UNK N   1      36.185  15.090  12.962  0.00  0.00     0.038 A 
HETATM   20  C   UNK N   1      35.753  15.558  11.723  0.00  0.00     0.011 A 
BRANCH  18  21
HETATM   21  N   UNK N   1      36.269  13.282  14.665  0.00  0.00    -0.049 N 
HETATM   22  C   UNK N   1      36.969  14.327  15.367  0.00  0.00     0.278 C 
HETATM   23  C   UNK N   1      37.085  12.090  14.683  0.00  0.00     0.278 C 
HETATM   24  C   UNK N   1      35.045  13.031  15.382  0.00  0.00     0.278 C 
ENDBRANCH  18  21
ENDBRANCH  14  15
ENDBRANCH  11  14
ENDBRANCH   1  10
BRANCH   9  25
HETATM   25  C   UNK N   1      33.881  16.666   5.577  0.00  0.00     0.168 C 
BRANCH  25  26
HETATM   26  C   UNK N   1      33.766  15.226   5.040  0.00  0.00    -0.039 A 
HETATM   27  C   UNK N   1      33.404  14.127   5.835  0.00  0.00     0.009 A 
HETATM   28  C   UNK N   1      33.299  12.844   5.251  0.00  0.00     0.002 A 
HETATM   29  C   UNK N   1      33.528  12.659   3.873  0.00  0.00     0.015 A 
HETATM   30  C   UNK N   1      33.903  13.753   3.086  0.00  0.00     0.007 A 
HETATM   31  C   UNK N   1      34.026  14.987   3.696  0.00  0.00     0.024 A 
BRANCH  30  32
HETATM   32  C   UNK N   1      34.153  13.661   1.624  0.00  0.00     0.102 C 
HETATM   33  N   UNK N   1      35.069  14.365   1.070  0.00  0.00    -0.385 N 
HETATM   34  H   UNK N   1      35.477  14.312   0.176  0.00  0.00     0.157 HD
ATOM     35  HN  UNK N   1      35.441  15.111   1.659  1.00  0.00     0.157 HD
BRANCH  32  36
HETATM   36  N   UNK N   1      33.390  12.774   0.828  0.00  0.00    -0.385 N 
HETATM   37  H   UNK N   1      33.295  12.909  -0.143  0.00  0.00     0.157 HD
HETATM   38  H   UNK N   1      32.944  12.006   1.253  0.00  0.00     0.157 HD
ENDBRANCH  32  36
ENDBRANCH  30  32
ENDBRANCH  25  26
ENDBRANCH   9  25
BRANCH   7  39
HETATM   39  O   UNK N   1      27.664  18.429   6.413  0.00  0.00    -0.347 OA
BRANCH  39  40
HETATM   40  C   UNK N   1      27.542  19.702   5.845  0.00  0.00     0.214 C 
BRANCH  40  41
HETATM   41  C   UNK N   1      26.537  19.710   4.713  0.00  0.00    -0.034 A 
HETATM   42  C   UNK N   1      25.255  19.184   4.920  0.00  0.00     0.009 A 
HETATM   43  C   UNK N   1      24.240  19.416   3.987  0.00  0.00     0.001 A 
HETATM   44  C   UNK N   1      24.492  20.199   2.856  0.00  0.00     0.000 A 
HETATM   45  C   UNK N   1      25.766  20.733   2.645  0.00  0.00     0.001 A 
HETATM   46  C   UNK N   1      26.785  20.500   3.576  0.00  0.00     0.009 A 
ENDBRANCH  40  41
ENDBRANCH  39  40
ENDBRANCH   7  39
TORSDOF 11
ENDMDL
MODEL 9
REMARK VINA RESULT:      -8.1      8.058     12.958
REMARK  11 active torsions:
REMARK  status: ('A' for Active; 'I' for Inactive)
REMARK    1  A    between atoms: N_2  and  C_5 
REMARK    2  A    between atoms: C_8  and  C_9 
REMARK    3  A    between atoms: C_9  and  N_10 
REMARK       I    between atoms: N_10  and  C_11 
REMARK    4  A    between atoms: C_11  and  C_13 
REMARK    5  A    between atoms: C_19  and  O_20 
REMARK    6  A    between atoms: O_20  and  C_21 
REMARK    7  A    between atoms: C_21  and  C_22 
REMARK    8  A    between atoms: N_29  and  C_30 
REMARK    9  A    between atoms: C_30  and  C_31 
REMARK   10  A    between atoms: C_35  and  C_37 
REMARK   11  A    between atoms: C_37  and  N_38 
ROOT
HETATM    1  C   UNK N   1      33.021  17.234   7.996  0.00  0.00     0.104 A 
HETATM    2  C   UNK N   1      31.759  17.497   8.516  0.00  0.00     0.049 A 
HETATM    3  C   UNK N   1      30.919  17.445   7.433  0.00  0.00    -0.004 A 
HETATM    4  C   UNK N   1      31.662  17.195   6.326  0.00  0.00     0.045 A 
HETATM    5  C   UNK N   1      31.097  17.281   5.047  0.00  0.00     0.033 A 
HETATM    6  C   UNK N   1      29.757  17.651   4.926  0.00  0.00     0.039 A 
HETATM    7  C   UNK N   1      28.999  17.898   6.080  0.00  0.00     0.070 A 
HETATM    8  C   UNK N   1      29.581  17.755   7.358  0.00  0.00     0.050 A 
HETATM    9  N   UNK N   1      32.949  16.971   6.655  0.00  0.00    -0.337 N 
ENDROOT
BRANCH   1  10
HETATM   10  C   UNK N   1      34.237  17.652   8.722  0.00  0.00     0.268 C 
HETATM   11  N   UNK N   1      34.668  17.029   9.833  0.00  0.00    -0.351 N 
HETATM   12  H   UNK N   1      35.401  17.432  10.354  0.00  0.00     0.163 HD
HETATM   13  O   UNK N   1      34.789  18.682   8.374  0.00  0.00    -0.266 OA
BRANCH  11  14
HETATM   14  C   UNK N   1      34.093  15.800  10.277  0.00  0.00     0.161 C 
BRANCH  14  15
HETATM   15  C   UNK N   1      35.068  14.721  10.002  0.00  0.00    -0.040 A 
HETATM   16  C   UNK N   1      34.633  13.399   9.944  0.00  0.00     0.011 A 
HETATM   17  C   UNK N   1      35.556  12.371   9.761  0.00  0.00     0.038 A 
HETATM   18  C   UNK N   1      36.932  12.653   9.618  0.00  0.00     0.135 A 
HETATM   19  C   UNK N   1      37.346  14.003   9.634  0.00  0.00     0.038 A 
HETATM   20  C   UNK N   1      36.419  15.027   9.820  0.00  0.00     0.011 A 
BRANCH  18  21
HETATM   21  N   UNK N   1      37.888  11.578   9.595  0.00  0.00    -0.049 N 
HETATM   22  C   UNK N   1      37.481  10.628   8.592  0.00  0.00     0.278 C 
HETATM   23  C   UNK N   1      37.991  10.893  10.863  0.00  0.00     0.278 C 
HETATM   24  C   UNK N   1      39.188  12.070   9.214  0.00  0.00     0.278 C 
ENDBRANCH  18  21
ENDBRANCH  14  15
ENDBRANCH  11  14
ENDBRANCH   1  10
BRANCH   9  25
HETATM   25  C   UNK N   1      34.030  16.590   5.720  0.00  0.00     0.168 C 
BRANCH  25  26
HETATM   26  C   UNK N   1      34.438  15.118   5.926  0.00  0.00    -0.039 A 
HETATM   27  C   UNK N   1      33.519  14.080   6.146  0.00  0.00     0.009 A 
HETATM   28  C   UNK N   1      33.982  12.754   6.300  0.00  0.00     0.002 A 
HETATM   29  C   UNK N   1      35.357  12.456   6.209  0.00  0.00     0.015 A 
HETATM   30  C   UNK N   1      36.272  13.493   6.004  0.00  0.00     0.007 A 
HETATM   31  C   UNK N   1      35.787  14.783   5.889  0.00  0.00     0.024 A 
BRANCH  30  32
HETATM   32  C   UNK N   1      37.738  13.279   5.880  0.00  0.00     0.102 C 
HETATM   33  N   UNK N   1      38.564  14.211   6.182  0.00  0.00    -0.385 N 
HETATM   34  H   UNK N   1      39.539  14.193   6.321  0.00  0.00     0.157 HD
ATOM     35  HN  UNK N   1      38.138  15.130   6.300  1.00  0.00     0.157 HD
BRANCH  32  36
HETATM   36  N   UNK N   1      38.237  12.029   5.444  0.00  0.00    -0.385 N 
HETATM   37  H   UNK N   1      39.194  11.807   5.512  0.00  0.00     0.157 HD
HETATM   38  H   UNK N   1      37.615  11.366   5.064  0.00  0.00     0.157 HD
ENDBRANCH  32  36
ENDBRANCH  30  32
ENDBRANCH  25  26
ENDBRANCH   9  25
BRANCH   7  39
HETATM   39  O   UNK N   1      27.820  18.547   5.975  0.00  0.00    -0.347 OA
BRANCH  39  40
HETATM   40  C   UNK N   1      27.720  19.649   5.119  0.00  0.00     0.214 C 
BRANCH  40  41
HETATM   41  C   UNK N   1      26.444  19.603   4.304  0.00  0.00    -0.034 A 
HETATM   42  C   UNK N   1      25.332  18.910   4.799  0.00  0.00     0.009 A 
HETATM   43  C   UNK N   1      24.078  19.072   4.199  0.00  0.00     0.001 A 
HETATM   44  C   UNK N   1      23.924  19.950   3.122  0.00  0.00     0.000 A 
HETATM   45  C   UNK N   1      25.027  20.651   2.627  0.00  0.00     0.001 A 
HETATM   46  C   UNK N   1      26.283  20.488   3.223  0.00  0.00     0.009 A 
ENDBRANCH  40  41
ENDBRANCH  39  40
ENDBRANCH   7  39
TORSDOF 11
ENDMDL
