REMARK  11 active torsions:
REMARK  status: ('A' for Active; 'I' for Inactive)
REMARK    1  A    between atoms: C_3  and  C_1 
REMARK    2  A    between atoms: O_15  and  C_1 
REMARK    3  A    between atoms: C_4  and  C_2 
REMARK    4  A    between atoms: P_17  and  C_2 
REMARK    5  A    between atoms: C_5  and  O_7 
REMARK    6  A    between atoms: C_6  and  O_8 
REMARK    7  A    between atoms: P_17  and  O_9 
REMARK    8  A    between atoms: P_17  and  O_10 
REMARK    9  A    between atoms: P_18  and  O_12 
REMARK   10  A    between atoms: P_18  and  O_13 
REMARK   11  A    between atoms: P_18  and  O_15 
ROOT
HETATM    1  C   UNK N   1       1.482   0.346  -0.679  0.00  0.00     0.177 C 
HETATM    2  C   UNK N   1       0.089  -0.739   0.737  0.00  0.00     0.164 C 
HETATM    3  C   UNK N   1       0.840   1.357   0.276  0.00  0.00     0.180 C 
HETATM    4  C   UNK N   1      -0.473   0.674   0.529  0.00  0.00     0.178 C 
HETATM    5  O   UNK N   1       1.071  -0.952  -0.260  0.00  0.00    -0.372 OA
ENDROOT
BRANCH   1   6
HETATM    6  C   UNK N   1       3.004   0.474  -0.726  0.00  0.00     0.215 C 
BRANCH   6   7
HETATM    7  O   UNK N   1       3.562   0.298   0.546  0.00  0.00    -0.294 OA
BRANCH   7   8
HETATM    8  P   UNK N   1       5.290   0.418   0.343  0.00  0.00     0.390 P 
HETATM    9  O   UNK N   1       5.606   1.586  -0.632  0.00  0.00    -0.632 OA
BRANCH   8  10
HETATM   10  O   UNK N   1       6.059   0.814   1.848  0.00  0.00    -0.307 OA
HETATM   11  H   UNK N   1       6.465   0.552   2.689  0.00  0.00     0.222 HD
ENDBRANCH   8  10
BRANCH   8  12
HETATM   12  O   UNK N   1       5.966  -1.033  -0.328  0.00  0.00    -0.307 OA
HETATM   13  H   UNK N   1       5.453  -1.765  -0.704  0.00  0.00     0.222 HD
ENDBRANCH   8  12
ENDBRANCH   7   8
ENDBRANCH   6   7
ENDBRANCH   1   6
BRANCH   3  14
HETATM   14  O   UNK N   1       0.708   2.633  -0.283  0.00  0.00    -0.390 OA
HETATM   15  H   UNK N   1       1.428   3.154  -0.671  0.00  0.00     0.210 HD
ENDBRANCH   3  14
BRANCH   4  16
HETATM   16  O   UNK N   1      -1.259   0.756  -0.626  0.00  0.00    -0.390 OA
HETATM   17  H   UNK N   1      -1.483   1.256  -1.427  0.00  0.00     0.210 HD
ENDBRANCH   4  16
BRANCH   2  18
HETATM   18  C   UNK N   1      -0.894  -1.919   0.869  0.00  0.00     0.159 C 
BRANCH  18  19
HETATM   19  P   UNK N   1      -2.495  -1.883  -0.097  0.00  0.00     0.238 P 
HETATM   20  O   UNK N   1      -2.264  -1.668  -1.616  0.00  0.00    -0.653 OA
BRANCH  19  21
HETATM   21  O   UNK N   1      -3.590  -0.618   0.370  0.00  0.00    -0.329 OA
HETATM   22  H   UNK N   1      -3.284   0.264   0.631  0.00  0.00     0.220 HD
ENDBRANCH  19  21
BRANCH  19  23
HETATM   23  O   UNK N   1      -3.401  -3.361  -0.012  0.00  0.00    -0.329 OA
HETATM   24  H   UNK N   1      -4.370  -3.335   0.035  0.00  0.00     0.220 HD
ENDBRANCH  19  23
ENDBRANCH  18  19
ENDBRANCH   2  18
TORSDOF 11
