MODEL 1
REMARK VINA RESULT:      -9.2      0.000      0.000
REMARK  9 active torsions:
REMARK  status: ('A' for Active; 'I' for Inactive)
REMARK    1  A    between atoms: C_22  and  C_18 
REMARK    2  A    between atoms: C_27  and  C_18 
REMARK    3  A    between atoms: C_21  and  C_20 
REMARK    4  A    between atoms: N_31  and  C_23 
REMARK    5  A    between atoms: S_36  and  C_24 
REMARK    6  A    between atoms: C_28  and  C_27 
REMARK    7  A    between atoms: C_27  and  N_30 
REMARK    8  A    between atoms: O_33  and  C_28 
REMARK    9  A    between atoms: S_36  and  N_30 
ROOT
HETATM    1  O   UNK N   1      34.909  18.923   7.797  0.00  0.00    -0.201 OA
HETATM    2  O   UNK N   1      35.238  16.611   7.379  0.00  0.00    -0.201 OA
HETATM    3  S   UNK N   1      34.231  17.565   8.041  0.00  0.00     0.259 S 
ENDROOT
BRANCH   3   4
HETATM    4  C   UNK N   1      32.635  17.387   7.255  0.00  0.00     0.079 A 
HETATM    5  C   UNK N   1      32.528  17.233   5.867  0.00  0.00     0.027 A 
HETATM    6  C   UNK N   1      31.264  17.114   5.272  0.00  0.00     0.031 A 
HETATM    7  C   UNK N   1      30.102  17.165   6.066  0.00  0.00     0.030 A 
HETATM    8  C   UNK N   1      30.233  17.308   7.453  0.00  0.00     0.031 A 
HETATM    9  C   UNK N   1      31.488  17.404   8.037  0.00  0.00     0.027 A 
BRANCH   7  10
HETATM   10  N   UNK N   1      28.802  17.069   5.490  0.00  0.00    -0.381 N 
HETATM   11  C   UNK N   1      27.651  16.701   6.300  0.00  0.00     0.123 C 
HETATM   12  C   UNK N   1      26.336  17.081   5.605  0.00  0.00     0.029 C 
HETATM   13  C   UNK N   1      26.489  18.471   4.976  0.00  0.00     0.021 C 
HETATM   14  C   UNK N   1      27.597  18.506   3.914  0.00  0.00     0.029 C 
HETATM   15  C   UNK N   1      28.616  17.387   4.086  0.00  0.00     0.123 C 
BRANCH  13  16
HETATM   16  C   UNK N   1      25.213  18.972   4.385  0.00  0.00    -0.054 A 
HETATM   17  C   UNK N   1      25.233  20.114   3.579  0.00  0.00     0.007 A 
HETATM   18  C   UNK N   1      24.054  20.579   2.992  0.00  0.00     0.001 A 
HETATM   19  C   UNK N   1      22.850  19.902   3.208  0.00  0.00     0.000 A 
HETATM   20  C   UNK N   1      22.825  18.759   4.013  0.00  0.00     0.001 A 
HETATM   21  C   UNK N   1      24.004  18.292   4.600  0.00  0.00     0.007 A 
ENDBRANCH  13  16
ENDBRANCH   7  10
ENDBRANCH   3   4
BRANCH   3  22
HETATM   22  N   UNK N   1      34.425  17.206   9.778  0.00  0.00    -0.300 N 
HETATM   23  H   UNK N   1      34.331  17.928  10.490  0.00  0.00     0.173 HD
BRANCH  22  24
HETATM   24  C   UNK N   1      34.730  15.807  10.123  0.00  0.00     0.195 C 
BRANCH  24  25
HETATM   25  C   UNK N   1      35.419  15.678  11.492  0.00  0.00     0.077 C 
BRANCH  25  26
HETATM   26  C   UNK N   1      36.181  14.398  11.574  0.00  0.00    -0.028 A 
HETATM   27  C   UNK N   1      36.869  13.762  10.546  0.00  0.00     0.096 A 
HETATM   28  N   UNK N   1      37.493  12.659  11.037  0.00  0.00    -0.365 N 
HETATM   29  C   UNK N   1      37.197  12.618  12.352  0.00  0.00     0.042 A 
HETATM   30  H   UNK N   1      38.047  12.020  10.535  0.00  0.00     0.165 HD
HETATM   31  C   UNK N   1      37.624  11.675  13.281  0.00  0.00     0.030 A 
HETATM   32  C   UNK N   1      36.398  13.664  12.706  0.00  0.00    -0.002 A 
HETATM   33  C   UNK N   1      37.201  11.832  14.615  0.00  0.00     0.002 A 
HETATM   34  C   UNK N   1      36.369  12.918  14.980  0.00  0.00     0.001 A 
HETATM   35  C   UNK N   1      35.960  13.854  14.015  0.00  0.00     0.014 A 
ENDBRANCH  25  26
ENDBRANCH  24  25
BRANCH  24  36
HETATM   36  C   UNK N   1      33.521  14.917  10.021  0.00  0.00     0.164 C 
HETATM   37  O   UNK N   1      33.493  14.026   9.186  0.00  0.00    -0.648 OA
BRANCH  36  38
HETATM   38  O   UNK N   1      32.471  15.079  10.854  0.00  0.00    -0.775 OA
HETATM   39  H   UNK N   1      31.680  14.748  11.232  0.00  0.00     0.167 HD
ENDBRANCH  36  38
ENDBRANCH  24  36
ENDBRANCH  22  24
ENDBRANCH   3  22
TORSDOF 9
ENDMDL
MODEL 2
REMARK VINA RESULT:      -9.2      2.378     11.768
REMARK  9 active torsions:
REMARK  status: ('A' for Active; 'I' for Inactive)
REMARK    1  A    between atoms: C_22  and  C_18 
REMARK    2  A    between atoms: C_27  and  C_18 
REMARK    3  A    between atoms: C_21  and  C_20 
REMARK    4  A    between atoms: N_31  and  C_23 
REMARK    5  A    between atoms: S_36  and  C_24 
REMARK    6  A    between atoms: C_28  and  C_27 
REMARK    7  A    between atoms: C_27  and  N_30 
REMARK    8  A    between atoms: O_33  and  C_28 
REMARK    9  A    between atoms: S_36  and  N_30 
ROOT
HETATM    1  O   UNK N   1      34.842  16.028   5.595  0.00  0.00    -0.201 OA
HETATM    2  O   UNK N   1      34.141  17.937   6.816  0.00  0.00    -0.201 OA
HETATM    3  S   UNK N   1      33.973  16.409   6.804  0.00  0.00     0.259 S 
ENDROOT
BRANCH   3   4
HETATM    4  C   UNK N   1      34.539  15.734   8.360  0.00  0.00     0.079 A 
HETATM    5  C   UNK N   1      34.975  16.573   9.394  0.00  0.00     0.027 A 
HETATM    6  C   UNK N   1      35.432  16.018  10.598  0.00  0.00     0.031 A 
HETATM    7  C   UNK N   1      35.468  14.621  10.763  0.00  0.00     0.030 A 
HETATM    8  C   UNK N   1      35.017  13.802   9.721  0.00  0.00     0.031 A 
HETATM    9  C   UNK N   1      34.547  14.358   8.540  0.00  0.00     0.027 A 
BRANCH   7  10
HETATM   10  N   UNK N   1      35.947  14.026  11.966  0.00  0.00    -0.381 N 
HETATM   11  C   UNK N   1      36.137  14.821  13.170  0.00  0.00     0.123 C 
HETATM   12  C   UNK N   1      36.224  13.932  14.418  0.00  0.00     0.029 C 
HETATM   13  C   UNK N   1      35.164  12.828  14.319  0.00  0.00     0.021 C 
HETATM   14  C   UNK N   1      35.380  11.927  13.095  0.00  0.00     0.029 C 
HETATM   15  C   UNK N   1      36.206  12.598  12.005  0.00  0.00     0.123 C 
BRANCH  13  16
HETATM   16  C   UNK N   1      35.097  11.991  15.552  0.00  0.00    -0.054 A 
HETATM   17  C   UNK N   1      34.721  10.648  15.449  0.00  0.00     0.007 A 
HETATM   18  C   UNK N   1      34.683   9.841  16.589  0.00  0.00     0.001 A 
HETATM   19  C   UNK N   1      35.023  10.375  17.836  0.00  0.00     0.000 A 
HETATM   20  C   UNK N   1      35.401  11.716  17.944  0.00  0.00     0.001 A 
HETATM   21  C   UNK N   1      35.440  12.525  16.805  0.00  0.00     0.007 A 
ENDBRANCH  13  16
ENDBRANCH   7  10
ENDBRANCH   3   4
BRANCH   3  22
HETATM   22  N   UNK N   1      32.276  16.199   6.295  0.00  0.00    -0.300 N 
HETATM   23  H   UNK N   1      32.009  15.525   5.579  0.00  0.00     0.173 HD
BRANCH  22  24
HETATM   24  C   UNK N   1      31.284  17.054   6.968  0.00  0.00     0.195 C 
BRANCH  24  25
HETATM   25  C   UNK N   1      29.839  16.679   6.598  0.00  0.00     0.077 C 
BRANCH  25  26
HETATM   26  C   UNK N   1      28.892  17.735   7.057  0.00  0.00    -0.028 A 
HETATM   27  C   UNK N   1      28.450  17.963   8.356  0.00  0.00     0.096 A 
HETATM   28  N   UNK N   1      27.651  19.062   8.374  0.00  0.00    -0.365 N 
HETATM   29  C   UNK N   1      27.605  19.510   7.104  0.00  0.00     0.042 A 
HETATM   30  H   UNK N   1      27.199  19.451   9.157  0.00  0.00     0.165 HD
HETATM   31  C   UNK N   1      26.922  20.626   6.630  0.00  0.00     0.030 A 
HETATM   32  C   UNK N   1      28.350  18.720   6.279  0.00  0.00    -0.002 A 
HETATM   33  C   UNK N   1      27.022  20.919   5.256  0.00  0.00     0.002 A 
HETATM   34  C   UNK N   1      27.794  20.096   4.402  0.00  0.00     0.001 A 
HETATM   35  C   UNK N   1      28.474  18.979   4.916  0.00  0.00     0.014 A 
ENDBRANCH  25  26
ENDBRANCH  24  25
BRANCH  24  36
HETATM   36  C   UNK N   1      31.485  17.099   8.458  0.00  0.00     0.164 C 
HETATM   37  O   UNK N   1      31.276  16.100   9.129  0.00  0.00    -0.648 OA
BRANCH  36  38
HETATM   38  O   UNK N   1      31.914  18.226   9.064  0.00  0.00    -0.775 OA
HETATM   39  H   UNK N   1      31.885  19.159   9.149  0.00  0.00     0.167 HD
ENDBRANCH  36  38
ENDBRANCH  24  36
ENDBRANCH  22  24
ENDBRANCH   3  22
TORSDOF 9
ENDMDL
MODEL 3
REMARK VINA RESULT:      -9.2      3.026     11.632
REMARK  9 active torsions:
REMARK  status: ('A' for Active; 'I' for Inactive)
REMARK    1  A    between atoms: C_22  and  C_18 
REMARK    2  A    between atoms: C_27  and  C_18 
REMARK    3  A    between atoms: C_21  and  C_20 
REMARK    4  A    between atoms: N_31  and  C_23 
REMARK    5  A    between atoms: S_36  and  C_24 
REMARK    6  A    between atoms: C_28  and  C_27 
REMARK    7  A    between atoms: C_27  and  N_30 
REMARK    8  A    between atoms: O_33  and  C_28 
REMARK    9  A    between atoms: S_36  and  N_30 
ROOT
HETATM    1  O   UNK N   1      33.943  13.600   6.779  0.00  0.00    -0.201 OA
HETATM    2  O   UNK N   1      36.257  13.975   6.415  0.00  0.00    -0.201 OA
HETATM    3  S   UNK N   1      35.107  14.448   7.318  0.00  0.00     0.259 S 
ENDROOT
BRANCH   3   4
HETATM    4  C   UNK N   1      35.520  14.129   9.028  0.00  0.00     0.079 A 
HETATM    5  C   UNK N   1      34.530  13.787   9.957  0.00  0.00     0.027 A 
HETATM    6  C   UNK N   1      34.877  13.560  11.297  0.00  0.00     0.031 A 
HETATM    7  C   UNK N   1      36.216  13.691  11.711  0.00  0.00     0.030 A 
HETATM    8  C   UNK N   1      37.191  14.022  10.763  0.00  0.00     0.031 A 
HETATM    9  C   UNK N   1      36.844  14.225   9.435  0.00  0.00     0.027 A 
BRANCH   7  10
HETATM   10  N   UNK N   1      36.598  13.488  13.069  0.00  0.00    -0.381 N 
HETATM   11  C   UNK N   1      36.544  14.577  14.032  0.00  0.00     0.123 C 
HETATM   12  C   UNK N   1      36.566  14.050  15.474  0.00  0.00     0.029 C 
HETATM   13  C   UNK N   1      35.653  12.822  15.568  0.00  0.00     0.021 C 
HETATM   14  C   UNK N   1      36.119  11.682  14.654  0.00  0.00     0.029 C 
HETATM   15  C   UNK N   1      37.001  12.165  13.509  0.00  0.00     0.123 C 
BRANCH  13  16
HETATM   16  C   UNK N   1      35.518  12.319  16.967  0.00  0.00    -0.054 A 
HETATM   17  C   UNK N   1      35.282  13.229  18.002  0.00  0.00     0.007 A 
HETATM   18  C   UNK N   1      35.122  12.773  19.313  0.00  0.00     0.001 A 
HETATM   19  C   UNK N   1      35.197  11.406  19.593  0.00  0.00     0.000 A 
HETATM   20  C   UNK N   1      35.432  10.492  18.562  0.00  0.00     0.001 A 
HETATM   21  C   UNK N   1      35.591  10.946  17.249  0.00  0.00     0.007 A 
ENDBRANCH  13  16
ENDBRANCH   7  10
ENDBRANCH   3   4
BRANCH   3  22
HETATM   22  N   UNK N   1      34.820  16.116   6.756  0.00  0.00    -0.300 N 
HETATM   23  H   UNK N   1      35.321  16.509   5.959  0.00  0.00     0.173 HD
BRANCH  22  24
HETATM   24  C   UNK N   1      33.821  16.894   7.506  0.00  0.00     0.195 C 
BRANCH  24  25
HETATM   25  C   UNK N   1      32.693  16.012   8.069  0.00  0.00     0.077 C 
BRANCH  25  26
HETATM   26  C   UNK N   1      31.389  16.366   7.437  0.00  0.00    -0.028 A 
HETATM   27  C   UNK N   1      30.870  15.869   6.247  0.00  0.00     0.096 A 
HETATM   28  N   UNK N   1      29.627  16.382   6.049  0.00  0.00    -0.365 N 
HETATM   29  C   UNK N   1      29.381  17.181   7.106  0.00  0.00     0.042 A 
HETATM   30  H   UNK N   1      29.028  16.206   5.288  0.00  0.00     0.165 HD
HETATM   31  C   UNK N   1      28.225  17.913   7.356  0.00  0.00     0.030 A 
HETATM   32  C   UNK N   1      30.438  17.191   7.967  0.00  0.00    -0.002 A 
HETATM   33  C   UNK N   1      28.177  18.677   8.538  0.00  0.00     0.002 A 
HETATM   34  C   UNK N   1      29.276  18.689   9.429  0.00  0.00     0.001 A 
HETATM   35  C   UNK N   1      30.427  17.933   9.146  0.00  0.00     0.014 A 
ENDBRANCH  25  26
ENDBRANCH  24  25
BRANCH  24  36
HETATM   36  C   UNK N   1      34.447  17.749   8.574  0.00  0.00     0.164 C 
HETATM   37  O   UNK N   1      34.926  18.833   8.279  0.00  0.00    -0.648 OA
BRANCH  36  38
HETATM   38  O   UNK N   1      34.469  17.341   9.861  0.00  0.00    -0.775 OA
HETATM   39  H   UNK N   1      34.839  16.802  10.532  0.00  0.00     0.167 HD
ENDBRANCH  36  38
ENDBRANCH  24  36
ENDBRANCH  22  24
ENDBRANCH   3  22
TORSDOF 9
ENDMDL
MODEL 4
REMARK VINA RESULT:      -9.0      7.710     12.687
REMARK  9 active torsions:
REMARK  status: ('A' for Active; 'I' for Inactive)
REMARK    1  A    between atoms: C_22  and  C_18 
REMARK    2  A    between atoms: C_27  and  C_18 
REMARK    3  A    between atoms: C_21  and  C_20 
REMARK    4  A    between atoms: N_31  and  C_23 
REMARK    5  A    between atoms: S_36  and  C_24 
REMARK    6  A    between atoms: C_28  and  C_27 
REMARK    7  A    between atoms: C_27  and  N_30 
REMARK    8  A    between atoms: O_33  and  C_28 
REMARK    9  A    between atoms: S_36  and  N_30 
ROOT
HETATM    1  O   UNK N   1      20.664  20.235   1.210  0.00  0.00    -0.201 OA
HETATM    2  O   UNK N   1      19.911  20.631   3.425  0.00  0.00    -0.201 OA
HETATM    3  S   UNK N   1      20.769  19.639   2.624  0.00  0.00     0.259 S 
ENDROOT
BRANCH   3   4
HETATM    4  C   UNK N   1      22.427  19.611   3.290  0.00  0.00     0.079 A 
HETATM    5  C   UNK N   1      22.797  18.675   4.264  0.00  0.00     0.027 A 
HETATM    6  C   UNK N   1      24.100  18.686   4.784  0.00  0.00     0.031 A 
HETATM    7  C   UNK N   1      25.030  19.644   4.341  0.00  0.00     0.030 A 
HETATM    8  C   UNK N   1      24.642  20.562   3.357  0.00  0.00     0.031 A 
HETATM    9  C   UNK N   1      23.359  20.533   2.832  0.00  0.00     0.027 A 
BRANCH   7  10
HETATM   10  N   UNK N   1      26.354  19.695   4.865  0.00  0.00    -0.381 N 
HETATM   11  C   UNK N   1      26.635  20.368   6.124  0.00  0.00     0.123 C 
HETATM   12  C   UNK N   1      27.988  19.930   6.701  0.00  0.00     0.029 C 
HETATM   13  C   UNK N   1      28.137  18.414   6.527  0.00  0.00     0.021 C 
HETATM   14  C   UNK N   1      28.109  17.995   5.051  0.00  0.00     0.029 C 
HETATM   15  C   UNK N   1      27.430  19.026   4.157  0.00  0.00     0.123 C 
BRANCH  13  16
HETATM   16  C   UNK N   1      29.374  17.886   7.174  0.00  0.00    -0.054 A 
HETATM   17  C   UNK N   1      30.216  17.036   6.451  0.00  0.00     0.007 A 
HETATM   18  C   UNK N   1      31.394  16.557   7.030  0.00  0.00     0.001 A 
HETATM   19  C   UNK N   1      31.735  16.928   8.334  0.00  0.00     0.000 A 
HETATM   20  C   UNK N   1      30.897  17.779   9.061  0.00  0.00     0.001 A 
HETATM   21  C   UNK N   1      29.718  18.259   8.483  0.00  0.00     0.007 A 
ENDBRANCH  13  16
ENDBRANCH   7  10
ENDBRANCH   3   4
BRANCH   3  22
HETATM   22  N   UNK N   1      19.772  18.159   2.625  0.00  0.00    -0.300 N 
HETATM   23  H   UNK N   1      18.840  18.139   3.037  0.00  0.00     0.173 HD
BRANCH  22  24
HETATM   24  C   UNK N   1      20.371  16.970   1.997  0.00  0.00     0.195 C 
BRANCH  24  25
HETATM   25  C   UNK N   1      20.120  15.688   2.810  0.00  0.00     0.077 C 
BRANCH  25  26
HETATM   26  C   UNK N   1      21.413  15.091   3.254  0.00  0.00    -0.028 A 
HETATM   27  C   UNK N   1      22.358  14.448   2.463  0.00  0.00     0.096 A 
HETATM   28  N   UNK N   1      23.430  14.110   3.227  0.00  0.00    -0.365 N 
HETATM   29  C   UNK N   1      23.152  14.543   4.472  0.00  0.00     0.042 A 
HETATM   30  H   UNK N   1      24.244  13.643   2.930  0.00  0.00     0.165 HD
HETATM   31  C   UNK N   1      23.960  14.438   5.600  0.00  0.00     0.030 A 
HETATM   32  C   UNK N   1      21.928  15.143   4.519  0.00  0.00    -0.002 A 
HETATM   33  C   UNK N   1      23.471  14.974   6.807  0.00  0.00     0.002 A 
HETATM   34  C   UNK N   1      22.200  15.594   6.854  0.00  0.00     0.001 A 
HETATM   35  C   UNK N   1      21.412  15.686   5.693  0.00  0.00     0.014 A 
ENDBRANCH  25  26
ENDBRANCH  24  25
BRANCH  24  36
HETATM   36  C   UNK N   1      19.954  16.811   0.560  0.00  0.00     0.164 C 
HETATM   37  O   UNK N   1      19.269  15.855   0.230  0.00  0.00    -0.648 OA
BRANCH  36  38
HETATM   38  O   UNK N   1      20.312  17.723  -0.368  0.00  0.00    -0.775 OA
HETATM   39  H   UNK N   1      20.913  18.375  -0.671  0.00  0.00     0.167 HD
ENDBRANCH  36  38
ENDBRANCH  24  36
ENDBRANCH  22  24
ENDBRANCH   3  22
TORSDOF 9
ENDMDL
MODEL 5
REMARK VINA RESULT:      -9.0      3.741      6.290
REMARK  9 active torsions:
REMARK  status: ('A' for Active; 'I' for Inactive)
REMARK    1  A    between atoms: C_22  and  C_18 
REMARK    2  A    between atoms: C_27  and  C_18 
REMARK    3  A    between atoms: C_21  and  C_20 
REMARK    4  A    between atoms: N_31  and  C_23 
REMARK    5  A    between atoms: S_36  and  C_24 
REMARK    6  A    between atoms: C_28  and  C_27 
REMARK    7  A    between atoms: C_27  and  N_30 
REMARK    8  A    between atoms: O_33  and  C_28 
REMARK    9  A    between atoms: S_36  and  N_30 
ROOT
HETATM    1  O   UNK N   1      30.454  16.485   9.901  0.00  0.00    -0.201 OA
HETATM    2  O   UNK N   1      30.543  18.669   8.981  0.00  0.00    -0.201 OA
HETATM    3  S   UNK N   1      30.990  17.233   8.669  0.00  0.00     0.259 S 
ENDROOT
BRANCH   3   4
HETATM    4  C   UNK N   1      30.270  16.707   7.119  0.00  0.00     0.079 A 
HETATM    5  C   UNK N   1      29.445  17.564   6.380  0.00  0.00     0.027 A 
HETATM    6  C   UNK N   1      28.878  17.122   5.176  0.00  0.00     0.031 A 
HETATM    7  C   UNK N   1      29.124  15.814   4.718  0.00  0.00     0.030 A 
HETATM    8  C   UNK N   1      29.962  14.979   5.466  0.00  0.00     0.031 A 
HETATM    9  C   UNK N   1      30.536  15.429   6.645  0.00  0.00     0.027 A 
BRANCH   7  10
HETATM   10  N   UNK N   1      28.546  15.328   3.509  0.00  0.00    -0.381 N 
HETATM   11  C   UNK N   1      28.931  14.036   2.963  0.00  0.00     0.123 C 
HETATM   12  C   UNK N   1      27.900  13.530   1.944  0.00  0.00     0.029 C 
HETATM   13  C   UNK N   1      26.491  13.810   2.482  0.00  0.00     0.021 C 
HETATM   14  C   UNK N   1      26.237  15.309   2.689  0.00  0.00     0.029 C 
HETATM   15  C   UNK N   1      27.524  16.111   2.839  0.00  0.00     0.123 C 
BRANCH  13  16
HETATM   16  C   UNK N   1      25.425  13.237   1.609  0.00  0.00    -0.054 A 
HETATM   17  C   UNK N   1      24.443  14.082   1.082  0.00  0.00     0.007 A 
HETATM   18  C   UNK N   1      23.456  13.568   0.237  0.00  0.00     0.001 A 
HETATM   19  C   UNK N   1      23.448  12.208  -0.085  0.00  0.00     0.000 A 
HETATM   20  C   UNK N   1      24.428  11.359   0.439  0.00  0.00     0.001 A 
HETATM   21  C   UNK N   1      25.417  11.871   1.283  0.00  0.00     0.007 A 
ENDBRANCH  13  16
ENDBRANCH   7  10
ENDBRANCH   3   4
BRANCH   3  22
HETATM   22  N   UNK N   1      32.761  17.316   8.858  0.00  0.00    -0.300 N 
HETATM   23  H   UNK N   1      33.236  18.185   9.103  0.00  0.00     0.173 HD
BRANCH  22  24
HETATM   24  C   UNK N   1      33.500  16.061   8.640  0.00  0.00     0.195 C 
BRANCH  24  25
HETATM   25  C   UNK N   1      34.681  16.236   7.671  0.00  0.00     0.077 C 
BRANCH  25  26
HETATM   26  C   UNK N   1      34.370  15.614   6.352  0.00  0.00    -0.028 A 
HETATM   27  C   UNK N   1      34.636  14.309   5.953  0.00  0.00     0.096 A 
HETATM   28  N   UNK N   1      34.135  14.107   4.706  0.00  0.00    -0.365 N 
HETATM   29  C   UNK N   1      33.562  15.272   4.342  0.00  0.00     0.042 A 
HETATM   30  H   UNK N   1      34.181  13.279   4.177  0.00  0.00     0.165 HD
HETATM   31  C   UNK N   1      32.900  15.547   3.150  0.00  0.00     0.030 A 
HETATM   32  C   UNK N   1      33.691  16.208   5.325  0.00  0.00    -0.002 A 
HETATM   33  C   UNK N   1      32.363  16.839   2.982  0.00  0.00     0.002 A 
HETATM   34  C   UNK N   1      32.501  17.809   4.002  0.00  0.00     0.001 A 
HETATM   35  C   UNK N   1      33.172  17.494   5.197  0.00  0.00     0.014 A 
ENDBRANCH  25  26
ENDBRANCH  24  25
BRANCH  24  36
HETATM   36  C   UNK N   1      33.927  15.418   9.932  0.00  0.00     0.164 C 
HETATM   37  O   UNK N   1      35.112  15.211  10.143  0.00  0.00    -0.648 OA
BRANCH  36  38
HETATM   38  O   UNK N   1      33.017  15.084  10.871  0.00  0.00    -0.775 OA
HETATM   39  H   UNK N   1      32.217  15.268  11.323  0.00  0.00     0.167 HD
ENDBRANCH  36  38
ENDBRANCH  24  36
ENDBRANCH  22  24
ENDBRANCH   3  22
TORSDOF 9
ENDMDL
MODEL 6
REMARK VINA RESULT:      -8.9      7.799     12.795
REMARK  9 active torsions:
REMARK  status: ('A' for Active; 'I' for Inactive)
REMARK    1  A    between atoms: C_22  and  C_18 
REMARK    2  A    between atoms: C_27  and  C_18 
REMARK    3  A    between atoms: C_21  and  C_20 
REMARK    4  A    between atoms: N_31  and  C_23 
REMARK    5  A    between atoms: S_36  and  C_24 
REMARK    6  A    between atoms: C_28  and  C_27 
REMARK    7  A    between atoms: C_27  and  N_30 
REMARK    8  A    between atoms: O_33  and  C_28 
REMARK    9  A    between atoms: S_36  and  N_30 
ROOT
HETATM    1  O   UNK N   1      21.174  20.309   1.528  0.00  0.00    -0.201 OA
HETATM    2  O   UNK N   1      20.336  20.621   3.725  0.00  0.00    -0.201 OA
HETATM    3  S   UNK N   1      21.098  19.587   2.883  0.00  0.00     0.259 S 
ENDROOT
BRANCH   3   4
HETATM    4  C   UNK N   1      22.687  19.260   3.633  0.00  0.00     0.079 A 
HETATM    5  C   UNK N   1      23.819  20.004   3.278  0.00  0.00     0.027 A 
HETATM    6  C   UNK N   1      25.058  19.716   3.867  0.00  0.00     0.031 A 
HETATM    7  C   UNK N   1      25.170  18.670   4.803  0.00  0.00     0.030 A 
HETATM    8  C   UNK N   1      24.022  17.947   5.152  0.00  0.00     0.031 A 
HETATM    9  C   UNK N   1      22.796  18.251   4.581  0.00  0.00     0.027 A 
BRANCH   7  10
HETATM   10  N   UNK N   1      26.419  18.339   5.404  0.00  0.00    -0.381 N 
HETATM   11  C   UNK N   1      26.758  16.957   5.711  0.00  0.00     0.123 C 
HETATM   12  C   UNK N   1      28.268  16.788   5.928  0.00  0.00     0.029 C 
HETATM   13  C   UNK N   1      29.018  17.604   4.868  0.00  0.00     0.021 C 
HETATM   14  C   UNK N   1      28.704  19.103   4.962  0.00  0.00     0.029 C 
HETATM   15  C   UNK N   1      27.385  19.388   5.671  0.00  0.00     0.123 C 
BRANCH  13  16
HETATM   16  C   UNK N   1      30.494  17.396   4.929  0.00  0.00    -0.054 A 
HETATM   17  C   UNK N   1      31.249  17.491   3.756  0.00  0.00     0.007 A 
HETATM   18  C   UNK N   1      32.636  17.331   3.800  0.00  0.00     0.001 A 
HETATM   19  C   UNK N   1      33.274  17.077   5.019  0.00  0.00     0.000 A 
HETATM   20  C   UNK N   1      32.523  16.983   6.194  0.00  0.00     0.001 A 
HETATM   21  C   UNK N   1      31.136  17.144   6.153  0.00  0.00     0.007 A 
ENDBRANCH  13  16
ENDBRANCH   7  10
ENDBRANCH   3   4
BRANCH   3  22
HETATM   22  N   UNK N   1      19.905  18.274   2.690  0.00  0.00    -0.300 N 
HETATM   23  H   UNK N   1      18.909  18.424   2.850  0.00  0.00     0.173 HD
BRANCH  22  24
HETATM   24  C   UNK N   1      20.439  16.962   2.289  0.00  0.00     0.195 C 
BRANCH  24  25
HETATM   25  C   UNK N   1      19.799  15.803   3.071  0.00  0.00     0.077 C 
BRANCH  25  26
HETATM   26  C   UNK N   1      20.734  15.301   4.119  0.00  0.00    -0.028 A 
HETATM   27  C   UNK N   1      21.907  14.580   3.924  0.00  0.00     0.096 A 
HETATM   28  N   UNK N   1      22.512  14.372   5.123  0.00  0.00    -0.365 N 
HETATM   29  C   UNK N   1      21.726  14.963   6.045  0.00  0.00     0.042 A 
HETATM   30  H   UNK N   1      23.354  13.889   5.284  0.00  0.00     0.165 HD
HETATM   31  C   UNK N   1      21.943  15.029   7.417  0.00  0.00     0.030 A 
HETATM   32  C   UNK N   1      20.634  15.535   5.462  0.00  0.00    -0.002 A 
HETATM   33  C   UNK N   1      20.990  15.712   8.198  0.00  0.00     0.002 A 
HETATM   34  C   UNK N   1      19.857  16.303   7.592  0.00  0.00     0.001 A 
HETATM   35  C   UNK N   1      19.672  16.220   6.200  0.00  0.00     0.014 A 
ENDBRANCH  25  26
ENDBRANCH  24  25
BRANCH  24  36
HETATM   36  C   UNK N   1      20.360  16.744   0.802  0.00  0.00     0.164 C 
HETATM   37  O   UNK N   1      20.349  15.608   0.356  0.00  0.00    -0.648 OA
BRANCH  36  38
HETATM   38  O   UNK N   1      20.282  17.791  -0.046  0.00  0.00    -0.775 OA
HETATM   39  H   UNK N   1      20.528  18.666  -0.276  0.00  0.00     0.167 HD
ENDBRANCH  36  38
ENDBRANCH  24  36
ENDBRANCH  22  24
ENDBRANCH   3  22
TORSDOF 9
ENDMDL
MODEL 7
REMARK VINA RESULT:      -8.8      4.230     10.637
REMARK  9 active torsions:
REMARK  status: ('A' for Active; 'I' for Inactive)
REMARK    1  A    between atoms: C_22  and  C_18 
REMARK    2  A    between atoms: C_27  and  C_18 
REMARK    3  A    between atoms: C_21  and  C_20 
REMARK    4  A    between atoms: N_31  and  C_23 
REMARK    5  A    between atoms: S_36  and  C_24 
REMARK    6  A    between atoms: C_28  and  C_27 
REMARK    7  A    between atoms: C_27  and  N_30 
REMARK    8  A    between atoms: O_33  and  C_28 
REMARK    9  A    between atoms: S_36  and  N_30 
ROOT
HETATM    1  O   UNK N   1      34.383  18.267   7.242  0.00  0.00    -0.201 OA
HETATM    2  O   UNK N   1      32.391  18.398   8.524  0.00  0.00    -0.201 OA
HETATM    3  S   UNK N   1      33.366  17.358   7.951  0.00  0.00     0.259 S 
ENDROOT
BRANCH   3   4
HETATM    4  C   UNK N   1      34.053  16.385   9.285  0.00  0.00     0.079 A 
HETATM    5  C   UNK N   1      33.394  15.243   9.758  0.00  0.00     0.027 A 
HETATM    6  C   UNK N   1      33.944  14.508  10.818  0.00  0.00     0.031 A 
HETATM    7  C   UNK N   1      35.147  14.924  11.417  0.00  0.00     0.030 A 
HETATM    8  C   UNK N   1      35.795  16.062  10.920  0.00  0.00     0.031 A 
HETATM    9  C   UNK N   1      35.257  16.773   9.858  0.00  0.00     0.027 A 
BRANCH   7  10
HETATM   10  N   UNK N   1      35.721  14.210  12.509  0.00  0.00    -0.381 N 
HETATM   11  C   UNK N   1      36.427  14.910  13.571  0.00  0.00     0.123 C 
HETATM   12  C   UNK N   1      36.566  14.032  14.823  0.00  0.00     0.029 C 
HETATM   13  C   UNK N   1      35.243  13.294  15.061  0.00  0.00     0.021 C 
HETATM   14  C   UNK N   1      34.876  12.372  13.890  0.00  0.00     0.029 C 
HETATM   15  C   UNK N   1      35.558  12.771  12.588  0.00  0.00     0.123 C 
BRANCH  13  16
HETATM   16  C   UNK N   1      35.250  12.511  16.332  0.00  0.00    -0.054 A 
HETATM   17  C   UNK N   1      35.220  13.189  17.555  0.00  0.00     0.007 A 
HETATM   18  C   UNK N   1      35.194  12.472  18.754  0.00  0.00     0.001 A 
HETATM   19  C   UNK N   1      35.196  11.074  18.734  0.00  0.00     0.000 A 
HETATM   20  C   UNK N   1      35.224  10.392  17.514  0.00  0.00     0.001 A 
HETATM   21  C   UNK N   1      35.250  11.107  16.314  0.00  0.00     0.007 A 
ENDBRANCH  13  16
ENDBRANCH   7  10
ENDBRANCH   3   4
BRANCH   3  22
HETATM   22  N   UNK N   1      32.405  16.576   6.668  0.00  0.00    -0.300 N 
HETATM   23  H   UNK N   1      31.592  15.998   6.881  0.00  0.00     0.173 HD
BRANCH  22  24
HETATM   24  C   UNK N   1      32.850  16.812   5.285  0.00  0.00     0.195 C 
BRANCH  24  25
HETATM   25  C   UNK N   1      33.601  15.606   4.696  0.00  0.00     0.077 C 
BRANCH  25  26
HETATM   26  C   UNK N   1      33.477  14.423   5.597  0.00  0.00    -0.028 A 
HETATM   27  C   UNK N   1      32.425  13.515   5.652  0.00  0.00     0.096 A 
HETATM   28  N   UNK N   1      32.719  12.540   6.552  0.00  0.00    -0.365 N 
HETATM   29  C   UNK N   1      33.939  12.839   7.041  0.00  0.00     0.042 A 
HETATM   30  H   UNK N   1      32.155  11.771   6.796  0.00  0.00     0.165 HD
HETATM   31  C   UNK N   1      34.668  12.119   7.982  0.00  0.00     0.030 A 
HETATM   32  C   UNK N   1      34.424  13.983   6.479  0.00  0.00    -0.002 A 
HETATM   33  C   UNK N   1      35.937  12.613   8.344  0.00  0.00     0.002 A 
HETATM   34  C   UNK N   1      36.437  13.800   7.761  0.00  0.00     0.001 A 
HETATM   35  C   UNK N   1      35.674  14.500   6.809  0.00  0.00     0.014 A 
ENDBRANCH  25  26
ENDBRANCH  24  25
BRANCH  24  36
HETATM   36  C   UNK N   1      31.726  17.260   4.391  0.00  0.00     0.164 C 
HETATM   37  O   UNK N   1      30.589  17.323   4.833  0.00  0.00    -0.648 OA
BRANCH  36  38
HETATM   38  O   UNK N   1      31.961  17.612   3.109  0.00  0.00    -0.775 OA
HETATM   39  H   UNK N   1      31.732  17.560   2.202  0.00  0.00     0.167 HD
ENDBRANCH  36  38
ENDBRANCH  24  36
ENDBRANCH  22  24
ENDBRANCH   3  22
TORSDOF 9
ENDMDL
MODEL 8
REMARK VINA RESULT:      -8.8      3.346     11.510
REMARK  9 active torsions:
REMARK  status: ('A' for Active; 'I' for Inactive)
REMARK    1  A    between atoms: C_22  and  C_18 
REMARK    2  A    between atoms: C_27  and  C_18 
REMARK    3  A    between atoms: C_21  and  C_20 
REMARK    4  A    between atoms: N_31  and  C_23 
REMARK    5  A    between atoms: S_36  and  C_24 
REMARK    6  A    between atoms: C_28  and  C_27 
REMARK    7  A    between atoms: C_27  and  N_30 
REMARK    8  A    between atoms: O_33  and  C_28 
REMARK    9  A    between atoms: S_36  and  N_30 
ROOT
HETATM    1  O   UNK N   1      32.020  13.905   7.128  0.00  0.00    -0.201 OA
HETATM    2  O   UNK N   1      33.663  12.398   6.316  0.00  0.00    -0.201 OA
HETATM    3  S   UNK N   1      33.545  13.717   7.096  0.00  0.00     0.259 S 
ENDROOT
BRANCH   3   4
HETATM    4  C   UNK N   1      34.298  13.527   8.707  0.00  0.00     0.079 A 
HETATM    5  C   UNK N   1      35.125  12.434   8.992  0.00  0.00     0.027 A 
HETATM    6  C   UNK N   1      35.689  12.298  10.269  0.00  0.00     0.031 A 
HETATM    7  C   UNK N   1      35.411  13.249  11.268  0.00  0.00     0.030 A 
HETATM    8  C   UNK N   1      34.591  14.341  10.958  0.00  0.00     0.031 A 
HETATM    9  C   UNK N   1      34.054  14.480   9.687  0.00  0.00     0.027 A 
BRANCH   7  10
HETATM   10  N   UNK N   1      35.951  13.128  12.582  0.00  0.00    -0.381 N 
HETATM   11  C   UNK N   1      36.237  14.307  13.385  0.00  0.00     0.123 C 
HETATM   12  C   UNK N   1      36.382  13.949  14.870  0.00  0.00     0.029 C 
HETATM   13  C   UNK N   1      35.290  12.941  15.248  0.00  0.00     0.021 C 
HETATM   14  C   UNK N   1      35.404  11.637  14.447  0.00  0.00     0.029 C 
HETATM   15  C   UNK N   1      36.175  11.809  13.144  0.00  0.00     0.123 C 
BRANCH  13  16
HETATM   16  C   UNK N   1      35.280  12.633  16.708  0.00  0.00    -0.054 A 
HETATM   17  C   UNK N   1      35.451  11.311  17.131  0.00  0.00     0.007 A 
HETATM   18  C   UNK N   1      35.477  11.008  18.495  0.00  0.00     0.001 A 
HETATM   19  C   UNK N   1      35.334  12.028  19.441  0.00  0.00     0.000 A 
HETATM   20  C   UNK N   1      35.164  13.351  19.023  0.00  0.00     0.001 A 
HETATM   21  C   UNK N   1      35.139  13.656  17.660  0.00  0.00     0.007 A 
ENDBRANCH  13  16
ENDBRANCH   7  10
ENDBRANCH   3   4
BRANCH   3  22
HETATM   22  N   UNK N   1      34.180  14.920   5.942  0.00  0.00    -0.300 N 
HETATM   23  H   UNK N   1      35.174  15.140   5.885  0.00  0.00     0.173 HD
BRANCH  22  24
HETATM   24  C   UNK N   1      33.187  15.578   5.075  0.00  0.00     0.195 C 
BRANCH  24  25
HETATM   25  C   UNK N   1      33.056  17.082   5.369  0.00  0.00     0.077 C 
BRANCH  25  26
HETATM   26  C   UNK N   1      32.385  17.300   6.683  0.00  0.00    -0.028 A 
HETATM   27  C   UNK N   1      32.987  17.637   7.890  0.00  0.00     0.096 A 
HETATM   28  N   UNK N   1      32.029  17.817   8.837  0.00  0.00    -0.365 N 
HETATM   29  C   UNK N   1      30.850  17.601   8.220  0.00  0.00     0.042 A 
HETATM   30  H   UNK N   1      32.169  18.058   9.781  0.00  0.00     0.165 HD
HETATM   31  C   UNK N   1      29.580  17.686   8.780  0.00  0.00     0.030 A 
HETATM   32  C   UNK N   1      31.037  17.282   6.907  0.00  0.00    -0.002 A 
HETATM   33  C   UNK N   1      28.477  17.429   7.943  0.00  0.00     0.002 A 
HETATM   34  C   UNK N   1      28.672  17.096   6.582  0.00  0.00     0.001 A 
HETATM   35  C   UNK N   1      29.971  17.024   6.048  0.00  0.00     0.014 A 
ENDBRANCH  25  26
ENDBRANCH  24  25
BRANCH  24  36
HETATM   36  C   UNK N   1      33.439  15.314   3.616  0.00  0.00     0.164 C 
HETATM   37  O   UNK N   1      33.964  14.267   3.271  0.00  0.00    -0.648 OA
BRANCH  36  38
HETATM   38  O   UNK N   1      33.074  16.214   2.678  0.00  0.00    -0.775 OA
HETATM   39  H   UNK N   1      33.208  17.038   2.253  0.00  0.00     0.167 HD
ENDBRANCH  36  38
ENDBRANCH  24  36
ENDBRANCH  22  24
ENDBRANCH   3  22
TORSDOF 9
ENDMDL
MODEL 9
REMARK VINA RESULT:      -8.7      7.037     11.719
REMARK  9 active torsions:
REMARK  status: ('A' for Active; 'I' for Inactive)
REMARK    1  A    between atoms: C_22  and  C_18 
REMARK    2  A    between atoms: C_27  and  C_18 
REMARK    3  A    between atoms: C_21  and  C_20 
REMARK    4  A    between atoms: N_31  and  C_23 
REMARK    5  A    between atoms: S_36  and  C_24 
REMARK    6  A    between atoms: C_28  and  C_27 
REMARK    7  A    between atoms: C_27  and  N_30 
REMARK    8  A    between atoms: O_33  and  C_28 
REMARK    9  A    between atoms: S_36  and  N_30 
ROOT
HETATM    1  O   UNK N   1      22.161  13.139   2.496  0.00  0.00    -0.201 OA
HETATM    2  O   UNK N   1      22.743  14.176   0.444  0.00  0.00    -0.201 OA
HETATM    3  S   UNK N   1      22.843  14.408   1.959  0.00  0.00     0.259 S 
ENDROOT
BRANCH   3   4
HETATM    4  C   UNK N   1      24.562  14.573   2.426  0.00  0.00     0.079 A 
HETATM    5  C   UNK N   1      25.108  13.794   3.453  0.00  0.00     0.027 A 
HETATM    6  C   UNK N   1      26.454  13.955   3.813  0.00  0.00     0.031 A 
HETATM    7  C   UNK N   1      27.251  14.910   3.153  0.00  0.00     0.030 A 
HETATM    8  C   UNK N   1      26.687  15.669   2.121  0.00  0.00     0.031 A 
HETATM    9  C   UNK N   1      25.362  15.490   1.757  0.00  0.00     0.027 A 
BRANCH   7  10
HETATM   10  N   UNK N   1      28.616  15.113   3.510  0.00  0.00    -0.381 N 
HETATM   11  C   UNK N   1      29.426  16.111   2.828  0.00  0.00     0.123 C 
HETATM   12  C   UNK N   1      30.681  16.461   3.640  0.00  0.00     0.029 C 
HETATM   13  C   UNK N   1      30.298  16.582   5.120  0.00  0.00     0.021 C 
HETATM   14  C   UNK N   1      29.737  15.269   5.682  0.00  0.00     0.029 C 
HETATM   15  C   UNK N   1      29.194  14.346   4.598  0.00  0.00     0.123 C 
BRANCH  13  16
HETATM   16  C   UNK N   1      31.438  17.043   5.967  0.00  0.00    -0.054 A 
HETATM   17  C   UNK N   1      31.231  17.266   7.332  0.00  0.00     0.007 A 
HETATM   18  C   UNK N   1      32.294  17.667   8.145  0.00  0.00     0.001 A 
HETATM   19  C   UNK N   1      33.568  17.846   7.596  0.00  0.00     0.000 A 
HETATM   20  C   UNK N   1      33.779  17.622   6.233  0.00  0.00     0.001 A 
HETATM   21  C   UNK N   1      32.718  17.220   5.417  0.00  0.00     0.007 A 
ENDBRANCH  13  16
ENDBRANCH   7  10
ENDBRANCH   3   4
BRANCH   3  22
HETATM   22  N   UNK N   1      21.702  15.751   2.233  0.00  0.00    -0.300 N 
HETATM   23  H   UNK N   1      21.137  16.139   1.479  0.00  0.00     0.173 HD
BRANCH  22  24
HETATM   24  C   UNK N   1      21.623  16.268   3.609  0.00  0.00     0.195 C 
BRANCH  24  25
HETATM   25  C   UNK N   1      22.393  17.588   3.786  0.00  0.00     0.077 C 
BRANCH  25  26
HETATM   26  C   UNK N   1      23.634  17.366   4.582  0.00  0.00    -0.028 A 
HETATM   27  C   UNK N   1      23.831  16.425   5.588  0.00  0.00     0.096 A 
HETATM   28  N   UNK N   1      25.118  16.490   6.019  0.00  0.00    -0.365 N 
HETATM   29  C   UNK N   1      25.709  17.454   5.285  0.00  0.00     0.042 A 
HETATM   30  H   UNK N   1      25.534  15.944   6.724  0.00  0.00     0.165 HD
HETATM   31  C   UNK N   1      27.034  17.871   5.355  0.00  0.00     0.030 A 
HETATM   32  C   UNK N   1      24.828  18.006   4.402  0.00  0.00    -0.002 A 
HETATM   33  C   UNK N   1      27.445  18.895   4.479  0.00  0.00     0.002 A 
HETATM   34  C   UNK N   1      26.529  19.468   3.566  0.00  0.00     0.001 A 
HETATM   35  C   UNK N   1      25.198  19.018   3.520  0.00  0.00     0.014 A 
ENDBRANCH  25  26
ENDBRANCH  24  25
BRANCH  24  36
HETATM   36  C   UNK N   1      20.204  16.380   4.096  0.00  0.00     0.164 C 
HETATM   37  O   UNK N   1      19.889  15.882   5.166  0.00  0.00    -0.648 OA
BRANCH  36  38
HETATM   38  O   UNK N   1      19.276  17.042   3.374  0.00  0.00    -0.775 OA
HETATM   39  H   UNK N   1      18.947  17.847   3.023  0.00  0.00     0.167 HD
ENDBRANCH  36  38
ENDBRANCH  24  36
ENDBRANCH  22  24
ENDBRANCH   3  22
TORSDOF 9
ENDMDL
