REMARK  8 active torsions:
REMARK  status: ('A' for Active; 'I' for Inactive)
REMARK    1  A    between atoms: C_2  and  C_1 
REMARK    2  A    between atoms: C_3  and  C_1 
REMARK    3  A    between atoms: C_4  and  C_2 
REMARK    4  A    between atoms: C_2  and  C_5 
REMARK    5  A    between atoms: O_8  and  C_3 
REMARK    6  A    between atoms: C_6  and  C_4 
REMARK    7  A    between atoms: O_11  and  C_5 
REMARK    8  A    between atoms: O_12  and  C_6 
ROOT
HETATM    1  C   UNK N   1       1.603  -0.076   0.177  0.00  0.00     0.174 C 
ENDROOT
BRANCH   1   2
HETATM    2  C   UNK N   1       2.550  -0.832  -0.777  0.00  0.00     0.133 C 
BRANCH   2   3
HETATM    3  C   UNK N   1       3.950  -0.996  -0.249  0.00  0.00     0.140 C 
HETATM    4  O   UNK N   1       4.379  -2.114  -0.019  0.00  0.00    -0.650 OA
BRANCH   3   5
HETATM    5  O   UNK N   1       4.742   0.073  -0.045  0.00  0.00    -0.776 OA
HETATM    6  H   UNK N   1       5.662  -0.032   0.098  0.00  0.00     0.167 HD
ENDBRANCH   3   5
ENDBRANCH   2   3
ENDBRANCH   1   2
BRANCH   1   7
HETATM    7  C   UNK N   1       0.235  -0.788   0.112  0.00  0.00     0.236 C 
HETATM    8  O   UNK N   1       0.252  -2.004   0.241  0.00  0.00    -0.285 OA
BRANCH   7   9
HETATM    9  C   UNK N   1      -1.118  -0.167  -0.029  0.00  0.00     0.214 C 
HETATM   10  O   UNK N   1      -1.291   1.034  -0.013  0.00  0.00    -0.644 OA
BRANCH   9  11
HETATM   11  O   UNK N   1      -2.196  -0.974  -0.105  0.00  0.00    -0.771 OA
HETATM   12  H   UNK N   1      -3.056  -0.605  -0.157  0.00  0.00     0.167 HD
ENDBRANCH   9  11
ENDBRANCH   7   9
ENDBRANCH   1   7
BRANCH   1  13
HETATM   13  C   UNK N   1       1.764   1.422  -0.080  0.00  0.00     0.152 C 
HETATM   14  O   UNK N   1       2.860   1.936   0.074  0.00  0.00    -0.649 OA
BRANCH  13  15
HETATM   15  O   UNK N   1       0.758   2.199  -0.504  0.00  0.00    -0.776 OA
HETATM   16  H   UNK N   1       0.877   3.080  -0.801  0.00  0.00     0.167 HD
ENDBRANCH  13  15
ENDBRANCH   1  13
TORSDOF 8
