MODEL 1
REMARK VINA RESULT:      -7.0      0.000      0.000
REMARK  28 active torsions:
REMARK  status: ('A' for Active; 'I' for Inactive)
REMARK    1  A    between atoms: C_11  and  C_3 
REMARK    2  A    between atoms: C_12  and  C_3 
REMARK    3  A    between atoms: C_13  and  C_5 
REMARK    4  A    between atoms: O_52  and  C_5 
REMARK    5  A    between atoms: C_14  and  C_6 
REMARK    6  A    between atoms: O_53  and  C_6 
REMARK    7  A    between atoms: C_16  and  C_9 
REMARK    8  A    between atoms: C_22  and  C_10 
REMARK    9  A    between atoms: C_26  and  C_11 
REMARK   10  A    between atoms: C_11  and  N_27 
REMARK   11  A    between atoms: C_16  and  C_12 
REMARK   12  A    between atoms: C_16  and  O_40 
REMARK   13  A    between atoms: C_17  and  O_41 
REMARK   14  A    between atoms: C_18  and  O_42 
REMARK   15  A    between atoms: C_19  and  O_43 
REMARK   16  A    between atoms: C_20  and  O_44 
REMARK   17  A    between atoms: N_28  and  C_21 
REMARK   18  A    between atoms: N_29  and  C_22 
REMARK   19  A    between atoms: O_45  and  C_22 
REMARK   20  A    between atoms: C_24  and  N_37 
REMARK   21  A    between atoms: C_25  and  N_38 
REMARK   22  A    between atoms: O_47  and  C_26 
REMARK   23  A    between atoms: P_57  and  O_49 
REMARK   24  A    between atoms: P_58  and  O_51 
REMARK   25  A    between atoms: P_57  and  O_52 
REMARK   26  A    between atoms: P_58  and  O_53 
REMARK   27  A    between atoms: P_57  and  O_56 
REMARK   28  A    between atoms: P_58  and  O_56 
ROOT
HETATM    1  C   UNK N   1      20.303  15.092   9.142  0.00  0.00     0.215 C 
ENDROOT
BRANCH   1   2
HETATM    2  C   UNK N   1      21.153  13.849   9.231  0.00  0.00     0.180 C 
HETATM    3  C   UNK N   1      21.094  13.027  10.489  0.00  0.00     0.182 C 
HETATM    4  C   UNK N   1      22.211  12.049  10.145  0.00  0.00     0.198 C 
HETATM    5  C   UNK N   1      23.177  12.948   9.331  0.00  0.00     0.259 C 
HETATM    6  O   UNK N   1      22.511  14.184   9.155  0.00  0.00    -0.353 OA
BRANCH   3   7
HETATM    7  O   UNK N   1      19.863  12.397  10.684  0.00  0.00    -0.390 OA
HETATM    8  H   UNK N   1      18.936  12.134  10.580  0.00  0.00     0.210 HD
ENDBRANCH   3   7
BRANCH   4   9
HETATM    9  O   UNK N   1      22.797  11.515  11.297  0.00  0.00    -0.388 OA
HETATM   10  H   UNK N   1      22.354  10.831  11.823  0.00  0.00     0.210 HD
ENDBRANCH   4   9
BRANCH   5  11
HETATM   11  N   UNK N   1      23.490  12.419   7.987  0.00  0.00    -0.336 N 
HETATM   12  C   UNK N   1      23.272  11.094   7.771  0.00  0.00     0.094 A 
HETATM   13  C   UNK N   1      23.449  10.527   6.544  0.00  0.00     0.028 A 
HETATM   14  C   UNK N   1      23.846  11.285   5.456  0.00  0.00    -0.005 A 
HETATM   15  C   UNK N   1      24.114  12.678   5.667  0.00  0.00     0.039 A 
HETATM   16  C   UNK N   1      23.917  13.212   6.964  0.00  0.00     0.109 A 
BRANCH  14  17
HETATM   17  C   UNK N   1      23.923  10.587   4.100  0.00  0.00     0.221 C 
BRANCH  17  18
HETATM   18  C   UNK N   1      22.775  10.840   3.118  0.00  0.00     0.162 C 
HETATM   19  O   UNK N   1      21.632  10.462   3.337  0.00  0.00    -0.295 OA
BRANCH  18  20
HETATM   20  C   UNK N   1      23.038  11.643   1.886  0.00  0.00     0.117 C 
BRANCH  20  21
HETATM   21  C   UNK N   1      21.957  12.695   1.637  0.00  0.00     0.180 C 
BRANCH  21  22
HETATM   22  C   UNK N   1      22.497  13.817   0.799  0.00  0.00     0.163 C 
HETATM   23  O   UNK N   1      21.878  14.865   0.720  0.00  0.00    -0.648 OA
BRANCH  22  24
HETATM   24  O   UNK N   1      23.654  13.676   0.119  0.00  0.00    -0.775 OA
HETATM   25  H   UNK N   1      23.905  12.889  -0.322  0.00  0.00     0.167 HD
ENDBRANCH  22  24
ENDBRANCH  21  22
BRANCH  21  26
HETATM   26  N   UNK N   1      21.489  13.226   2.909  0.00  0.00    -0.417 N 
HETATM   27  H   UNK N   1      20.996  14.099   3.097  0.00  0.00     0.150 HD
HETATM   28  H   UNK N   1      21.681  12.645   3.725  0.00  0.00     0.150 HD
ENDBRANCH  21  26
ENDBRANCH  20  21
ENDBRANCH  18  20
ENDBRANCH  17  18
BRANCH  17  29
HETATM   29  O   UNK N   1      24.067   9.213   4.298  0.00  0.00    -0.383 OA
HETATM   30  H   UNK N   1      24.525   8.406   4.580  0.00  0.00     0.211 HD
ENDBRANCH  17  29
ENDBRANCH  14  17
BRANCH  15  31
HETATM   31  C   UNK N   1      24.534  13.628   4.595  0.00  0.00     0.145 C 
BRANCH  31  32
HETATM   32  N   UNK N   1      25.688  13.558   4.046  0.00  0.00    -0.379 N 
HETATM   33  H   UNK N   1      26.358  14.266   4.186  0.00  0.00     0.158 HD
ATOM     34  HN  UNK N   1      25.916  12.760   3.453  1.00  0.00     0.158 HD
ENDBRANCH  31  32
BRANCH  31  35
HETATM   35  O   UNK N   1      23.678  14.586   4.188  0.00  0.00    -0.346 OA
HETATM   36  H   UNK N   1      23.947  15.237   3.569  0.00  0.00     0.219 HD
ENDBRANCH  31  35
ENDBRANCH  15  31
ENDBRANCH   5  11
ENDBRANCH   1   2
BRANCH   1  37
HETATM   37  O   UNK N   1      21.082  16.231   8.941  0.00  0.00    -0.294 OA
BRANCH  37  38
HETATM   38  P   UNK N   1      20.808  16.667   7.278  0.00  0.00     0.401 P 
HETATM   39  O   UNK N   1      20.806  18.218   7.214  0.00  0.00    -0.631 OA
BRANCH  38  40
HETATM   40  O   UNK N   1      22.126  16.162   6.267  0.00  0.00    -0.307 OA
HETATM   41  H   UNK N   1      21.978  15.751   5.401  0.00  0.00     0.222 HD
ENDBRANCH  38  40
BRANCH  38  42
HETATM   42  O   UNK N   1      19.275  16.142   6.619  0.00  0.00    -0.195 OA
BRANCH  42  43
HETATM   43  P   UNK N   1      19.538  15.039   5.282  0.00  0.00     0.401 P 
HETATM   44  O   UNK N   1      18.130  14.479   4.944  0.00  0.00    -0.631 OA
BRANCH  43  45
HETATM   45  O   UNK N   1      20.445  13.648   5.779  0.00  0.00    -0.307 OA
HETATM   46  H   UNK N   1      20.182  13.068   6.512  0.00  0.00     0.222 HD
ENDBRANCH  43  45
BRANCH  43  47
HETATM   47  O   UNK N   1      20.124  15.707   3.776  0.00  0.00    -0.294 OA
BRANCH  47  48
HETATM   48  C   UNK N   1      19.751  17.055   3.741  0.00  0.00     0.215 C 
BRANCH  48  49
HETATM   49  C   UNK N   1      20.811  17.879   3.035  0.00  0.00     0.180 C 
HETATM   50  C   UNK N   1      20.366  19.327   2.914  0.00  0.00     0.182 C 
HETATM   51  C   UNK N   1      21.696  19.967   2.742  0.00  0.00     0.198 C 
HETATM   52  C   UNK N   1      22.439  19.222   3.852  0.00  0.00     0.262 C 
HETATM   53  O   UNK N   1      22.042  17.867   3.742  0.00  0.00    -0.353 OA
BRANCH  50  54
HETATM   54  O   UNK N   1      19.497  19.540   1.843  0.00  0.00    -0.390 OA
HETATM   55  H   UNK N   1      18.561  19.778   1.946  0.00  0.00     0.210 HD
ENDBRANCH  50  54
BRANCH  51  56
HETATM   56  O   UNK N   1      21.645  21.349   2.940  0.00  0.00    -0.388 OA
HETATM   57  H   UNK N   1      21.068  22.102   3.142  0.00  0.00     0.210 HD
ENDBRANCH  51  56
BRANCH  52  58
HETATM   58  N   UNK N   1      23.903  19.351   3.800  0.00  0.00    -0.297 N 
HETATM   59  C   UNK N   1      24.566  20.301   3.090  0.00  0.00     0.188 A 
HETATM   60  N   UNK N   1      25.916  20.161   3.204  0.00  0.00    -0.346 N 
HETATM   61  C   UNK N   1      26.074  19.088   3.996  0.00  0.00     0.122 A 
ATOM     62  HN  UNK N   1      26.643  20.741   2.784  1.00  0.00     0.167 HD
HETATM   63  C   UNK N   1      27.235  18.467   4.430  0.00  0.00     0.131 A 
HETATM   64  C   UNK N   1      24.870  18.602   4.359  0.00  0.00     0.142 A 
HETATM   65  N   UNK N   1      27.114  17.359   5.219  0.00  0.00    -0.337 N 
HETATM   66  C   UNK N   1      25.878  16.877   5.573  0.00  0.00     0.183 A 
ATOM     67  HN  UNK N   1      27.953  16.882   5.549  1.00  0.00     0.168 HD
HETATM   68  N   UNK N   1      24.740  17.502   5.140  0.00  0.00    -0.336 N 
ATOM     69  HN  UNK N   1      23.818  17.150   5.399  1.00  0.00     0.168 HD
BRANCH  63  70
HETATM   70  N   UNK N   1      28.506  18.951   4.061  0.00  0.00    -0.383 N 
HETATM   71  H   UNK N   1      29.305  18.681   4.567  0.00  0.00     0.157 HD
HETATM   72  H   UNK N   1      28.595  19.562   3.294  0.00  0.00     0.157 HD
ENDBRANCH  63  70
ENDBRANCH  52  58
ENDBRANCH  48  49
ENDBRANCH  47  48
ENDBRANCH  43  47
ENDBRANCH  42  43
ENDBRANCH  38  42
ENDBRANCH  37  38
ENDBRANCH   1  37
TORSDOF 28
ENDMDL
MODEL 2
REMARK VINA RESULT:      -7.0      5.151      8.820
REMARK  28 active torsions:
REMARK  status: ('A' for Active; 'I' for Inactive)
REMARK    1  A    between atoms: C_11  and  C_3 
REMARK    2  A    between atoms: C_12  and  C_3 
REMARK    3  A    between atoms: C_13  and  C_5 
REMARK    4  A    between atoms: O_52  and  C_5 
REMARK    5  A    between atoms: C_14  and  C_6 
REMARK    6  A    between atoms: O_53  and  C_6 
REMARK    7  A    between atoms: C_16  and  C_9 
REMARK    8  A    between atoms: C_22  and  C_10 
REMARK    9  A    between atoms: C_26  and  C_11 
REMARK   10  A    between atoms: C_11  and  N_27 
REMARK   11  A    between atoms: C_16  and  C_12 
REMARK   12  A    between atoms: C_16  and  O_40 
REMARK   13  A    between atoms: C_17  and  O_41 
REMARK   14  A    between atoms: C_18  and  O_42 
REMARK   15  A    between atoms: C_19  and  O_43 
REMARK   16  A    between atoms: C_20  and  O_44 
REMARK   17  A    between atoms: N_28  and  C_21 
REMARK   18  A    between atoms: N_29  and  C_22 
REMARK   19  A    between atoms: O_45  and  C_22 
REMARK   20  A    between atoms: C_24  and  N_37 
REMARK   21  A    between atoms: C_25  and  N_38 
REMARK   22  A    between atoms: O_47  and  C_26 
REMARK   23  A    between atoms: P_57  and  O_49 
REMARK   24  A    between atoms: P_58  and  O_51 
REMARK   25  A    between atoms: P_57  and  O_52 
REMARK   26  A    between atoms: P_58  and  O_53 
REMARK   27  A    between atoms: P_57  and  O_56 
REMARK   28  A    between atoms: P_58  and  O_56 
ROOT
HETATM    1  C   UNK N   1      25.503  16.515   3.886  0.00  0.00     0.215 C 
ENDROOT
BRANCH   1   2
HETATM    2  C   UNK N   1      26.317  17.519   4.662  0.00  0.00     0.180 C 
HETATM    3  C   UNK N   1      25.813  18.933   4.758  0.00  0.00     0.182 C 
HETATM    4  C   UNK N   1      27.028  19.536   5.453  0.00  0.00     0.198 C 
HETATM    5  C   UNK N   1      28.185  18.701   4.844  0.00  0.00     0.259 C 
HETATM    6  O   UNK N   1      27.573  17.689   4.068  0.00  0.00    -0.353 OA
BRANCH   3   7
HETATM    7  O   UNK N   1      24.643  19.056   5.509  0.00  0.00    -0.390 OA
HETATM    8  H   UNK N   1      23.768  18.880   5.887  0.00  0.00     0.210 HD
ENDBRANCH   3   7
BRANCH   4   9
HETATM    9  O   UNK N   1      27.141  20.904   5.191  0.00  0.00    -0.388 OA
HETATM   10  H   UNK N   1      27.813  21.452   5.626  0.00  0.00     0.210 HD
ENDBRANCH   4   9
BRANCH   5  11
HETATM   11  N   UNK N   1      29.031  18.034   5.855  0.00  0.00    -0.336 N 
HETATM   12  C   UNK N   1      30.116  17.346   5.406  0.00  0.00     0.094 A 
HETATM   13  C   UNK N   1      31.005  16.767   6.262  0.00  0.00     0.028 A 
HETATM   14  C   UNK N   1      30.847  16.867   7.634  0.00  0.00    -0.005 A 
HETATM   15  C   UNK N   1      29.691  17.558   8.130  0.00  0.00     0.039 A 
HETATM   16  C   UNK N   1      28.800  18.137   7.194  0.00  0.00     0.109 A 
BRANCH  14  17
HETATM   17  C   UNK N   1      31.941  16.273   8.516  0.00  0.00     0.221 C 
BRANCH  17  18
HETATM   18  C   UNK N   1      33.338  16.893   8.409  0.00  0.00     0.162 C 
HETATM   19  O   UNK N   1      33.515  18.103   8.369  0.00  0.00    -0.295 OA
BRANCH  18  20
HETATM   20  C   UNK N   1      34.533  15.996   8.428  0.00  0.00     0.117 C 
BRANCH  20  21
HETATM   21  C   UNK N   1      35.134  15.862   9.828  0.00  0.00     0.180 C 
BRANCH  21  22
HETATM   22  C   UNK N   1      34.515  14.706  10.557  0.00  0.00     0.163 C 
HETATM   23  O   UNK N   1      35.070  13.619  10.552  0.00  0.00    -0.648 OA
BRANCH  22  24
HETATM   24  O   UNK N   1      33.342  14.849  11.209  0.00  0.00    -0.775 OA
HETATM   25  H   UNK N   1      33.150  15.564  11.784  0.00  0.00     0.167 HD
ENDBRANCH  22  24
ENDBRANCH  21  22
BRANCH  21  26
HETATM   26  N   UNK N   1      34.903  17.086  10.579  0.00  0.00    -0.417 N 
HETATM   27  H   UNK N   1      34.364  17.910  10.313  0.00  0.00     0.150 HD
HETATM   28  H   UNK N   1      35.340  17.126  11.500  0.00  0.00     0.150 HD
ENDBRANCH  21  26
ENDBRANCH  20  21
ENDBRANCH  18  20
ENDBRANCH  17  18
BRANCH  17  29
HETATM   29  O   UNK N   1      32.026  14.899   8.280  0.00  0.00    -0.383 OA
HETATM   30  H   UNK N   1      32.080  14.100   7.733  0.00  0.00     0.211 HD
ENDBRANCH  17  29
ENDBRANCH  14  17
BRANCH  15  31
HETATM   31  C   UNK N   1      29.389  17.765   9.577  0.00  0.00     0.145 C 
BRANCH  31  32
HETATM   32  N   UNK N   1      29.883  18.745  10.236  0.00  0.00    -0.379 N 
HETATM   33  H   UNK N   1      30.134  19.583   9.782  0.00  0.00     0.158 HD
ATOM     34  HN  UNK N   1      30.021  18.657  11.243  1.00  0.00     0.158 HD
ENDBRANCH  31  32
BRANCH  31  35
HETATM   35  O   UNK N   1      28.571  16.903  10.212  0.00  0.00    -0.346 OA
HETATM   36  H   UNK N   1      27.680  16.800   9.941  0.00  0.00     0.219 HD
ENDBRANCH  31  35
ENDBRANCH  15  31
ENDBRANCH   5  11
ENDBRANCH   1   2
BRANCH   1  37
HETATM   37  O   UNK N   1      26.089  15.250   3.915  0.00  0.00    -0.294 OA
BRANCH  37  38
HETATM   38  P   UNK N   1      24.821  14.188   4.459  0.00  0.00     0.401 P 
HETATM   39  O   UNK N   1      23.539  14.581   3.677  0.00  0.00    -0.631 OA
BRANCH  38  40
HETATM   40  O   UNK N   1      25.146  12.540   4.020  0.00  0.00    -0.307 OA
HETATM   41  H   UNK N   1      24.475  11.982   3.596  0.00  0.00     0.222 HD
ENDBRANCH  38  40
BRANCH  38  42
HETATM   42  O   UNK N   1      24.425  14.319   6.157  0.00  0.00    -0.195 OA
BRANCH  42  43
HETATM   43  P   UNK N   1      23.070  13.275   6.543  0.00  0.00     0.401 P 
HETATM   44  O   UNK N   1      23.680  12.129   7.396  0.00  0.00    -0.631 OA
BRANCH  43  45
HETATM   45  O   UNK N   1      22.462  12.479   5.128  0.00  0.00    -0.307 OA
HETATM   46  H   UNK N   1      22.527  12.849   4.233  0.00  0.00     0.222 HD
ENDBRANCH  43  45
BRANCH  43  47
HETATM   47  O   UNK N   1      21.789  13.932   7.534  0.00  0.00    -0.294 OA
BRANCH  47  48
HETATM   48  C   UNK N   1      20.638  14.002   6.741  0.00  0.00     0.215 C 
BRANCH  48  49
HETATM   49  C   UNK N   1      20.276  15.448   6.460  0.00  0.00     0.180 C 
HETATM   50  C   UNK N   1      21.183  16.385   7.241  0.00  0.00     0.182 C 
HETATM   51  C   UNK N   1      21.026  17.608   6.412  0.00  0.00     0.198 C 
HETATM   52  C   UNK N   1      21.180  16.958   5.036  0.00  0.00     0.262 C 
HETATM   53  O   UNK N   1      20.416  15.766   5.083  0.00  0.00    -0.353 OA
BRANCH  50  54
HETATM   54  O   UNK N   1      20.781  16.549   8.568  0.00  0.00    -0.390 OA
HETATM   55  H   UNK N   1      21.398  16.623   9.313  0.00  0.00     0.210 HD
ENDBRANCH  50  54
BRANCH  51  56
HETATM   56  O   UNK N   1      22.009  18.561   6.688  0.00  0.00    -0.388 OA
HETATM   57  H   UNK N   1      22.851  18.940   6.395  0.00  0.00     0.210 HD
ENDBRANCH  51  56
BRANCH  52  58
HETATM   58  N   UNK N   1      20.767  17.807   3.910  0.00  0.00    -0.297 N 
HETATM   59  C   UNK N   1      19.623  17.636   3.197  0.00  0.00     0.188 A 
HETATM   60  N   UNK N   1      19.514  18.552   2.195  0.00  0.00    -0.346 N 
HETATM   61  C   UNK N   1      20.632  19.290   2.296  0.00  0.00     0.122 A 
ATOM     62  HN  UNK N   1      18.756  18.655   1.520  1.00  0.00     0.167 HD
HETATM   63  C   UNK N   1      21.069  20.350   1.517  0.00  0.00     0.131 A 
HETATM   64  C   UNK N   1      21.383  18.851   3.325  0.00  0.00     0.142 A 
HETATM   65  N   UNK N   1      22.274  20.917   1.823  0.00  0.00    -0.337 N 
HETATM   66  C   UNK N   1      23.027  20.450   2.873  0.00  0.00     0.183 A 
ATOM     67  HN  UNK N   1      22.620  21.697   1.264  1.00  0.00     0.168 HD
HETATM   68  N   UNK N   1      22.580  19.405   3.635  0.00  0.00    -0.336 N 
ATOM     69  HN  UNK N   1      23.133  19.052   4.416  1.00  0.00     0.168 HD
BRANCH  63  70
HETATM   70  N   UNK N   1      20.306  20.826   0.432  0.00  0.00    -0.383 N 
HETATM   71  H   UNK N   1      19.797  20.198  -0.129  0.00  0.00     0.157 HD
HETATM   72  H   UNK N   1      20.283  21.790   0.234  0.00  0.00     0.157 HD
ENDBRANCH  63  70
ENDBRANCH  52  58
ENDBRANCH  48  49
ENDBRANCH  47  48
ENDBRANCH  43  47
ENDBRANCH  42  43
ENDBRANCH  38  42
ENDBRANCH  37  38
ENDBRANCH   1  37
TORSDOF 28
ENDMDL
MODEL 3
REMARK VINA RESULT:      -6.9      7.943     11.327
REMARK  28 active torsions:
REMARK  status: ('A' for Active; 'I' for Inactive)
REMARK    1  A    between atoms: C_11  and  C_3 
REMARK    2  A    between atoms: C_12  and  C_3 
REMARK    3  A    between atoms: C_13  and  C_5 
REMARK    4  A    between atoms: O_52  and  C_5 
REMARK    5  A    between atoms: C_14  and  C_6 
REMARK    6  A    between atoms: O_53  and  C_6 
REMARK    7  A    between atoms: C_16  and  C_9 
REMARK    8  A    between atoms: C_22  and  C_10 
REMARK    9  A    between atoms: C_26  and  C_11 
REMARK   10  A    between atoms: C_11  and  N_27 
REMARK   11  A    between atoms: C_16  and  C_12 
REMARK   12  A    between atoms: C_16  and  O_40 
REMARK   13  A    between atoms: C_17  and  O_41 
REMARK   14  A    between atoms: C_18  and  O_42 
REMARK   15  A    between atoms: C_19  and  O_43 
REMARK   16  A    between atoms: C_20  and  O_44 
REMARK   17  A    between atoms: N_28  and  C_21 
REMARK   18  A    between atoms: N_29  and  C_22 
REMARK   19  A    between atoms: O_45  and  C_22 
REMARK   20  A    between atoms: C_24  and  N_37 
REMARK   21  A    between atoms: C_25  and  N_38 
REMARK   22  A    between atoms: O_47  and  C_26 
REMARK   23  A    between atoms: P_57  and  O_49 
REMARK   24  A    between atoms: P_58  and  O_51 
REMARK   25  A    between atoms: P_57  and  O_52 
REMARK   26  A    between atoms: P_58  and  O_53 
REMARK   27  A    between atoms: P_57  and  O_56 
REMARK   28  A    between atoms: P_58  and  O_56 
ROOT
HETATM    1  C   UNK N   1      27.692  16.898   3.568  0.00  0.00     0.215 C 
ENDROOT
BRANCH   1   2
HETATM    2  C   UNK N   1      26.657  17.959   3.849  0.00  0.00     0.180 C 
HETATM    3  C   UNK N   1      27.117  19.290   4.377  0.00  0.00     0.182 C 
HETATM    4  C   UNK N   1      25.742  19.890   4.644  0.00  0.00     0.198 C 
HETATM    5  C   UNK N   1      24.929  18.637   5.063  0.00  0.00     0.259 C 
HETATM    6  O   UNK N   1      25.780  17.527   4.852  0.00  0.00    -0.353 OA
BRANCH   3   7
HETATM    7  O   UNK N   1      27.859  20.027   3.452  0.00  0.00    -0.390 OA
HETATM    8  H   UNK N   1      28.121  20.498   2.646  0.00  0.00     0.210 HD
ENDBRANCH   3   7
BRANCH   4   9
HETATM    9  O   UNK N   1      25.795  20.869   5.641  0.00  0.00    -0.388 OA
HETATM   10  H   UNK N   1      26.113  20.668   6.535  0.00  0.00     0.210 HD
ENDBRANCH   4   9
BRANCH   5  11
HETATM   11  N   UNK N   1      23.712  18.422   4.253  0.00  0.00    -0.336 N 
HETATM   12  C   UNK N   1      23.205  17.160   4.209  0.00  0.00     0.094 A 
HETATM   13  C   UNK N   1      22.041  16.875   3.560  0.00  0.00     0.028 A 
HETATM   14  C   UNK N   1      21.313  17.867   2.927  0.00  0.00    -0.005 A 
HETATM   15  C   UNK N   1      21.844  19.200   2.930  0.00  0.00     0.039 A 
HETATM   16  C   UNK N   1      23.060  19.437   3.618  0.00  0.00     0.109 A 
BRANCH  14  17
HETATM   17  C   UNK N   1      19.973  17.475   2.310  0.00  0.00     0.221 C 
BRANCH  17  18
HETATM   18  C   UNK N   1      19.991  16.976   0.861  0.00  0.00     0.162 C 
HETATM   19  O   UNK N   1      20.382  17.673  -0.065  0.00  0.00    -0.295 OA
BRANCH  18  20
HETATM   20  C   UNK N   1      19.590  15.566   0.575  0.00  0.00     0.117 C 
BRANCH  20  21
HETATM   21  C   UNK N   1      20.285  14.566   1.499  0.00  0.00     0.180 C 
BRANCH  21  22
HETATM   22  C   UNK N   1      21.493  13.982   0.828  0.00  0.00     0.163 C 
HETATM   23  O   UNK N   1      22.512  14.647   0.728  0.00  0.00    -0.648 OA
BRANCH  22  24
HETATM   24  O   UNK N   1      21.464  12.733   0.319  0.00  0.00    -0.775 OA
HETATM   25  H   UNK N   1      21.699  12.526  -0.564  0.00  0.00     0.167 HD
ENDBRANCH  22  24
ENDBRANCH  21  22
BRANCH  21  26
HETATM   26  N   UNK N   1      19.362  13.496   1.847  0.00  0.00    -0.417 N 
HETATM   27  H   UNK N   1      19.419  12.823   2.610  0.00  0.00     0.150 HD
HETATM   28  H   UNK N   1      18.545  13.407   1.242  0.00  0.00     0.150 HD
ENDBRANCH  21  26
ENDBRANCH  20  21
ENDBRANCH  18  20
ENDBRANCH  17  18
BRANCH  17  29
HETATM   29  O   UNK N   1      19.086  18.549   2.417  0.00  0.00    -0.383 OA
HETATM   30  H   UNK N   1      18.802  19.433   2.697  0.00  0.00     0.211 HD
ENDBRANCH  17  29
ENDBRANCH  14  17
BRANCH  15  31
HETATM   31  C   UNK N   1      21.173  20.378   2.307  0.00  0.00     0.145 C 
BRANCH  31  32
HETATM   32  N   UNK N   1      21.071  20.502   1.037  0.00  0.00    -0.379 N 
HETATM   33  H   UNK N   1      20.284  20.153   0.558  0.00  0.00     0.158 HD
ATOM     34  HN  UNK N   1      21.814  20.966   0.515  1.00  0.00     0.158 HD
ENDBRANCH  31  32
BRANCH  31  35
HETATM   35  O   UNK N   1      20.655  21.339   3.097  0.00  0.00    -0.346 OA
HETATM   36  H   UNK N   1      20.291  22.119   2.726  0.00  0.00     0.219 HD
ENDBRANCH  31  35
ENDBRANCH  15  31
ENDBRANCH   5  11
ENDBRANCH   1   2
BRANCH   1  37
HETATM   37  O   UNK N   1      28.365  16.520   4.729  0.00  0.00    -0.294 OA
BRANCH  37  38
HETATM   38  P   UNK N   1      30.044  16.475   4.272  0.00  0.00     0.401 P 
HETATM   39  O   UNK N   1      30.503  14.997   4.390  0.00  0.00    -0.631 OA
BRANCH  38  40
HETATM   40  O   UNK N   1      30.255  16.895   2.601  0.00  0.00    -0.307 OA
HETATM   41  H   UNK N   1      30.330  16.219   1.909  0.00  0.00     0.222 HD
ENDBRANCH  38  40
BRANCH  38  42
HETATM   42  O   UNK N   1      31.114  17.408   5.294  0.00  0.00    -0.195 OA
BRANCH  42  43
HETATM   43  P   UNK N   1      32.736  16.745   5.234  0.00  0.00     0.401 P 
HETATM   44  O   UNK N   1      33.671  17.953   5.513  0.00  0.00    -0.631 OA
BRANCH  43  45
HETATM   45  O   UNK N   1      33.155  16.241   3.629  0.00  0.00    -0.307 OA
HETATM   46  H   UNK N   1      33.588  16.819   2.980  0.00  0.00     0.222 HD
ENDBRANCH  43  45
BRANCH  43  47
HETATM   47  O   UNK N   1      33.176  15.555   6.436  0.00  0.00    -0.294 OA
BRANCH  47  48
HETATM   48  C   UNK N   1      34.555  15.665   6.652  0.00  0.00     0.215 C 
BRANCH  48  49
HETATM   49  C   UNK N   1      34.852  15.768   8.136  0.00  0.00     0.180 C 
HETATM   50  C   UNK N   1      33.560  15.780   8.937  0.00  0.00     0.182 C 
HETATM   51  C   UNK N   1      34.094  15.330  10.249  0.00  0.00     0.198 C 
HETATM   52  C   UNK N   1      34.965  14.179   9.744  0.00  0.00     0.262 C 
HETATM   53  O   UNK N   1      35.629  14.671   8.593  0.00  0.00    -0.353 OA
BRANCH  50  54
HETATM   54  O   UNK N   1      32.959  17.039   8.977  0.00  0.00    -0.390 OA
HETATM   55  H   UNK N   1      33.443  17.872   8.859  0.00  0.00     0.210 HD
ENDBRANCH  50  54
BRANCH  51  56
HETATM   56  O   UNK N   1      33.080  14.919  11.117  0.00  0.00    -0.388 OA
HETATM   57  H   UNK N   1      32.334  15.212  11.662  0.00  0.00     0.210 HD
ENDBRANCH  51  56
BRANCH  52  58
HETATM   58  N   UNK N   1      35.927  13.663  10.729  0.00  0.00    -0.297 N 
HETATM   59  C   UNK N   1      37.276  13.779  10.620  0.00  0.00     0.188 A 
HETATM   60  N   UNK N   1      37.917  13.183  11.664  0.00  0.00    -0.346 N 
HETATM   61  C   UNK N   1      36.926  12.681  12.420  0.00  0.00     0.122 A 
ATOM     62  HN  UNK N   1      38.922  13.131  11.834  1.00  0.00     0.167 HD
HETATM   63  C   UNK N   1      36.990  11.947  13.594  0.00  0.00     0.131 A 
HETATM   64  C   UNK N   1      35.732  12.970  11.866  0.00  0.00     0.142 A 
HETATM   65  N   UNK N   1      35.817  11.529  14.154  0.00  0.00    -0.337 N 
HETATM   66  C   UNK N   1      34.611  11.829  13.570  0.00  0.00     0.183 A 
ATOM     67  HN  UNK N   1      35.836  10.985  15.017  1.00  0.00     0.168 HD
HETATM   68  N   UNK N   1      34.563  12.557  12.413  0.00  0.00    -0.336 N 
ATOM     69  HN  UNK N   1      33.671  12.785  11.973  1.00  0.00     0.168 HD
BRANCH  63  70
HETATM   70  N   UNK N   1      38.226  11.627  14.191  0.00  0.00    -0.383 N 
HETATM   71  H   UNK N   1      38.268  11.391  15.146  0.00  0.00     0.157 HD
HETATM   72  H   UNK N   1      39.049  11.639  13.652  0.00  0.00     0.157 HD
ENDBRANCH  63  70
ENDBRANCH  52  58
ENDBRANCH  48  49
ENDBRANCH  47  48
ENDBRANCH  43  47
ENDBRANCH  42  43
ENDBRANCH  38  42
ENDBRANCH  37  38
ENDBRANCH   1  37
TORSDOF 28
ENDMDL
MODEL 4
REMARK VINA RESULT:      -6.9     10.768     14.528
REMARK  28 active torsions:
REMARK  status: ('A' for Active; 'I' for Inactive)
REMARK    1  A    between atoms: C_11  and  C_3 
REMARK    2  A    between atoms: C_12  and  C_3 
REMARK    3  A    between atoms: C_13  and  C_5 
REMARK    4  A    between atoms: O_52  and  C_5 
REMARK    5  A    between atoms: C_14  and  C_6 
REMARK    6  A    between atoms: O_53  and  C_6 
REMARK    7  A    between atoms: C_16  and  C_9 
REMARK    8  A    between atoms: C_22  and  C_10 
REMARK    9  A    between atoms: C_26  and  C_11 
REMARK   10  A    between atoms: C_11  and  N_27 
REMARK   11  A    between atoms: C_16  and  C_12 
REMARK   12  A    between atoms: C_16  and  O_40 
REMARK   13  A    between atoms: C_17  and  O_41 
REMARK   14  A    between atoms: C_18  and  O_42 
REMARK   15  A    between atoms: C_19  and  O_43 
REMARK   16  A    between atoms: C_20  and  O_44 
REMARK   17  A    between atoms: N_28  and  C_21 
REMARK   18  A    between atoms: N_29  and  C_22 
REMARK   19  A    between atoms: O_45  and  C_22 
REMARK   20  A    between atoms: C_24  and  N_37 
REMARK   21  A    between atoms: C_25  and  N_38 
REMARK   22  A    between atoms: O_47  and  C_26 
REMARK   23  A    between atoms: P_57  and  O_49 
REMARK   24  A    between atoms: P_58  and  O_51 
REMARK   25  A    between atoms: P_57  and  O_52 
REMARK   26  A    between atoms: P_58  and  O_53 
REMARK   27  A    between atoms: P_57  and  O_56 
REMARK   28  A    between atoms: P_58  and  O_56 
ROOT
HETATM    1  C   UNK N   1      33.570  13.903   8.514  0.00  0.00     0.215 C 
ENDROOT
BRANCH   1   2
HETATM    2  C   UNK N   1      33.398  15.299   7.969  0.00  0.00     0.180 C 
HETATM    3  C   UNK N   1      34.627  16.102   7.648  0.00  0.00     0.182 C 
HETATM    4  C   UNK N   1      33.933  17.419   7.324  0.00  0.00     0.198 C 
HETATM    5  C   UNK N   1      32.728  17.388   8.301  0.00  0.00     0.259 C 
HETATM    6  O   UNK N   1      32.747  16.110   8.908  0.00  0.00    -0.353 OA
BRANCH   3   7
HETATM    7  O   UNK N   1      35.356  15.595   6.570  0.00  0.00    -0.390 OA
HETATM    8  H   UNK N   1      35.707  15.462   5.676  0.00  0.00     0.210 HD
ENDBRANCH   3   7
BRANCH   4   9
HETATM    9  O   UNK N   1      34.780  18.511   7.533  0.00  0.00    -0.388 OA
HETATM   10  H   UNK N   1      35.710  18.494   7.256  0.00  0.00     0.210 HD
ENDBRANCH   4   9
BRANCH   5  11
HETATM   11  N   UNK N   1      31.419  17.541   7.634  0.00  0.00    -0.336 N 
HETATM   12  C   UNK N   1      31.316  17.101   6.351  0.00  0.00     0.094 A 
HETATM   13  C   UNK N   1      30.130  17.121   5.677  0.00  0.00     0.028 A 
HETATM   14  C   UNK N   1      28.972  17.578   6.280  0.00  0.00    -0.005 A 
HETATM   15  C   UNK N   1      29.063  18.080   7.621  0.00  0.00     0.039 A 
HETATM   16  C   UNK N   1      30.321  18.038   8.271  0.00  0.00     0.109 A 
BRANCH  14  17
HETATM   17  C   UNK N   1      27.673  17.473   5.485  0.00  0.00     0.221 C 
BRANCH  17  18
HETATM   18  C   UNK N   1      27.242  18.706   4.685  0.00  0.00     0.162 C 
HETATM   19  O   UNK N   1      27.700  19.820   4.903  0.00  0.00    -0.295 OA
BRANCH  18  20
HETATM   20  C   UNK N   1      26.288  18.536   3.548  0.00  0.00     0.117 C 
BRANCH  20  21
HETATM   21  C   UNK N   1      24.911  19.125   3.853  0.00  0.00     0.180 C 
BRANCH  21  22
HETATM   22  C   UNK N   1      24.685  20.376   3.056  0.00  0.00     0.163 C 
HETATM   23  O   UNK N   1      23.596  20.925   3.085  0.00  0.00    -0.648 OA
BRANCH  22  24
HETATM   24  O   UNK N   1      25.670  20.896   2.293  0.00  0.00    -0.775 OA
HETATM   25  H   UNK N   1      26.522  20.516   2.214  0.00  0.00     0.167 HD
ENDBRANCH  22  24
ENDBRANCH  21  22
BRANCH  21  26
HETATM   26  N   UNK N   1      24.814  19.435   5.272  0.00  0.00    -0.417 N 
HETATM   27  H   UNK N   1      25.172  18.909   6.069  0.00  0.00     0.150 HD
HETATM   28  H   UNK N   1      24.319  20.297   5.501  0.00  0.00     0.150 HD
ENDBRANCH  21  26
ENDBRANCH  20  21
ENDBRANCH  18  20
ENDBRANCH  17  18
BRANCH  17  29
HETATM   29  O   UNK N   1      26.638  17.095   6.344  0.00  0.00    -0.383 OA
HETATM   30  H   UNK N   1      26.242  16.621   7.092  0.00  0.00     0.211 HD
ENDBRANCH  17  29
ENDBRANCH  14  17
BRANCH  15  31
HETATM   31  C   UNK N   1      27.905  18.591   8.411  0.00  0.00     0.145 C 
BRANCH  31  32
HETATM   32  N   UNK N   1      27.337  19.705   8.132  0.00  0.00    -0.379 N 
HETATM   33  H   UNK N   1      26.647  20.082   8.724  0.00  0.00     0.158 HD
ATOM     34  HN  UNK N   1      27.602  20.206   7.284  1.00  0.00     0.158 HD
ENDBRANCH  31  32
BRANCH  31  35
HETATM   35  O   UNK N   1      27.436  17.866   9.446  0.00  0.00    -0.346 OA
HETATM   36  H   UNK N   1      28.019  17.365   9.982  0.00  0.00     0.219 HD
ENDBRANCH  31  35
ENDBRANCH  15  31
ENDBRANCH   5  11
ENDBRANCH   1   2
BRANCH   1  37
HETATM   37  O   UNK N   1      34.658  13.257   7.929  0.00  0.00    -0.294 OA
BRANCH  37  38
HETATM   38  P   UNK N   1      34.155  11.597   7.773  0.00  0.00     0.401 P 
HETATM   39  O   UNK N   1      32.673  11.533   8.230  0.00  0.00    -0.631 OA
BRANCH  38  40
HETATM   40  O   UNK N   1      34.152  11.091   6.113  0.00  0.00    -0.307 OA
HETATM   41  H   UNK N   1      34.314  10.169   5.859  0.00  0.00     0.222 HD
ENDBRANCH  38  40
BRANCH  38  42
HETATM   42  O   UNK N   1      35.031  10.461   8.775  0.00  0.00    -0.195 OA
BRANCH  42  43
HETATM   43  P   UNK N   1      34.739  10.801  10.470  0.00  0.00     0.401 P 
HETATM   44  O   UNK N   1      35.579   9.745  11.238  0.00  0.00    -0.631 OA
BRANCH  43  45
HETATM   45  O   UNK N   1      33.100  10.449  10.912  0.00  0.00    -0.307 OA
HETATM   46  H   UNK N   1      32.435  11.131  11.097  0.00  0.00     0.222 HD
ENDBRANCH  43  45
BRANCH  43  47
HETATM   47  O   UNK N   1      35.277  12.340  11.099  0.00  0.00    -0.294 OA
BRANCH  47  48
HETATM   48  C   UNK N   1      34.554  12.592  12.270  0.00  0.00     0.215 C 
BRANCH  48  49
HETATM   49  C   UNK N   1      35.438  12.405  13.489  0.00  0.00     0.180 C 
HETATM   50  C   UNK N   1      36.520  13.471  13.530  0.00  0.00     0.182 C 
HETATM   51  C   UNK N   1      36.840  13.425  14.980  0.00  0.00     0.198 C 
HETATM   52  C   UNK N   1      35.408  13.410  15.517  0.00  0.00     0.262 C 
HETATM   53  O   UNK N   1      34.695  12.502  14.695  0.00  0.00    -0.353 OA
BRANCH  50  54
HETATM   54  O   UNK N   1      37.606  13.173  12.704  0.00  0.00    -0.390 OA
HETATM   55  H   UNK N   1      38.469  13.613  12.769  0.00  0.00     0.210 HD
ENDBRANCH  50  54
BRANCH  51  56
HETATM   56  O   UNK N   1      37.576  14.538  15.393  0.00  0.00    -0.388 OA
HETATM   57  H   UNK N   1      37.640  15.504  15.357  0.00  0.00     0.210 HD
ENDBRANCH  51  56
BRANCH  52  58
HETATM   58  N   UNK N   1      35.291  13.044  16.936  0.00  0.00    -0.297 N 
HETATM   59  C   UNK N   1      35.315  13.933  17.963  0.00  0.00     0.188 A 
HETATM   60  N   UNK N   1      35.215  13.308  19.170  0.00  0.00    -0.346 N 
HETATM   61  C   UNK N   1      35.142  12.003  18.863  0.00  0.00     0.122 A 
ATOM     62  HN  UNK N   1      35.199  13.735  20.096  1.00  0.00     0.167 HD
HETATM   63  C   UNK N   1      35.054  10.898  19.697  0.00  0.00     0.131 A 
HETATM   64  C   UNK N   1      35.182  11.839  17.526  0.00  0.00     0.142 A 
HETATM   65  N   UNK N   1      35.020   9.661  19.120  0.00  0.00    -0.337 N 
HETATM   66  C   UNK N   1      35.068   9.516  17.755  0.00  0.00     0.183 A 
ATOM     67  HN  UNK N   1      34.958   8.831  19.712  1.00  0.00     0.168 HD
HETATM   68  N   UNK N   1      35.150  10.616  16.945  0.00  0.00    -0.336 N 
ATOM     69  HN  UNK N   1      35.186  10.517  15.930  1.00  0.00     0.168 HD
BRANCH  63  70
HETATM   70  N   UNK N   1      35.016  11.040  21.098  0.00  0.00    -0.383 N 
HETATM   71  H   UNK N   1      35.417  11.830  21.527  0.00  0.00     0.157 HD
HETATM   72  H   UNK N   1      34.588  10.345  21.650  0.00  0.00     0.157 HD
ENDBRANCH  63  70
ENDBRANCH  52  58
ENDBRANCH  48  49
ENDBRANCH  47  48
ENDBRANCH  43  47
ENDBRANCH  42  43
ENDBRANCH  38  42
ENDBRANCH  37  38
ENDBRANCH   1  37
TORSDOF 28
ENDMDL
MODEL 5
REMARK VINA RESULT:      -6.8      4.870      8.797
REMARK  28 active torsions:
REMARK  status: ('A' for Active; 'I' for Inactive)
REMARK    1  A    between atoms: C_11  and  C_3 
REMARK    2  A    between atoms: C_12  and  C_3 
REMARK    3  A    between atoms: C_13  and  C_5 
REMARK    4  A    between atoms: O_52  and  C_5 
REMARK    5  A    between atoms: C_14  and  C_6 
REMARK    6  A    between atoms: O_53  and  C_6 
REMARK    7  A    between atoms: C_16  and  C_9 
REMARK    8  A    between atoms: C_22  and  C_10 
REMARK    9  A    between atoms: C_26  and  C_11 
REMARK   10  A    between atoms: C_11  and  N_27 
REMARK   11  A    between atoms: C_16  and  C_12 
REMARK   12  A    between atoms: C_16  and  O_40 
REMARK   13  A    between atoms: C_17  and  O_41 
REMARK   14  A    between atoms: C_18  and  O_42 
REMARK   15  A    between atoms: C_19  and  O_43 
REMARK   16  A    between atoms: C_20  and  O_44 
REMARK   17  A    between atoms: N_28  and  C_21 
REMARK   18  A    between atoms: N_29  and  C_22 
REMARK   19  A    between atoms: O_45  and  C_22 
REMARK   20  A    between atoms: C_24  and  N_37 
REMARK   21  A    between atoms: C_25  and  N_38 
REMARK   22  A    between atoms: O_47  and  C_26 
REMARK   23  A    between atoms: P_57  and  O_49 
REMARK   24  A    between atoms: P_58  and  O_51 
REMARK   25  A    between atoms: P_57  and  O_52 
REMARK   26  A    between atoms: P_58  and  O_53 
REMARK   27  A    between atoms: P_57  and  O_56 
REMARK   28  A    between atoms: P_58  and  O_56 
ROOT
HETATM    1  C   UNK N   1      25.362  15.726   3.569  0.00  0.00     0.215 C 
ENDROOT
BRANCH   1   2
HETATM    2  C   UNK N   1      26.153  16.872   4.148  0.00  0.00     0.180 C 
HETATM    3  C   UNK N   1      25.714  18.276   3.840  0.00  0.00     0.182 C 
HETATM    4  C   UNK N   1      26.891  19.003   4.479  0.00  0.00     0.198 C 
HETATM    5  C   UNK N   1      28.054  18.013   4.211  0.00  0.00     0.259 C 
HETATM    6  O   UNK N   1      27.464  16.854   3.655  0.00  0.00    -0.353 OA
BRANCH   3   7
HETATM    7  O   UNK N   1      24.489  18.615   4.420  0.00  0.00    -0.390 OA
HETATM    8  H   UNK N   1      23.813  18.849   5.073  0.00  0.00     0.210 HD
ENDBRANCH   3   7
BRANCH   4   9
HETATM    9  O   UNK N   1      27.094  20.259   3.898  0.00  0.00    -0.388 OA
HETATM   10  H   UNK N   1      27.946  20.508   3.509  0.00  0.00     0.210 HD
ENDBRANCH   4   9
BRANCH   5  11
HETATM   11  N   UNK N   1      28.775  17.599   5.433  0.00  0.00    -0.336 N 
HETATM   12  C   UNK N   1      29.871  16.809   5.275  0.00  0.00     0.094 A 
HETATM   13  C   UNK N   1      30.652  16.443   6.332  0.00  0.00     0.028 A 
HETATM   14  C   UNK N   1      30.367  16.876   7.615  0.00  0.00    -0.005 A 
HETATM   15  C   UNK N   1      29.197  17.682   7.811  0.00  0.00     0.039 A 
HETATM   16  C   UNK N   1      28.421  18.028   6.678  0.00  0.00     0.109 A 
BRANCH  14  17
HETATM   17  C   UNK N   1      31.350  16.499   8.721  0.00  0.00     0.221 C 
BRANCH  17  18
HETATM   18  C   UNK N   1      32.433  15.473   8.373  0.00  0.00     0.162 C 
HETATM   19  O   UNK N   1      32.165  14.326   8.040  0.00  0.00    -0.295 OA
BRANCH  18  20
HETATM   20  C   UNK N   1      33.864  15.904   8.363  0.00  0.00     0.117 C 
BRANCH  20  21
HETATM   21  C   UNK N   1      34.070  17.245   9.067  0.00  0.00     0.180 C 
BRANCH  21  22
HETATM   22  C   UNK N   1      34.659  18.250   8.121  0.00  0.00     0.163 C 
HETATM   23  O   UNK N   1      34.525  18.100   6.918  0.00  0.00    -0.648 OA
BRANCH  22  24
HETATM   24  O   UNK N   1      35.349  19.313   8.584  0.00  0.00    -0.775 OA
HETATM   25  H   UNK N   1      35.511  19.471   9.493  0.00  0.00     0.167 HD
ENDBRANCH  22  24
ENDBRANCH  21  22
BRANCH  21  26
HETATM   26  N   UNK N   1      34.965  17.069  10.201  0.00  0.00    -0.417 N 
HETATM   27  H   UNK N   1      35.069  16.263  10.818  0.00  0.00     0.150 HD
HETATM   28  H   UNK N   1      35.571  17.863  10.410  0.00  0.00     0.150 HD
ENDBRANCH  21  26
ENDBRANCH  20  21
ENDBRANCH  18  20
ENDBRANCH  17  18
BRANCH  17  29
HETATM   29  O   UNK N   1      30.637  16.056   9.837  0.00  0.00    -0.383 OA
HETATM   30  H   UNK N   1      30.336  16.083  10.759  0.00  0.00     0.211 HD
ENDBRANCH  17  29
ENDBRANCH  14  17
BRANCH  15  31
HETATM   31  C   UNK N   1      28.765  18.237   9.128  0.00  0.00     0.145 C 
BRANCH  31  32
HETATM   32  N   UNK N   1      29.602  18.751   9.949  0.00  0.00    -0.379 N 
HETATM   33  H   UNK N   1      29.551  18.553  10.912  0.00  0.00     0.158 HD
ATOM     34  HN  UNK N   1      30.330  19.376   9.602  1.00  0.00     0.158 HD
ENDBRANCH  31  32
BRANCH  31  35
HETATM   35  O   UNK N   1      27.461  18.203   9.466  0.00  0.00    -0.346 OA
HETATM   36  H   UNK N   1      27.054  17.398   9.722  0.00  0.00     0.219 HD
ENDBRANCH  31  35
ENDBRANCH  15  31
ENDBRANCH   5  11
ENDBRANCH   1   2
BRANCH   1  37
HETATM   37  O   UNK N   1      24.212  15.470   4.315  0.00  0.00    -0.294 OA
BRANCH  37  38
HETATM   38  P   UNK N   1      24.353  13.800   4.786  0.00  0.00     0.401 P 
HETATM   39  O   UNK N   1      23.090  13.074   4.249  0.00  0.00    -0.631 OA
BRANCH  38  40
HETATM   40  O   UNK N   1      25.698  13.033   4.001  0.00  0.00    -0.307 OA
HETATM   41  H   UNK N   1      25.586  12.244   3.448  0.00  0.00     0.222 HD
ENDBRANCH  38  40
BRANCH  38  42
HETATM   42  O   UNK N   1      24.389  13.518   6.512  0.00  0.00    -0.195 OA
BRANCH  42  43
HETATM   43  P   UNK N   1      23.656  11.970   6.887  0.00  0.00     0.401 P 
HETATM   44  O   UNK N   1      24.189  11.608   8.300  0.00  0.00    -0.631 OA
BRANCH  43  45
HETATM   45  O   UNK N   1      24.272  10.715   5.862  0.00  0.00    -0.307 OA
HETATM   46  H   UNK N   1      25.121  10.267   6.011  0.00  0.00     0.222 HD
ENDBRANCH  43  45
BRANCH  43  47
HETATM   47  O   UNK N   1      21.916  11.906   7.039  0.00  0.00    -0.294 OA
BRANCH  47  48
HETATM   48  C   UNK N   1      21.561  12.693   8.140  0.00  0.00     0.215 C 
BRANCH  48  49
HETATM   49  C   UNK N   1      20.725  13.879   7.696  0.00  0.00     0.180 C 
HETATM   50  C   UNK N   1      20.492  14.830   8.858  0.00  0.00     0.182 C 
HETATM   51  C   UNK N   1      20.190  16.067   8.091  0.00  0.00     0.198 C 
HETATM   52  C   UNK N   1      21.324  15.970   7.070  0.00  0.00     0.262 C 
HETATM   53  O   UNK N   1      21.364  14.614   6.662  0.00  0.00    -0.353 OA
BRANCH  50  54
HETATM   54  O   UNK N   1      19.452  14.419   9.695  0.00  0.00    -0.390 OA
HETATM   55  H   UNK N   1      18.512  14.539   9.485  0.00  0.00     0.210 HD
ENDBRANCH  50  54
BRANCH  51  56
HETATM   56  O   UNK N   1      20.258  17.211   8.889  0.00  0.00    -0.388 OA
HETATM   57  H   UNK N   1      19.741  17.873   9.374  0.00  0.00     0.210 HD
ENDBRANCH  51  56
BRANCH  52  58
HETATM   58  N   UNK N   1      21.183  16.866   5.913  0.00  0.00    -0.297 N 
HETATM   59  C   UNK N   1      21.472  18.193   5.930  0.00  0.00     0.188 A 
HETATM   60  N   UNK N   1      21.219  18.777   4.725  0.00  0.00    -0.346 N 
HETATM   61  C   UNK N   1      20.750  17.776   3.962  0.00  0.00     0.122 A 
ATOM     62  HN  UNK N   1      21.355  19.753   4.461  1.00  0.00     0.167 HD
HETATM   63  C   UNK N   1      20.305  17.793   2.649  0.00  0.00     0.131 A 
HETATM   64  C   UNK N   1      20.730  16.628   4.669  0.00  0.00     0.142 A 
HETATM   65  N   UNK N   1      19.847  16.625   2.112  0.00  0.00    -0.337 N 
HETATM   66  C   UNK N   1      19.830  15.467   2.851  0.00  0.00     0.183 A 
ATOM     67  HN  UNK N   1      19.512  16.611   1.148  1.00  0.00     0.168 HD
HETATM   68  N   UNK N   1      20.276  15.464   4.144  0.00  0.00    -0.336 N 
ATOM     69  HN  UNK N   1      20.267  14.609   4.700  1.00  0.00     0.168 HD
BRANCH  63  70
HETATM   70  N   UNK N   1      20.309  18.980   1.890  0.00  0.00    -0.383 N 
HETATM   71  H   UNK N   1      19.816  19.772   2.205  0.00  0.00     0.157 HD
HETATM   72  H   UNK N   1      20.807  19.018   1.041  0.00  0.00     0.157 HD
ENDBRANCH  63  70
ENDBRANCH  52  58
ENDBRANCH  48  49
ENDBRANCH  47  48
ENDBRANCH  43  47
ENDBRANCH  42  43
ENDBRANCH  38  42
ENDBRANCH  37  38
ENDBRANCH   1  37
TORSDOF 28
ENDMDL
MODEL 6
REMARK VINA RESULT:      -6.8      3.652      6.416
REMARK  28 active torsions:
REMARK  status: ('A' for Active; 'I' for Inactive)
REMARK    1  A    between atoms: C_11  and  C_3 
REMARK    2  A    between atoms: C_12  and  C_3 
REMARK    3  A    between atoms: C_13  and  C_5 
REMARK    4  A    between atoms: O_52  and  C_5 
REMARK    5  A    between atoms: C_14  and  C_6 
REMARK    6  A    between atoms: O_53  and  C_6 
REMARK    7  A    between atoms: C_16  and  C_9 
REMARK    8  A    between atoms: C_22  and  C_10 
REMARK    9  A    between atoms: C_26  and  C_11 
REMARK   10  A    between atoms: C_11  and  N_27 
REMARK   11  A    between atoms: C_16  and  C_12 
REMARK   12  A    between atoms: C_16  and  O_40 
REMARK   13  A    between atoms: C_17  and  O_41 
REMARK   14  A    between atoms: C_18  and  O_42 
REMARK   15  A    between atoms: C_19  and  O_43 
REMARK   16  A    between atoms: C_20  and  O_44 
REMARK   17  A    between atoms: N_28  and  C_21 
REMARK   18  A    between atoms: N_29  and  C_22 
REMARK   19  A    between atoms: O_45  and  C_22 
REMARK   20  A    between atoms: C_24  and  N_37 
REMARK   21  A    between atoms: C_25  and  N_38 
REMARK   22  A    between atoms: O_47  and  C_26 
REMARK   23  A    between atoms: P_57  and  O_49 
REMARK   24  A    between atoms: P_58  and  O_51 
REMARK   25  A    between atoms: P_57  and  O_52 
REMARK   26  A    between atoms: P_58  and  O_53 
REMARK   27  A    between atoms: P_57  and  O_56 
REMARK   28  A    between atoms: P_58  and  O_56 
ROOT
HETATM    1  C   UNK N   1      23.367  13.248   5.100  0.00  0.00     0.215 C 
ENDROOT
BRANCH   1   2
HETATM    2  C   UNK N   1      23.993  13.682   3.797  0.00  0.00     0.180 C 
HETATM    3  C   UNK N   1      23.089  14.092   2.667  0.00  0.00     0.182 C 
HETATM    4  C   UNK N   1      24.161  14.250   1.596  0.00  0.00     0.198 C 
HETATM    5  C   UNK N   1      25.172  13.144   1.997  0.00  0.00     0.259 C 
HETATM    6  O   UNK N   1      24.717  12.625   3.232  0.00  0.00    -0.353 OA
BRANCH   3   7
HETATM    7  O   UNK N   1      22.392  15.277   2.915  0.00  0.00    -0.390 OA
HETATM    8  H   UNK N   1      21.964  16.015   3.375  0.00  0.00     0.210 HD
ENDBRANCH   3   7
BRANCH   4   9
HETATM    9  O   UNK N   1      23.633  14.073   0.313  0.00  0.00    -0.388 OA
HETATM   10  H   UNK N   1      23.419  14.827  -0.258  0.00  0.00     0.210 HD
ENDBRANCH   4   9
BRANCH   5  11
HETATM   11  N   UNK N   1      26.547  13.645   2.206  0.00  0.00    -0.336 N 
HETATM   12  C   UNK N   1      26.777  14.961   1.956  0.00  0.00     0.094 A 
HETATM   13  C   UNK N   1      27.989  15.538   2.198  0.00  0.00     0.028 A 
HETATM   14  C   UNK N   1      29.037  14.805   2.726  0.00  0.00    -0.005 A 
HETATM   15  C   UNK N   1      28.828  13.406   2.967  0.00  0.00     0.039 A 
HETATM   16  C   UNK N   1      27.550  12.860   2.693  0.00  0.00     0.109 A 
BRANCH  14  17
HETATM   17  C   UNK N   1      30.326  15.553   3.057  0.00  0.00     0.221 C 
BRANCH  17  18
HETATM   18  C   UNK N   1      30.641  15.779   4.539  0.00  0.00     0.162 C 
HETATM   19  O   UNK N   1      29.777  16.072   5.354  0.00  0.00    -0.295 OA
BRANCH  18  20
HETATM   20  C   UNK N   1      32.037  15.560   5.025  0.00  0.00     0.117 C 
BRANCH  20  21
HETATM   21  C   UNK N   1      32.880  16.834   4.960  0.00  0.00     0.180 C 
BRANCH  21  22
HETATM   22  C   UNK N   1      33.265  17.282   6.340  0.00  0.00     0.163 C 
HETATM   23  O   UNK N   1      32.496  17.103   7.270  0.00  0.00    -0.648 OA
BRANCH  22  24
HETATM   24  O   UNK N   1      34.446  17.893   6.564  0.00  0.00    -0.775 OA
HETATM   25  H   UNK N   1      34.736  18.169   7.410  0.00  0.00     0.167 HD
ENDBRANCH  22  24
ENDBRANCH  21  22
BRANCH  21  26
HETATM   26  N   UNK N   1      32.123  17.890   4.305  0.00  0.00    -0.417 N 
HETATM   27  H   UNK N   1      32.369  18.440   3.482  0.00  0.00     0.150 HD
HETATM   28  H   UNK N   1      31.220  18.110   4.727  0.00  0.00     0.150 HD
ENDBRANCH  21  26
ENDBRANCH  20  21
ENDBRANCH  18  20
ENDBRANCH  17  18
BRANCH  17  29
HETATM   29  O   UNK N   1      30.328  16.781   2.392  0.00  0.00    -0.383 OA
HETATM   30  H   UNK N   1      30.633  17.429   1.738  0.00  0.00     0.211 HD
ENDBRANCH  17  29
ENDBRANCH  14  17
BRANCH  15  31
HETATM   31  C   UNK N   1      29.851  12.487   3.546  0.00  0.00     0.145 C 
BRANCH  31  32
HETATM   32  N   UNK N   1      29.886  12.220   4.798  0.00  0.00    -0.379 N 
HETATM   33  H   UNK N   1      30.657  12.488   5.350  0.00  0.00     0.158 HD
ATOM     34  HN  UNK N   1      29.107  11.722   5.229  1.00  0.00     0.158 HD
ENDBRANCH  31  32
BRANCH  31  35
HETATM   35  O   UNK N   1      30.764  11.917   2.735  0.00  0.00    -0.346 OA
HETATM   36  H   UNK N   1      31.290  11.201   3.035  0.00  0.00     0.219 HD
ENDBRANCH  31  35
ENDBRANCH  15  31
ENDBRANCH   5  11
ENDBRANCH   1   2
BRANCH   1  37
HETATM   37  O   UNK N   1      21.975  13.320   5.047  0.00  0.00    -0.294 OA
BRANCH  37  38
HETATM   38  P   UNK N   1      21.513  14.047   6.560  0.00  0.00     0.401 P 
HETATM   39  O   UNK N   1      20.693  12.983   7.338  0.00  0.00    -0.631 OA
BRANCH  38  40
HETATM   40  O   UNK N   1      22.899  14.381   7.550  0.00  0.00    -0.307 OA
HETATM   41  H   UNK N   1      23.501  13.678   7.841  0.00  0.00     0.222 HD
ENDBRANCH  38  40
BRANCH  38  42
HETATM   42  O   UNK N   1      20.487  15.457   6.420  0.00  0.00    -0.195 OA
BRANCH  42  43
HETATM   43  P   UNK N   1      19.347  15.246   5.105  0.00  0.00     0.401 P 
HETATM   44  O   UNK N   1      18.041  15.927   5.596  0.00  0.00    -0.631 OA
BRANCH  43  45
HETATM   45  O   UNK N   1      18.912  13.579   4.907  0.00  0.00    -0.307 OA
HETATM   46  H   UNK N   1      18.756  13.163   4.044  0.00  0.00     0.222 HD
ENDBRANCH  43  45
BRANCH  43  47
HETATM   47  O   UNK N   1      19.706  16.021   3.580  0.00  0.00    -0.294 OA
BRANCH  47  48
HETATM   48  C   UNK N   1      19.624  17.404   3.782  0.00  0.00     0.215 C 
BRANCH  48  49
HETATM   49  C   UNK N   1      20.751  18.113   3.056  0.00  0.00     0.180 C 
HETATM   50  C   UNK N   1      20.418  19.583   2.863  0.00  0.00     0.182 C 
HETATM   51  C   UNK N   1      21.794  20.114   2.683  0.00  0.00     0.198 C 
HETATM   52  C   UNK N   1      22.466  19.367   3.836  0.00  0.00     0.262 C 
HETATM   53  O   UNK N   1      21.970  18.041   3.782  0.00  0.00    -0.353 OA
BRANCH  50  54
HETATM   54  O   UNK N   1      19.580  19.811   1.770  0.00  0.00    -0.390 OA
HETATM   55  H   UNK N   1      19.396  20.691   1.406  0.00  0.00     0.210 HD
ENDBRANCH  50  54
BRANCH  51  56
HETATM   56  O   UNK N   1      21.845  21.503   2.817  0.00  0.00    -0.388 OA
HETATM   57  H   UNK N   1      21.392  22.337   2.619  0.00  0.00     0.210 HD
ENDBRANCH  51  56
BRANCH  52  58
HETATM   58  N   UNK N   1      23.936  19.384   3.801  0.00  0.00    -0.297 N 
HETATM   59  C   UNK N   1      24.678  20.301   3.127  0.00  0.00     0.188 A 
HETATM   60  N   UNK N   1      26.012  20.054   3.249  0.00  0.00    -0.346 N 
HETATM   61  C   UNK N   1      26.078  18.947   4.006  0.00  0.00     0.122 A 
ATOM     62  HN  UNK N   1      26.786  20.588   2.854  1.00  0.00     0.167 HD
HETATM   63  C   UNK N   1      27.183  18.225   4.430  0.00  0.00     0.131 A 
HETATM   64  C   UNK N   1      24.837  18.544   4.344  0.00  0.00     0.142 A 
HETATM   65  N   UNK N   1      26.968  17.104   5.181  0.00  0.00    -0.337 N 
HETATM   66  C   UNK N   1      25.695  16.708   5.509  0.00  0.00     0.183 A 
ATOM     67  HN  UNK N   1      27.765  16.554   5.503  1.00  0.00     0.168 HD
HETATM   68  N   UNK N   1      24.613  17.433   5.087  0.00  0.00    -0.336 N 
ATOM     69  HN  UNK N   1      23.664  17.146   5.326  1.00  0.00     0.168 HD
BRANCH  63  70
HETATM   70  N   UNK N   1      28.491  18.620   4.087  0.00  0.00    -0.383 N 
HETATM   71  H   UNK N   1      28.691  19.565   3.900  0.00  0.00     0.157 HD
HETATM   72  H   UNK N   1      29.209  17.947   4.034  0.00  0.00     0.157 HD
ENDBRANCH  63  70
ENDBRANCH  52  58
ENDBRANCH  48  49
ENDBRANCH  47  48
ENDBRANCH  43  47
ENDBRANCH  42  43
ENDBRANCH  38  42
ENDBRANCH  37  38
ENDBRANCH   1  37
TORSDOF 28
ENDMDL
MODEL 7
REMARK VINA RESULT:      -6.8      2.743      7.258
REMARK  28 active torsions:
REMARK  status: ('A' for Active; 'I' for Inactive)
REMARK    1  A    between atoms: C_11  and  C_3 
REMARK    2  A    between atoms: C_12  and  C_3 
REMARK    3  A    between atoms: C_13  and  C_5 
REMARK    4  A    between atoms: O_52  and  C_5 
REMARK    5  A    between atoms: C_14  and  C_6 
REMARK    6  A    between atoms: O_53  and  C_6 
REMARK    7  A    between atoms: C_16  and  C_9 
REMARK    8  A    between atoms: C_22  and  C_10 
REMARK    9  A    between atoms: C_26  and  C_11 
REMARK   10  A    between atoms: C_11  and  N_27 
REMARK   11  A    between atoms: C_16  and  C_12 
REMARK   12  A    between atoms: C_16  and  O_40 
REMARK   13  A    between atoms: C_17  and  O_41 
REMARK   14  A    between atoms: C_18  and  O_42 
REMARK   15  A    between atoms: C_19  and  O_43 
REMARK   16  A    between atoms: C_20  and  O_44 
REMARK   17  A    between atoms: N_28  and  C_21 
REMARK   18  A    between atoms: N_29  and  C_22 
REMARK   19  A    between atoms: O_45  and  C_22 
REMARK   20  A    between atoms: C_24  and  N_37 
REMARK   21  A    between atoms: C_25  and  N_38 
REMARK   22  A    between atoms: O_47  and  C_26 
REMARK   23  A    between atoms: P_57  and  O_49 
REMARK   24  A    between atoms: P_58  and  O_51 
REMARK   25  A    between atoms: P_57  and  O_52 
REMARK   26  A    between atoms: P_58  and  O_53 
REMARK   27  A    between atoms: P_57  and  O_56 
REMARK   28  A    between atoms: P_58  and  O_56 
ROOT
HETATM    1  C   UNK N   1      20.191  17.907   2.475  0.00  0.00     0.215 C 
ENDROOT
BRANCH   1   2
HETATM    2  C   UNK N   1      20.570  16.534   1.979  0.00  0.00     0.180 C 
HETATM    3  C   UNK N   1      19.778  15.933   0.852  0.00  0.00     0.182 C 
HETATM    4  C   UNK N   1      20.420  14.551   0.865  0.00  0.00     0.198 C 
HETATM    5  C   UNK N   1      20.715  14.356   2.375  0.00  0.00     0.259 C 
HETATM    6  O   UNK N   1      20.405  15.588   2.998  0.00  0.00    -0.353 OA
BRANCH   3   7
HETATM    7  O   UNK N   1      19.950  16.598  -0.365  0.00  0.00    -0.390 OA
HETATM    8  H   UNK N   1      19.940  17.284  -1.049  0.00  0.00     0.210 HD
ENDBRANCH   3   7
BRANCH   4   9
HETATM    9  O   UNK N   1      19.559  13.581   0.344  0.00  0.00    -0.388 OA
HETATM   10  H   UNK N   1      19.849  12.954  -0.336  0.00  0.00     0.210 HD
ENDBRANCH   4   9
BRANCH   5  11
HETATM   11  N   UNK N   1      22.131  14.056   2.670  0.00  0.00    -0.336 N 
HETATM   12  C   UNK N   1      23.011  14.115   1.634  0.00  0.00     0.094 A 
HETATM   13  C   UNK N   1      24.351  13.938   1.816  0.00  0.00     0.028 A 
HETATM   14  C   UNK N   1      24.876  13.703   3.075  0.00  0.00    -0.005 A 
HETATM   15  C   UNK N   1      23.964  13.602   4.178  0.00  0.00     0.039 A 
HETATM   16  C   UNK N   1      22.583  13.791   3.929  0.00  0.00     0.109 A 
BRANCH  14  17
HETATM   17  C   UNK N   1      26.395  13.614   3.201  0.00  0.00     0.221 C 
BRANCH  17  18
HETATM   18  C   UNK N   1      27.164  14.935   3.316  0.00  0.00     0.162 C 
HETATM   19  O   UNK N   1      27.384  15.649   2.348  0.00  0.00    -0.295 OA
BRANCH  18  20
HETATM   20  C   UNK N   1      27.595  15.408   4.667  0.00  0.00     0.117 C 
BRANCH  20  21
HETATM   21  C   UNK N   1      27.191  16.858   4.929  0.00  0.00     0.180 C 
BRANCH  21  22
HETATM   22  C   UNK N   1      28.407  17.726   5.069  0.00  0.00     0.163 C 
HETATM   23  O   UNK N   1      29.270  17.432   5.881  0.00  0.00    -0.648 OA
BRANCH  22  24
HETATM   24  O   UNK N   1      28.554  18.837   4.317  0.00  0.00    -0.775 OA
HETATM   25  H   UNK N   1      28.936  18.839   3.462  0.00  0.00     0.167 HD
ENDBRANCH  22  24
ENDBRANCH  21  22
BRANCH  21  26
HETATM   26  N   UNK N   1      26.403  16.934   6.150  0.00  0.00    -0.417 N 
HETATM   27  H   UNK N   1      26.628  17.395   7.032  0.00  0.00     0.150 HD
HETATM   28  H   UNK N   1      25.500  16.459   6.121  0.00  0.00     0.150 HD
ENDBRANCH  21  26
ENDBRANCH  20  21
ENDBRANCH  18  20
ENDBRANCH  17  18
BRANCH  17  29
HETATM   29  O   UNK N   1      26.902  12.876   2.130  0.00  0.00    -0.383 OA
HETATM   30  H   UNK N   1      26.925  12.549   1.218  0.00  0.00     0.211 HD
ENDBRANCH  17  29
ENDBRANCH  14  17
BRANCH  15  31
HETATM   31  C   UNK N   1      24.375  13.369   5.594  0.00  0.00     0.145 C 
BRANCH  31  32
HETATM   32  N   UNK N   1      24.489  12.189   6.077  0.00  0.00    -0.379 N 
HETATM   33  H   UNK N   1      25.039  12.021   6.876  0.00  0.00     0.158 HD
ATOM     34  HN  UNK N   1      24.004  11.411   5.628  1.00  0.00     0.158 HD
ENDBRANCH  31  32
BRANCH  31  35
HETATM   35  O   UNK N   1      24.637  14.424   6.390  0.00  0.00    -0.346 OA
HETATM   36  H   UNK N   1      24.352  15.285   6.153  0.00  0.00     0.219 HD
ENDBRANCH  31  35
ENDBRANCH  15  31
ENDBRANCH   5  11
ENDBRANCH   1   2
BRANCH   1  37
HETATM   37  O   UNK N   1      20.693  18.908   1.643  0.00  0.00    -0.294 OA
BRANCH  37  38
HETATM   38  P   UNK N   1      21.421  20.060   2.725  0.00  0.00     0.401 P 
HETATM   39  O   UNK N   1      21.276  21.455   2.060  0.00  0.00    -0.631 OA
BRANCH  38  40
HETATM   40  O   UNK N   1      20.544  20.164   4.220  0.00  0.00    -0.307 OA
HETATM   41  H   UNK N   1      19.606  19.925   4.280  0.00  0.00     0.222 HD
ENDBRANCH  38  40
BRANCH  38  42
HETATM   42  O   UNK N   1      23.130  19.825   3.015  0.00  0.00    -0.195 OA
BRANCH  42  43
HETATM   43  P   UNK N   1      23.373  18.548   4.191  0.00  0.00     0.401 P 
HETATM   44  O   UNK N   1      24.529  19.054   5.097  0.00  0.00    -0.631 OA
BRANCH  43  45
HETATM   45  O   UNK N   1      24.007  17.116   3.447  0.00  0.00    -0.307 OA
HETATM   46  H   UNK N   1      24.948  16.984   3.250  0.00  0.00     0.222 HD
ENDBRANCH  43  45
BRANCH  43  47
HETATM   47  O   UNK N   1      22.065  18.196   5.296  0.00  0.00    -0.294 OA
BRANCH  47  48
HETATM   48  C   UNK N   1      22.151  16.839   5.630  0.00  0.00     0.215 C 
BRANCH  48  49
HETATM   49  C   UNK N   1      21.871  16.640   7.108  0.00  0.00     0.180 C 
HETATM   50  C   UNK N   1      20.445  17.049   7.439  0.00  0.00     0.182 C 
HETATM   51  C   UNK N   1      20.264  16.274   8.694  0.00  0.00     0.198 C 
HETATM   52  C   UNK N   1      20.854  14.947   8.214  0.00  0.00     0.262 C 
HETATM   53  O   UNK N   1      22.027  15.282   7.493  0.00  0.00    -0.353 OA
BRANCH  50  54
HETATM   54  O   UNK N   1      20.302  18.428   7.605  0.00  0.00    -0.390 OA
HETATM   55  H   UNK N   1      19.446  18.871   7.726  0.00  0.00     0.210 HD
ENDBRANCH  50  54
BRANCH  51  56
HETATM   56  O   UNK N   1      18.922  16.181   9.067  0.00  0.00    -0.388 OA
HETATM   57  H   UNK N   1      18.195  16.622   9.532  0.00  0.00     0.210 HD
ENDBRANCH  51  56
BRANCH  52  58
HETATM   58  N   UNK N   1      21.149  13.986   9.287  0.00  0.00    -0.297 N 
HETATM   59  C   UNK N   1      20.219  13.462  10.126  0.00  0.00     0.188 A 
HETATM   60  N   UNK N   1      20.782  12.621  11.039  0.00  0.00    -0.346 N 
HETATM   61  C   UNK N   1      22.094  12.650  10.751  0.00  0.00     0.122 A 
ATOM     62  HN  UNK N   1      20.315  12.090  11.774  1.00  0.00     0.167 HD
HETATM   63  C   UNK N   1      23.153  12.006  11.372  0.00  0.00     0.131 A 
HETATM   64  C   UNK N   1      22.319  13.463   9.700  0.00  0.00     0.142 A 
HETATM   65  N   UNK N   1      24.412  12.231  10.891  0.00  0.00    -0.337 N 
HETATM   66  C   UNK N   1      24.619  13.067   9.821  0.00  0.00     0.183 A 
ATOM     67  HN  UNK N   1      25.209  11.771  11.332  1.00  0.00     0.168 HD
HETATM   68  N   UNK N   1      23.563  13.693   9.216  0.00  0.00    -0.336 N 
ATOM     69  HN  UNK N   1      23.709  14.315   8.421  1.00  0.00     0.168 HD
BRANCH  63  70
HETATM   70  N   UNK N   1      22.948  11.156  12.477  0.00  0.00    -0.383 N 
HETATM   71  H   UNK N   1      23.288  10.233  12.461  0.00  0.00     0.157 HD
HETATM   72  H   UNK N   1      22.462  11.486  13.266  0.00  0.00     0.157 HD
ENDBRANCH  63  70
ENDBRANCH  52  58
ENDBRANCH  48  49
ENDBRANCH  47  48
ENDBRANCH  43  47
ENDBRANCH  42  43
ENDBRANCH  38  42
ENDBRANCH  37  38
ENDBRANCH   1  37
TORSDOF 28
ENDMDL
MODEL 8
REMARK VINA RESULT:      -6.8      3.113      7.322
REMARK  28 active torsions:
REMARK  status: ('A' for Active; 'I' for Inactive)
REMARK    1  A    between atoms: C_11  and  C_3 
REMARK    2  A    between atoms: C_12  and  C_3 
REMARK    3  A    between atoms: C_13  and  C_5 
REMARK    4  A    between atoms: O_52  and  C_5 
REMARK    5  A    between atoms: C_14  and  C_6 
REMARK    6  A    between atoms: O_53  and  C_6 
REMARK    7  A    between atoms: C_16  and  C_9 
REMARK    8  A    between atoms: C_22  and  C_10 
REMARK    9  A    between atoms: C_26  and  C_11 
REMARK   10  A    between atoms: C_11  and  N_27 
REMARK   11  A    between atoms: C_16  and  C_12 
REMARK   12  A    between atoms: C_16  and  O_40 
REMARK   13  A    between atoms: C_17  and  O_41 
REMARK   14  A    between atoms: C_18  and  O_42 
REMARK   15  A    between atoms: C_19  and  O_43 
REMARK   16  A    between atoms: C_20  and  O_44 
REMARK   17  A    between atoms: N_28  and  C_21 
REMARK   18  A    between atoms: N_29  and  C_22 
REMARK   19  A    between atoms: O_45  and  C_22 
REMARK   20  A    between atoms: C_24  and  N_37 
REMARK   21  A    between atoms: C_25  and  N_38 
REMARK   22  A    between atoms: O_47  and  C_26 
REMARK   23  A    between atoms: P_57  and  O_49 
REMARK   24  A    between atoms: P_58  and  O_51 
REMARK   25  A    between atoms: P_57  and  O_52 
REMARK   26  A    between atoms: P_58  and  O_53 
REMARK   27  A    between atoms: P_57  and  O_56 
REMARK   28  A    between atoms: P_58  and  O_56 
ROOT
HETATM    1  C   UNK N   1      20.832  15.914   1.473  0.00  0.00     0.215 C 
ENDROOT
BRANCH   1   2
HETATM    2  C   UNK N   1      20.712  16.828   2.668  0.00  0.00     0.180 C 
HETATM    3  C   UNK N   1      20.402  18.280   2.433  0.00  0.00     0.182 C 
HETATM    4  C   UNK N   1      20.564  18.759   3.871  0.00  0.00     0.198 C 
HETATM    5  C   UNK N   1      21.695  17.830   4.386  0.00  0.00     0.259 C 
HETATM    6  O   UNK N   1      21.931  16.890   3.355  0.00  0.00    -0.353 OA
BRANCH   3   7
HETATM    7  O   UNK N   1      19.118  18.500   1.931  0.00  0.00    -0.390 OA
HETATM    8  H   UNK N   1      18.187  18.764   1.863  0.00  0.00     0.210 HD
ENDBRANCH   3   7
BRANCH   4   9
HETATM    9  O   UNK N   1      20.899  20.115   3.925  0.00  0.00    -0.388 OA
HETATM   10  H   UNK N   1      21.204  20.596   3.140  0.00  0.00     0.210 HD
ENDBRANCH   4   9
BRANCH   5  11
HETATM   11  N   UNK N   1      21.333  17.072   5.602  0.00  0.00    -0.336 N 
HETATM   12  C   UNK N   1      21.875  15.834   5.750  0.00  0.00     0.094 A 
HETATM   13  C   UNK N   1      21.671  15.090   6.875  0.00  0.00     0.028 A 
HETATM   14  C   UNK N   1      20.911  15.574   7.925  0.00  0.00    -0.005 A 
HETATM   15  C   UNK N   1      20.301  16.864   7.777  0.00  0.00     0.039 A 
HETATM   16  C   UNK N   1      20.544  17.591   6.585  0.00  0.00     0.109 A 
BRANCH  14  17
HETATM   17  C   UNK N   1      20.817  14.715   9.184  0.00  0.00     0.221 C 
BRANCH  17  18
HETATM   18  C   UNK N   1      21.560  13.376   9.171  0.00  0.00     0.162 C 
HETATM   19  O   UNK N   1      21.205  12.437   8.472  0.00  0.00    -0.295 OA
BRANCH  18  20
HETATM   20  C   UNK N   1      22.807  13.231   9.982  0.00  0.00     0.117 C 
BRANCH  20  21
HETATM   21  C   UNK N   1      22.529  12.678  11.380  0.00  0.00     0.180 C 
BRANCH  21  22
HETATM   22  C   UNK N   1      23.806  12.245  12.038  0.00  0.00     0.163 C 
HETATM   23  O   UNK N   1      23.801  11.922  13.215  0.00  0.00    -0.648 OA
BRANCH  22  24
HETATM   24  O   UNK N   1      24.965  12.220  11.348  0.00  0.00    -0.775 OA
HETATM   25  H   UNK N   1      25.692  12.781  11.533  0.00  0.00     0.167 HD
ENDBRANCH  22  24
ENDBRANCH  21  22
BRANCH  21  26
HETATM   26  N   UNK N   1      21.625  11.541  11.286  0.00  0.00    -0.417 N 
HETATM   27  H   UNK N   1      21.414  10.830  11.986  0.00  0.00     0.150 HD
HETATM   28  H   UNK N   1      21.136  11.441  10.396  0.00  0.00     0.150 HD
ENDBRANCH  21  26
ENDBRANCH  20  21
ENDBRANCH  18  20
ENDBRANCH  17  18
BRANCH  17  29
HETATM   29  O   UNK N   1      19.472  14.495   9.489  0.00  0.00    -0.383 OA
HETATM   30  H   UNK N   1      18.671  14.550  10.033  0.00  0.00     0.211 HD
ENDBRANCH  17  29
ENDBRANCH  14  17
BRANCH  15  31
HETATM   31  C   UNK N   1      19.468  17.529   8.822  0.00  0.00     0.145 C 
BRANCH  31  32
HETATM   32  N   UNK N   1      18.291  17.117   9.108  0.00  0.00    -0.379 N 
HETATM   33  H   UNK N   1      18.147  16.459   9.828  0.00  0.00     0.158 HD
ATOM     34  HN  UNK N   1      17.491  17.472   8.585  1.00  0.00     0.158 HD
ENDBRANCH  31  32
BRANCH  31  35
HETATM   35  O   UNK N   1      19.965  18.590   9.488  0.00  0.00    -0.346 OA
HETATM   36  H   UNK N   1      19.716  19.462   9.252  0.00  0.00     0.219 HD
ENDBRANCH  31  35
ENDBRANCH  15  31
ENDBRANCH   5  11
ENDBRANCH   1   2
BRANCH   1  37
HETATM   37  O   UNK N   1      20.547  14.591   1.811  0.00  0.00    -0.294 OA
BRANCH  37  38
HETATM   38  P   UNK N   1      22.083  13.776   1.737  0.00  0.00     0.401 P 
HETATM   39  O   UNK N   1      21.825  12.390   1.088  0.00  0.00    -0.631 OA
BRANCH  38  40
HETATM   40  O   UNK N   1      23.181  14.592   0.667  0.00  0.00    -0.307 OA
HETATM   41  H   UNK N   1      23.467  14.197  -0.171  0.00  0.00     0.222 HD
ENDBRANCH  38  40
BRANCH  38  42
HETATM   42  O   UNK N   1      22.832  13.465   3.287  0.00  0.00    -0.195 OA
BRANCH  42  43
HETATM   43  P   UNK N   1      24.502  13.998   3.268  0.00  0.00     0.401 P 
HETATM   44  O   UNK N   1      25.158  13.213   2.100  0.00  0.00    -0.631 OA
BRANCH  43  45
HETATM   45  O   UNK N   1      25.354  13.458   4.679  0.00  0.00    -0.307 OA
HETATM   46  H   UNK N   1      24.979  13.480   5.574  0.00  0.00     0.222 HD
ENDBRANCH  43  45
BRANCH  43  47
HETATM   47  O   UNK N   1      24.819  15.678   2.908  0.00  0.00    -0.294 OA
BRANCH  47  48
HETATM   48  C   UNK N   1      26.158  15.779   2.515  0.00  0.00     0.215 C 
BRANCH  48  49
HETATM   49  C   UNK N   1      26.876  16.824   3.346  0.00  0.00     0.180 C 
HETATM   50  C   UNK N   1      25.888  17.844   3.889  0.00  0.00     0.182 C 
HETATM   51  C   UNK N   1      26.683  18.355   5.035  0.00  0.00     0.198 C 
HETATM   52  C   UNK N   1      27.159  17.009   5.585  0.00  0.00     0.262 C 
HETATM   53  O   UNK N   1      27.545  16.244   4.457  0.00  0.00    -0.353 OA
BRANCH  50  54
HETATM   54  O   UNK N   1      25.554  18.826   2.954  0.00  0.00    -0.390 OA
HETATM   55  H   UNK N   1      26.208  19.375   2.493  0.00  0.00     0.210 HD
ENDBRANCH  50  54
BRANCH  51  56
HETATM   56  O   UNK N   1      25.901  19.077   5.939  0.00  0.00    -0.388 OA
HETATM   57  H   UNK N   1      25.371  19.879   6.066  0.00  0.00     0.210 HD
ENDBRANCH  51  56
BRANCH  52  58
HETATM   58  N   UNK N   1      28.253  17.100   6.562  0.00  0.00    -0.297 N 
HETATM   59  C   UNK N   1      28.077  17.212   7.905  0.00  0.00     0.188 A 
HETATM   60  N   UNK N   1      29.267  17.306   8.561  0.00  0.00    -0.346 N 
HETATM   61  C   UNK N   1      30.189  17.263   7.585  0.00  0.00     0.122 A 
ATOM     62  HN  UNK N   1      29.423  17.389   9.566  1.00  0.00     0.167 HD
HETATM   63  C   UNK N   1      31.571  17.346   7.665  0.00  0.00     0.131 A 
HETATM   64  C   UNK N   1      29.587  17.135   6.386  0.00  0.00     0.142 A 
HETATM   65  N   UNK N   1      32.284  17.303   6.501  0.00  0.00    -0.337 N 
HETATM   66  C   UNK N   1      31.650  17.178   5.289  0.00  0.00     0.183 A 
ATOM     67  HN  UNK N   1      33.302  17.365   6.532  1.00  0.00     0.168 HD
HETATM   68  N   UNK N   1      30.286  17.093   5.226  0.00  0.00    -0.336 N 
ATOM     69  HN  UNK N   1      29.807  17.000   4.330  1.00  0.00     0.168 HD
BRANCH  63  70
HETATM   70  N   UNK N   1      32.226  17.486   8.904  0.00  0.00    -0.383 N 
HETATM   71  H   UNK N   1      31.954  18.193   9.532  0.00  0.00     0.157 HD
HETATM   72  H   UNK N   1      32.959  16.874   9.143  0.00  0.00     0.157 HD
ENDBRANCH  63  70
ENDBRANCH  52  58
ENDBRANCH  48  49
ENDBRANCH  47  48
ENDBRANCH  43  47
ENDBRANCH  42  43
ENDBRANCH  38  42
ENDBRANCH  37  38
ENDBRANCH   1  37
TORSDOF 28
ENDMDL
MODEL 9
REMARK VINA RESULT:      -6.7      5.122      9.058
REMARK  28 active torsions:
REMARK  status: ('A' for Active; 'I' for Inactive)
REMARK    1  A    between atoms: C_11  and  C_3 
REMARK    2  A    between atoms: C_12  and  C_3 
REMARK    3  A    between atoms: C_13  and  C_5 
REMARK    4  A    between atoms: O_52  and  C_5 
REMARK    5  A    between atoms: C_14  and  C_6 
REMARK    6  A    between atoms: O_53  and  C_6 
REMARK    7  A    between atoms: C_16  and  C_9 
REMARK    8  A    between atoms: C_22  and  C_10 
REMARK    9  A    between atoms: C_26  and  C_11 
REMARK   10  A    between atoms: C_11  and  N_27 
REMARK   11  A    between atoms: C_16  and  C_12 
REMARK   12  A    between atoms: C_16  and  O_40 
REMARK   13  A    between atoms: C_17  and  O_41 
REMARK   14  A    between atoms: C_18  and  O_42 
REMARK   15  A    between atoms: C_19  and  O_43 
REMARK   16  A    between atoms: C_20  and  O_44 
REMARK   17  A    between atoms: N_28  and  C_21 
REMARK   18  A    between atoms: N_29  and  C_22 
REMARK   19  A    between atoms: O_45  and  C_22 
REMARK   20  A    between atoms: C_24  and  N_37 
REMARK   21  A    between atoms: C_25  and  N_38 
REMARK   22  A    between atoms: O_47  and  C_26 
REMARK   23  A    between atoms: P_57  and  O_49 
REMARK   24  A    between atoms: P_58  and  O_51 
REMARK   25  A    between atoms: P_57  and  O_52 
REMARK   26  A    between atoms: P_58  and  O_53 
REMARK   27  A    between atoms: P_57  and  O_56 
REMARK   28  A    between atoms: P_58  and  O_56 
ROOT
HETATM    1  C   UNK N   1      26.685  15.281   2.904  0.00  0.00     0.215 C 
ENDROOT
BRANCH   1   2
HETATM    2  C   UNK N   1      26.942  16.507   3.744  0.00  0.00     0.180 C 
HETATM    3  C   UNK N   1      25.995  17.669   3.630  0.00  0.00     0.182 C 
HETATM    4  C   UNK N   1      26.770  18.651   4.499  0.00  0.00     0.198 C 
HETATM    5  C   UNK N   1      28.237  18.251   4.194  0.00  0.00     0.259 C 
HETATM    6  O   UNK N   1      28.169  17.086   3.395  0.00  0.00    -0.353 OA
BRANCH   3   7
HETATM    7  O   UNK N   1      24.719  17.396   4.127  0.00  0.00    -0.390 OA
HETATM    8  H   UNK N   1      23.997  17.036   4.664  0.00  0.00     0.210 HD
ENDBRANCH   3   7
BRANCH   4   9
HETATM    9  O   UNK N   1      26.480  19.976   4.159  0.00  0.00    -0.388 OA
HETATM   10  H   UNK N   1      25.597  20.354   4.293  0.00  0.00     0.210 HD
ENDBRANCH   4   9
BRANCH   5  11
HETATM   11  N   UNK N   1      29.024  17.916   5.399  0.00  0.00    -0.336 N 
HETATM   12  C   UNK N   1      30.263  17.387   5.209  0.00  0.00     0.094 A 
HETATM   13  C   UNK N   1      31.099  17.122   6.253  0.00  0.00     0.028 A 
HETATM   14  C   UNK N   1      30.725  17.395   7.557  0.00  0.00    -0.005 A 
HETATM   15  C   UNK N   1      29.410  17.921   7.785  0.00  0.00     0.039 A 
HETATM   16  C   UNK N   1      28.582  18.173   6.663  0.00  0.00     0.109 A 
BRANCH  14  17
HETATM   17  C   UNK N   1      31.761  17.159   8.653  0.00  0.00     0.221 C 
BRANCH  17  18
HETATM   18  C   UNK N   1      33.232  17.131   8.229  0.00  0.00     0.162 C 
HETATM   19  O   UNK N   1      33.815  18.128   7.823  0.00  0.00    -0.295 OA
BRANCH  18  20
HETATM   20  C   UNK N   1      34.009  15.864   8.385  0.00  0.00     0.117 C 
BRANCH  20  21
HETATM   21  C   UNK N   1      34.914  15.887   9.617  0.00  0.00     0.180 C 
BRANCH  21  22
HETATM   22  C   UNK N   1      34.498  14.826  10.594  0.00  0.00     0.163 C 
HETATM   23  O   UNK N   1      35.244  13.887  10.822  0.00  0.00    -0.648 OA
BRANCH  22  24
HETATM   24  O   UNK N   1      33.303  14.890  11.217  0.00  0.00    -0.775 OA
HETATM   25  H   UNK N   1      33.059  14.337  11.932  0.00  0.00     0.167 HD
ENDBRANCH  22  24
ENDBRANCH  21  22
BRANCH  21  26
HETATM   26  N   UNK N   1      34.835  17.191  10.258  0.00  0.00    -0.417 N 
HETATM   27  H   UNK N   1      34.046  17.835  10.308  0.00  0.00     0.150 HD
HETATM   28  H   UNK N   1      35.688  17.504  10.723  0.00  0.00     0.150 HD
ENDBRANCH  21  26
ENDBRANCH  20  21
ENDBRANCH  18  20
ENDBRANCH  17  18
BRANCH  17  29
HETATM   29  O   UNK N   1      31.452  15.976   9.329  0.00  0.00    -0.383 OA
HETATM   30  H   UNK N   1      31.571  15.047   9.578  0.00  0.00     0.211 HD
ENDBRANCH  17  29
ENDBRANCH  14  17
BRANCH  15  31
HETATM   31  C   UNK N   1      28.866  18.282   9.127  0.00  0.00     0.145 C 
BRANCH  31  32
HETATM   32  N   UNK N   1      29.631  18.620  10.096  0.00  0.00    -0.379 N 
HETATM   33  H   UNK N   1      29.529  18.211  10.986  0.00  0.00     0.158 HD
ATOM     34  HN  UNK N   1      30.355  19.323   9.945  1.00  0.00     0.158 HD
ENDBRANCH  31  32
BRANCH  31  35
HETATM   35  O   UNK N   1      27.534  18.256   9.330  0.00  0.00    -0.346 OA
HETATM   36  H   UNK N   1      27.074  17.442   9.390  0.00  0.00     0.219 HD
ENDBRANCH  31  35
ENDBRANCH  15  31
ENDBRANCH   5  11
ENDBRANCH   1   2
BRANCH   1  37
HETATM   37  O   UNK N   1      25.981  15.595   1.743  0.00  0.00    -0.294 OA
BRANCH  37  38
HETATM   38  P   UNK N   1      24.586  14.554   1.776  0.00  0.00     0.401 P 
HETATM   39  O   UNK N   1      23.468  15.324   2.528  0.00  0.00    -0.631 OA
BRANCH  38  40
HETATM   40  O   UNK N   1      23.966  14.277   0.178  0.00  0.00    -0.307 OA
HETATM   41  H   UNK N   1      23.422  13.502  -0.032  0.00  0.00     0.222 HD
ENDBRANCH  38  40
BRANCH  38  42
HETATM   42  O   UNK N   1      24.810  13.045   2.632  0.00  0.00    -0.195 OA
BRANCH  42  43
HETATM   43  P   UNK N   1      23.265  12.250   2.867  0.00  0.00     0.401 P 
HETATM   44  O   UNK N   1      23.616  10.752   3.079  0.00  0.00    -0.631 OA
BRANCH  43  45
HETATM   45  O   UNK N   1      22.318  12.266   1.415  0.00  0.00    -0.307 OA
HETATM   46  H   UNK N   1      22.522  11.727   0.634  0.00  0.00     0.222 HD
ENDBRANCH  43  45
BRANCH  43  47
HETATM   47  O   UNK N   1      22.326  12.690   4.274  0.00  0.00    -0.294 OA
BRANCH  47  48
HETATM   48  C   UNK N   1      20.985  12.410   3.988  0.00  0.00     0.215 C 
BRANCH  48  49
HETATM   49  C   UNK N   1      20.211  13.697   3.770  0.00  0.00     0.180 C 
HETATM   50  C   UNK N   1      19.128  13.851   4.825  0.00  0.00     0.182 C 
HETATM   51  C   UNK N   1      18.935  15.323   4.750  0.00  0.00     0.198 C 
HETATM   52  C   UNK N   1      20.408  15.733   4.739  0.00  0.00     0.262 C 
HETATM   53  O   UNK N   1      21.054  14.837   3.853  0.00  0.00    -0.353 OA
BRANCH  50  54
HETATM   54  O   UNK N   1      17.977  13.118   4.532  0.00  0.00    -0.390 OA
HETATM   55  H   UNK N   1      17.249  12.982   5.160  0.00  0.00     0.210 HD
ENDBRANCH  50  54
BRANCH  51  56
HETATM   56  O   UNK N   1      18.229  15.819   5.848  0.00  0.00    -0.388 OA
HETATM   57  H   UNK N   1      18.302  16.289   6.692  0.00  0.00     0.210 HD
ENDBRANCH  51  56
BRANCH  52  58
HETATM   58  N   UNK N   1      20.650  17.130   4.349  0.00  0.00    -0.297 N 
HETATM   59  C   UNK N   1      20.991  18.121   5.214  0.00  0.00     0.188 A 
HETATM   60  N   UNK N   1      21.124  19.318   4.577  0.00  0.00    -0.346 N 
HETATM   61  C   UNK N   1      20.842  19.045   3.293  0.00  0.00     0.122 A 
ATOM     62  HN  UNK N   1      21.380  20.218   4.984  1.00  0.00     0.167 HD
HETATM   63  C   UNK N   1      20.795  19.890   2.195  0.00  0.00     0.131 A 
HETATM   64  C   UNK N   1      20.563  17.734   3.150  0.00  0.00     0.142 A 
HETATM   65  N   UNK N   1      20.451  19.354   0.987  0.00  0.00    -0.337 N 
HETATM   66  C   UNK N   1      20.164  18.017   0.864  0.00  0.00     0.183 A 
ATOM     67  HN  UNK N   1      20.406  19.955   0.163  1.00  0.00     0.168 HD
HETATM   68  N   UNK N   1      20.219  17.194   1.956  0.00  0.00    -0.336 N 
ATOM     69  HN  UNK N   1      20.008  16.199   1.874  1.00  0.00     0.168 HD
BRANCH  63  70
HETATM   70  N   UNK N   1      21.077  21.265   2.316  0.00  0.00    -0.383 N 
HETATM   71  H   UNK N   1      20.351  21.907   2.490  0.00  0.00     0.157 HD
HETATM   72  H   UNK N   1      22.004  21.586   2.227  0.00  0.00     0.157 HD
ENDBRANCH  63  70
ENDBRANCH  52  58
ENDBRANCH  48  49
ENDBRANCH  47  48
ENDBRANCH  43  47
ENDBRANCH  42  43
ENDBRANCH  38  42
ENDBRANCH  37  38
ENDBRANCH   1  37
TORSDOF 28
ENDMDL
