MODEL 1
REMARK VINA RESULT:      -6.9      0.000      0.000
REMARK  9 active torsions:
REMARK  status: ('A' for Active; 'I' for Inactive)
REMARK    1  A    between atoms: C_16  and  C_17 
REMARK    2  A    between atoms: C_16  and  C_26 
REMARK    3  A    between atoms: C_19  and  C_17 
REMARK    4  A    between atoms: C_20  and  C_19 
REMARK    5  A    between atoms: C_21  and  O_22 
REMARK    6  A    between atoms: C_23  and  O_24 
REMARK       I    between atoms: C_26  and  N_28 
REMARK    7  A    between atoms: N_28  and  C_29 
REMARK    8  A    between atoms: C_29  and  C_31 
REMARK    9  A    between atoms: C_31  and  O_30 
ROOT
HETATM    1  C   UNK N   1      30.721  24.809  -3.875  0.00  0.00     0.012 C 
HETATM    2  C   UNK N   1      31.003  23.309  -3.793  0.00  0.00     0.032 C 
HETATM    3  C   UNK N   1      28.633  22.888  -3.110  0.00  0.00     0.037 C 
HETATM    4  C   UNK N   1      26.848  24.589  -3.615  0.00  0.00     0.037 C 
HETATM    5  C   UNK N   1      29.257  25.104  -4.231  0.00  0.00    -0.036 C 
HETATM    6  C   UNK N   1      29.824  25.229  -6.775  0.00  0.00     0.007 C 
HETATM    7  C   UNK N   1      29.531  26.714  -6.954  0.00  0.00     0.010 C 
HETATM    8  C   UNK N   1      25.763  26.347  -7.090  0.00  0.00     0.006 C 
HETATM    9  C   UNK N   1      26.146  26.145  -8.549  0.00  0.00     0.006 C 
HETATM   10  C   UNK N   1      29.066  26.606  -4.044  0.00  0.00     0.016 C 
HETATM   11  C   UNK N   1      28.936  24.628  -5.687  0.00  0.00     0.001 C 
HETATM   12  C   UNK N   1      27.457  24.781  -6.088  0.00  0.00     0.024 C 
HETATM   13  C   UNK N   1      27.079  26.266  -6.329  0.00  0.00     0.001 C 
HETATM   14  C   UNK N   1      28.056  27.002  -7.266  0.00  0.00    -0.036 C 
HETATM   15  C   UNK N   1      27.868  28.493  -7.038  0.00  0.00     0.016 C 
HETATM   16  C   UNK N   1      27.541  26.746  -8.699  0.00  0.00    -0.002 C 
HETATM   17  C   UNK N   1      30.099  22.653  -2.753  0.00  0.00     0.118 C 
HETATM   18  C   UNK N   1      26.584  24.072  -5.033  0.00  0.00     0.123 C 
HETATM   19  C   UNK N   1      28.320  24.386  -3.231  0.00  0.00    -0.001 C 
ENDROOT
BRANCH  16  20
HETATM   20  C   UNK N   1      28.353  26.110  -9.853  0.00  0.00    -0.013 C 
HETATM   21  C   UNK N   1      28.305  26.896 -11.149  0.00  0.00     0.010 C 
BRANCH  20  22
HETATM   22  C   UNK N   1      27.764  24.747 -10.221  0.00  0.00     0.014 C 
BRANCH  22  23
HETATM   23  C   UNK N   1      28.639  23.554  -9.879  0.00  0.00     0.103 C 
BRANCH  23  24
HETATM   24  C   UNK N   1      27.880  22.535  -9.086  0.00  0.00     0.218 C 
HETATM   25  N   UNK N   1      26.643  22.173  -9.494  0.00  0.00    -0.351 N 
HETATM   26  H   UNK N   1      26.283  22.562 -10.323  0.00  0.00     0.163 HD
HETATM   27  O   UNK N   1      28.361  22.071  -8.061  0.00  0.00    -0.274 OA
BRANCH  25  28
HETATM   28  C   UNK N   1      25.833  21.238  -8.757  0.00  0.00     0.232 C 
BRANCH  28  29
HETATM   29  C   UNK N   1      24.855  21.998  -7.927  0.00  0.00     0.158 C 
HETATM   30  O   UNK N   1      24.422  21.513  -6.895  0.00  0.00    -0.649 OA
BRANCH  29  31
HETATM   31  O   UNK N   1      24.441  23.217  -8.323  0.00  0.00    -0.775 OA
HETATM   32  H   UNK N   1      24.902  23.838  -8.853  0.00  0.00     0.167 HD
ENDBRANCH  29  31
ENDBRANCH  28  29
ENDBRANCH  25  28
ENDBRANCH  23  24
ENDBRANCH  22  23
ENDBRANCH  20  22
ENDBRANCH  16  20
BRANCH  18  33
HETATM   33  O   UNK N   1      25.225  24.156  -5.335  0.00  0.00    -0.395 OA
HETATM   34  H   UNK N   1      24.778  25.018  -5.323  0.00  0.00     0.210 HD
ENDBRANCH  18  33
BRANCH  17  35
HETATM   35  O   UNK N   1      30.379  23.157  -1.480  0.00  0.00    -0.396 OA
HETATM   36  H   UNK N   1      29.922  23.680  -0.803  0.00  0.00     0.210 HD
ENDBRANCH  17  35
TORSDOF 9
ENDMDL
MODEL 2
REMARK VINA RESULT:      -6.8      3.070      5.968
REMARK  9 active torsions:
REMARK  status: ('A' for Active; 'I' for Inactive)
REMARK    1  A    between atoms: C_16  and  C_17 
REMARK    2  A    between atoms: C_16  and  C_26 
REMARK    3  A    between atoms: C_19  and  C_17 
REMARK    4  A    between atoms: C_20  and  C_19 
REMARK    5  A    between atoms: C_21  and  O_22 
REMARK    6  A    between atoms: C_23  and  O_24 
REMARK       I    between atoms: C_26  and  N_28 
REMARK    7  A    between atoms: N_28  and  C_29 
REMARK    8  A    between atoms: C_29  and  C_31 
REMARK    9  A    between atoms: C_31  and  O_30 
ROOT
HETATM    1  C   UNK N   1      28.214  28.897  -5.173  0.00  0.00     0.012 C 
HETATM    2  C   UNK N   1      28.068  29.064  -3.661  0.00  0.00     0.032 C 
HETATM    3  C   UNK N   1      25.766  28.090  -3.763  0.00  0.00     0.037 C 
HETATM    4  C   UNK N   1      25.081  26.661  -5.718  0.00  0.00     0.037 C 
HETATM    5  C   UNK N   1      27.390  27.717  -5.707  0.00  0.00    -0.036 C 
HETATM    6  C   UNK N   1      29.426  26.099  -5.487  0.00  0.00     0.007 C 
HETATM    7  C   UNK N   1      29.621  25.849  -6.979  0.00  0.00     0.010 C 
HETATM    8  C   UNK N   1      26.783  23.364  -7.323  0.00  0.00     0.006 C 
HETATM    9  C   UNK N   1      27.938  22.460  -6.919  0.00  0.00     0.006 C 
HETATM   10  C   UNK N   1      27.438  27.816  -7.229  0.00  0.00     0.016 C 
HETATM   11  C   UNK N   1      27.954  26.360  -5.169  0.00  0.00     0.001 C 
HETATM   12  C   UNK N   1      27.118  25.129  -5.563  0.00  0.00     0.024 C 
HETATM   13  C   UNK N   1      27.288  24.777  -7.064  0.00  0.00     0.001 C 
HETATM   14  C   UNK N   1      28.760  24.696  -7.512  0.00  0.00    -0.036 C 
HETATM   15  C   UNK N   1      28.782  24.829  -9.026  0.00  0.00     0.016 C 
HETATM   16  C   UNK N   1      29.209  23.246  -7.227  0.00  0.00    -0.002 C 
HETATM   17  C   UNK N   1      26.603  29.274  -3.287  0.00  0.00     0.118 C 
HETATM   18  C   UNK N   1      25.656  25.368  -5.133  0.00  0.00     0.123 C 
HETATM   19  C   UNK N   1      25.912  27.873  -5.276  0.00  0.00    -0.001 C 
ENDROOT
BRANCH  16  20
HETATM   20  C   UNK N   1      30.410  22.827  -6.345  0.00  0.00    -0.013 C 
HETATM   21  C   UNK N   1      31.385  21.892  -7.033  0.00  0.00     0.010 C 
BRANCH  20  22
HETATM   22  C   UNK N   1      29.919  22.030  -5.135  0.00  0.00     0.014 C 
BRANCH  22  23
HETATM   23  C   UNK N   1      29.870  22.804  -3.830  0.00  0.00     0.103 C 
BRANCH  23  24
HETATM   24  C   UNK N   1      31.005  22.423  -2.931  0.00  0.00     0.218 C 
HETATM   25  N   UNK N   1      32.013  21.671  -3.428  0.00  0.00    -0.351 N 
HETATM   26  H   UNK N   1      31.995  21.421  -4.380  0.00  0.00     0.163 HD
HETATM   27  O   UNK N   1      30.995  22.754  -1.753  0.00  0.00    -0.274 OA
BRANCH  25  28
HETATM   28  C   UNK N   1      33.112  21.222  -2.613  0.00  0.00     0.232 C 
BRANCH  28  29
HETATM   29  C   UNK N   1      34.017  20.380  -3.446  0.00  0.00     0.158 C 
HETATM   30  O   UNK N   1      35.076  20.832  -3.846  0.00  0.00    -0.649 OA
BRANCH  29  31
HETATM   31  O   UNK N   1      33.659  19.121  -3.763  0.00  0.00    -0.775 OA
HETATM   32  H   UNK N   1      34.040  18.319  -3.462  0.00  0.00     0.167 HD
ENDBRANCH  29  31
ENDBRANCH  28  29
ENDBRANCH  25  28
ENDBRANCH  23  24
ENDBRANCH  22  23
ENDBRANCH  20  22
ENDBRANCH  16  20
BRANCH  18  33
HETATM   33  O   UNK N   1      24.835  24.286  -5.446  0.00  0.00    -0.395 OA
HETATM   34  H   UNK N   1      24.843  23.912  -6.342  0.00  0.00     0.210 HD
ENDBRANCH  18  33
BRANCH  17  35
HETATM   35  O   UNK N   1      26.127  30.464  -3.844  0.00  0.00    -0.396 OA
HETATM   36  H   UNK N   1      25.950  31.371  -3.548  0.00  0.00     0.210 HD
ENDBRANCH  17  35
TORSDOF 9
ENDMDL
MODEL 3
REMARK VINA RESULT:      -6.7      2.651      5.943
REMARK  9 active torsions:
REMARK  status: ('A' for Active; 'I' for Inactive)
REMARK    1  A    between atoms: C_16  and  C_17 
REMARK    2  A    between atoms: C_16  and  C_26 
REMARK    3  A    between atoms: C_19  and  C_17 
REMARK    4  A    between atoms: C_20  and  C_19 
REMARK    5  A    between atoms: C_21  and  O_22 
REMARK    6  A    between atoms: C_23  and  O_24 
REMARK       I    between atoms: C_26  and  N_28 
REMARK    7  A    between atoms: N_28  and  C_29 
REMARK    8  A    between atoms: C_29  and  C_31 
REMARK    9  A    between atoms: C_31  and  O_30 
ROOT
HETATM    1  C   UNK N   1      25.398  24.506  -5.248  0.00  0.00     0.012 C 
HETATM    2  C   UNK N   1      26.147  23.236  -5.647  0.00  0.00     0.032 C 
HETATM    3  C   UNK N   1      26.548  24.174  -7.931  0.00  0.00     0.037 C 
HETATM    4  C   UNK N   1      26.423  26.656  -8.321  0.00  0.00     0.037 C 
HETATM    5  C   UNK N   1      25.904  25.739  -6.011  0.00  0.00    -0.036 C 
HETATM    6  C   UNK N   1      27.589  26.320  -4.104  0.00  0.00     0.007 C 
HETATM    7  C   UNK N   1      26.925  27.620  -3.664  0.00  0.00     0.010 C 
HETATM    8  C   UNK N   1      28.307  29.730  -6.491  0.00  0.00     0.006 C 
HETATM    9  C   UNK N   1      29.418  29.832  -5.458  0.00  0.00     0.006 C 
HETATM   10  C   UNK N   1      24.926  26.867  -5.697  0.00  0.00     0.016 C 
HETATM   11  C   UNK N   1      27.375  26.080  -5.598  0.00  0.00     0.001 C 
HETATM   12  C   UNK N   1      28.002  27.235  -6.399  0.00  0.00     0.024 C 
HETATM   13  C   UNK N   1      27.410  28.608  -5.986  0.00  0.00     0.001 C 
HETATM   14  C   UNK N   1      27.405  28.840  -4.463  0.00  0.00    -0.036 C 
HETATM   15  C   UNK N   1      26.401  29.944  -4.175  0.00  0.00     0.016 C 
HETATM   16  C   UNK N   1      28.783  29.449  -4.124  0.00  0.00    -0.002 C 
HETATM   17  C   UNK N   1      26.006  22.982  -7.144  0.00  0.00     0.118 C 
HETATM   18  C   UNK N   1      27.873  26.920  -7.903  0.00  0.00     0.123 C 
HETATM   19  C   UNK N   1      25.839  25.475  -7.534  0.00  0.00    -0.001 C 
ENDROOT
BRANCH  16  20
HETATM   20  C   UNK N   1      29.802  28.875  -3.110  0.00  0.00    -0.013 C 
HETATM   21  C   UNK N   1      30.605  29.931  -2.377  0.00  0.00     0.010 C 
BRANCH  20  22
HETATM   22  C   UNK N   1      30.857  28.043  -3.840  0.00  0.00     0.014 C 
BRANCH  22  23
HETATM   23  C   UNK N   1      31.277  26.768  -3.130  0.00  0.00     0.103 C 
BRANCH  23  24
HETATM   24  C   UNK N   1      30.942  25.558  -3.947  0.00  0.00     0.218 C 
HETATM   25  N   UNK N   1      30.576  24.420  -3.316  0.00  0.00    -0.351 N 
HETATM   26  H   UNK N   1      30.505  24.423  -2.334  0.00  0.00     0.163 HD
HETATM   27  O   UNK N   1      31.041  25.592  -5.166  0.00  0.00    -0.274 OA
BRANCH  25  28
HETATM   28  C   UNK N   1      30.289  23.202  -4.029  0.00  0.00     0.232 C 
BRANCH  28  29
HETATM   29  C   UNK N   1      30.779  22.046  -3.226  0.00  0.00     0.158 C 
HETATM   30  O   UNK N   1      30.549  20.906  -3.592  0.00  0.00    -0.649 OA
BRANCH  29  31
HETATM   31  O   UNK N   1      31.469  22.262  -2.089  0.00  0.00    -0.775 OA
HETATM   32  H   UNK N   1      32.391  22.400  -1.991  0.00  0.00     0.167 HD
ENDBRANCH  29  31
ENDBRANCH  28  29
ENDBRANCH  25  28
ENDBRANCH  23  24
ENDBRANCH  22  23
ENDBRANCH  20  22
ENDBRANCH  16  20
BRANCH  18  33
HETATM   33  O   UNK N   1      28.433  27.919  -8.698  0.00  0.00    -0.395 OA
HETATM   34  H   UNK N   1      29.016  27.682  -9.438  0.00  0.00     0.210 HD
ENDBRANCH  18  33
BRANCH  17  35
HETATM   35  O   UNK N   1      24.669  22.748  -7.473  0.00  0.00    -0.396 OA
HETATM   36  H   UNK N   1      23.911  22.277  -7.092  0.00  0.00     0.210 HD
ENDBRANCH  17  35
TORSDOF 9
ENDMDL
MODEL 4
REMARK VINA RESULT:      -6.5     21.558     26.406
REMARK  9 active torsions:
REMARK  status: ('A' for Active; 'I' for Inactive)
REMARK    1  A    between atoms: C_16  and  C_17 
REMARK    2  A    between atoms: C_16  and  C_26 
REMARK    3  A    between atoms: C_19  and  C_17 
REMARK    4  A    between atoms: C_20  and  C_19 
REMARK    5  A    between atoms: C_21  and  O_22 
REMARK    6  A    between atoms: C_23  and  O_24 
REMARK       I    between atoms: C_26  and  N_28 
REMARK    7  A    between atoms: N_28  and  C_29 
REMARK    8  A    between atoms: C_29  and  C_31 
REMARK    9  A    between atoms: C_31  and  O_30 
ROOT
HETATM    1  C   UNK N   1      38.653   7.671  13.954  0.00  0.00     0.012 C 
HETATM    2  C   UNK N   1      39.508   8.155  12.783  0.00  0.00     0.032 C 
HETATM    3  C   UNK N   1      37.513   8.073  11.276  0.00  0.00     0.037 C 
HETATM    4  C   UNK N   1      35.192   8.124  12.244  0.00  0.00     0.037 C 
HETATM    5  C   UNK N   1      37.186   8.102  13.815  0.00  0.00    -0.036 C 
HETATM    6  C   UNK N   1      37.609  10.261  15.218  0.00  0.00     0.007 C 
HETATM    7  C   UNK N   1      36.747   9.873  16.414  0.00  0.00     0.010 C 
HETATM    8  C   UNK N   1      33.433  10.726  14.790  0.00  0.00     0.006 C 
HETATM    9  C   UNK N   1      33.837  12.065  15.389  0.00  0.00     0.006 C 
HETATM   10  C   UNK N   1      36.418   7.361  14.905  0.00  0.00     0.016 C 
HETATM   11  C   UNK N   1      37.052   9.657  13.929  0.00  0.00     0.001 C 
HETATM   12  C   UNK N   1      35.628  10.186  13.687  0.00  0.00     0.024 C 
HETATM   13  C   UNK N   1      34.687   9.867  14.878  0.00  0.00     0.001 C 
HETATM   14  C   UNK N   1      35.273  10.268  16.246  0.00  0.00    -0.036 C 
HETATM   15  C   UNK N   1      34.514   9.493  17.310  0.00  0.00     0.016 C 
HETATM   16  C   UNK N   1      34.875  11.744  16.460  0.00  0.00    -0.002 C 
HETATM   17  C   UNK N   1      38.959   7.619  11.465  0.00  0.00     0.118 C 
HETATM   18  C   UNK N   1      35.127   9.653  12.329  0.00  0.00     0.123 C 
HETATM   19  C   UNK N   1      36.630   7.631  12.450  0.00  0.00    -0.001 C 
ENDROOT
BRANCH  16  20
HETATM   20  C   UNK N   1      35.852  12.915  16.728  0.00  0.00    -0.013 C 
HETATM   21  C   UNK N   1      35.416  13.839  17.848  0.00  0.00     0.010 C 
BRANCH  20  22
HETATM   22  C   UNK N   1      35.927  13.826  15.501  0.00  0.00     0.014 C 
BRANCH  22  23
HETATM   23  C   UNK N   1      37.039  13.496  14.522  0.00  0.00     0.103 C 
BRANCH  23  24
HETATM   24  C   UNK N   1      36.610  13.749  13.110  0.00  0.00     0.218 C 
HETATM   25  N   UNK N   1      35.604  14.620  12.874  0.00  0.00    -0.351 N 
HETATM   26  H   UNK N   1      35.199  15.095  13.636  0.00  0.00     0.163 HD
HETATM   27  O   UNK N   1      37.138  13.141  12.188  0.00  0.00    -0.274 OA
BRANCH  25  28
HETATM   28  C   UNK N   1      35.102  14.877  11.549  0.00  0.00     0.232 C 
BRANCH  28  29
HETATM   29  C   UNK N   1      35.781  16.085  11.002  0.00  0.00     0.158 C 
HETATM   30  O   UNK N   1      35.149  17.112  10.820  0.00  0.00    -0.649 OA
BRANCH  29  31
HETATM   31  O   UNK N   1      37.093  16.040  10.700  0.00  0.00    -0.775 OA
HETATM   32  H   UNK N   1      37.749  15.475  11.060  0.00  0.00     0.167 HD
ENDBRANCH  29  31
ENDBRANCH  28  29
ENDBRANCH  25  28
ENDBRANCH  23  24
ENDBRANCH  22  23
ENDBRANCH  20  22
ENDBRANCH  16  20
BRANCH  18  33
HETATM   33  O   UNK N   1      33.841  10.102  12.031  0.00  0.00    -0.395 OA
HETATM   34  H   UNK N   1      33.613  11.037  12.153  0.00  0.00     0.210 HD
ENDBRANCH  18  33
BRANCH  17  35
HETATM   35  O   UNK N   1      39.040   6.224  11.437  0.00  0.00    -0.396 OA
HETATM   36  H   UNK N   1      38.441   5.471  11.563  0.00  0.00     0.210 HD
ENDBRANCH  17  35
TORSDOF 9
ENDMDL
MODEL 5
REMARK VINA RESULT:      -6.5     18.372     23.000
REMARK  9 active torsions:
REMARK  status: ('A' for Active; 'I' for Inactive)
REMARK    1  A    between atoms: C_16  and  C_17 
REMARK    2  A    between atoms: C_16  and  C_26 
REMARK    3  A    between atoms: C_19  and  C_17 
REMARK    4  A    between atoms: C_20  and  C_19 
REMARK    5  A    between atoms: C_21  and  O_22 
REMARK    6  A    between atoms: C_23  and  O_24 
REMARK       I    between atoms: C_26  and  N_28 
REMARK    7  A    between atoms: N_28  and  C_29 
REMARK    8  A    between atoms: C_29  and  C_31 
REMARK    9  A    between atoms: C_31  and  O_30 
ROOT
HETATM    1  C   UNK N   1      35.796  10.098  15.009  0.00  0.00     0.012 C 
HETATM    2  C   UNK N   1      34.578  10.408  15.877  0.00  0.00     0.032 C 
HETATM    3  C   UNK N   1      35.455  12.710  16.309  0.00  0.00     0.037 C 
HETATM    4  C   UNK N   1      37.144  13.736  14.751  0.00  0.00     0.037 C 
HETATM    5  C   UNK N   1      36.361  11.357  14.334  0.00  0.00    -0.036 C 
HETATM    6  C   UNK N   1      34.925  10.944  12.194  0.00  0.00     0.007 C 
HETATM    7  C   UNK N   1      36.087  10.657  11.249  0.00  0.00     0.010 C 
HETATM    8  C   UNK N   1      37.075  14.279  10.746  0.00  0.00     0.006 C 
HETATM    9  C   UNK N   1      36.020  14.094   9.666  0.00  0.00     0.006 C 
HETATM   10  C   UNK N   1      37.690  10.946  13.707  0.00  0.00     0.016 C 
HETATM   11  C   UNK N   1      35.346  11.925  13.287  0.00  0.00     0.001 C 
HETATM   12  C   UNK N   1      35.783  13.254  12.644  0.00  0.00     0.024 C 
HETATM   13  C   UNK N   1      36.941  13.049  11.634  0.00  0.00     0.001 C 
HETATM   14  C   UNK N   1      36.673  11.925  10.614  0.00  0.00    -0.036 C 
HETATM   15  C   UNK N   1      38.014  11.513  10.029  0.00  0.00     0.016 C 
HETATM   16  C   UNK N   1      35.909  12.587   9.447  0.00  0.00    -0.002 C 
HETATM   17  C   UNK N   1      34.936  11.427  16.954  0.00  0.00     0.118 C 
HETATM   18  C   UNK N   1      36.097  14.265  13.766  0.00  0.00     0.123 C 
HETATM   19  C   UNK N   1      36.663  12.433  15.404  0.00  0.00    -0.001 C 
ENDROOT
BRANCH  16  20
HETATM   20  C   UNK N   1      34.523  12.153   8.910  0.00  0.00    -0.013 C 
HETATM   21  C   UNK N   1      34.580  11.042   7.880  0.00  0.00     0.010 C 
BRANCH  20  22
HETATM   22  C   UNK N   1      33.861  13.316   8.168  0.00  0.00     0.014 C 
BRANCH  22  23
HETATM   23  C   UNK N   1      32.763  14.028   8.937  0.00  0.00     0.103 C 
BRANCH  23  24
HETATM   24  C   UNK N   1      32.550  15.416   8.417  0.00  0.00     0.218 C 
HETATM   25  N   UNK N   1      33.185  16.448   9.017  0.00  0.00    -0.351 N 
HETATM   26  H   UNK N   1      33.801  16.258   9.762  0.00  0.00     0.163 HD
HETATM   27  O   UNK N   1      31.779  15.613   7.488  0.00  0.00    -0.274 OA
BRANCH  25  28
HETATM   28  C   UNK N   1      32.992  17.814   8.607  0.00  0.00     0.232 C 
BRANCH  28  29
HETATM   29  C   UNK N   1      34.201  18.271   7.865  0.00  0.00     0.158 C 
HETATM   30  O   UNK N   1      35.011  19.003   8.408  0.00  0.00    -0.649 OA
BRANCH  29  31
HETATM   31  O   UNK N   1      34.394  17.881   6.590  0.00  0.00    -0.775 OA
HETATM   32  H   UNK N   1      33.750  17.603   5.968  0.00  0.00     0.167 HD
ENDBRANCH  29  31
ENDBRANCH  28  29
ENDBRANCH  25  28
ENDBRANCH  23  24
ENDBRANCH  22  23
ENDBRANCH  20  22
ENDBRANCH  16  20
BRANCH  18  33
HETATM   33  O   UNK N   1      36.489  15.504  13.260  0.00  0.00    -0.395 OA
HETATM   34  H   UNK N   1      36.324  16.312  13.772  0.00  0.00     0.210 HD
ENDBRANCH  18  33
BRANCH  17  35
HETATM   35  O   UNK N   1      35.892  10.897  17.825  0.00  0.00    -0.396 OA
HETATM   36  H   UNK N   1      36.559  11.233  18.443  0.00  0.00     0.210 HD
ENDBRANCH  17  35
TORSDOF 9
ENDMDL
MODEL 6
REMARK VINA RESULT:      -6.5      1.719      2.293
REMARK  9 active torsions:
REMARK  status: ('A' for Active; 'I' for Inactive)
REMARK    1  A    between atoms: C_16  and  C_17 
REMARK    2  A    between atoms: C_16  and  C_26 
REMARK    3  A    between atoms: C_19  and  C_17 
REMARK    4  A    between atoms: C_20  and  C_19 
REMARK    5  A    between atoms: C_21  and  O_22 
REMARK    6  A    between atoms: C_23  and  O_24 
REMARK       I    between atoms: C_26  and  N_28 
REMARK    7  A    between atoms: N_28  and  C_29 
REMARK    8  A    between atoms: C_29  and  C_31 
REMARK    9  A    between atoms: C_31  and  O_30 
ROOT
HETATM    1  C   UNK N   1      31.976  23.494  -4.382  0.00  0.00     0.012 C 
HETATM    2  C   UNK N   1      31.917  21.989  -4.642  0.00  0.00     0.032 C 
HETATM    3  C   UNK N   1      30.155  21.741  -2.883  0.00  0.00     0.037 C 
HETATM    4  C   UNK N   1      28.784  23.729  -2.174  0.00  0.00     0.037 C 
HETATM    5  C   UNK N   1      30.632  24.048  -3.885  0.00  0.00    -0.036 C 
HETATM    6  C   UNK N   1      29.900  24.654  -6.316  0.00  0.00     0.007 C 
HETATM    7  C   UNK N   1      29.899  26.168  -6.133  0.00  0.00     0.010 C 
HETATM    8  C   UNK N   1      26.570  26.333  -4.333  0.00  0.00     0.006 C 
HETATM    9  C   UNK N   1      26.137  26.408  -5.789  0.00  0.00     0.006 C 
HETATM   10  C   UNK N   1      30.900  25.484  -3.445  0.00  0.00     0.016 C 
HETATM   11  C   UNK N   1      29.545  23.950  -5.007  0.00  0.00     0.001 C 
HETATM   12  C   UNK N   1      28.137  24.379  -4.558  0.00  0.00     0.024 C 
HETATM   13  C   UNK N   1      28.033  25.916  -4.384  0.00  0.00     0.001 C 
HETATM   14  C   UNK N   1      28.566  26.707  -5.594  0.00  0.00    -0.036 C 
HETATM   15  C   UNK N   1      28.854  28.123  -5.122  0.00  0.00     0.016 C 
HETATM   16  C   UNK N   1      27.376  26.841  -6.569  0.00  0.00    -0.002 C 
HETATM   17  C   UNK N   1      31.513  21.244  -3.373  0.00  0.00     0.118 C 
HETATM   18  C   UNK N   1      27.755  23.575  -3.298  0.00  0.00     0.123 C 
HETATM   19  C   UNK N   1      30.168  23.257  -2.640  0.00  0.00    -0.001 C 
ENDROOT
BRANCH  16  20
HETATM   20  C   UNK N   1      27.357  26.374  -8.045  0.00  0.00    -0.013 C 
HETATM   21  C   UNK N   1      27.948  27.375  -9.017  0.00  0.00     0.010 C 
BRANCH  20  22
HETATM   22  C   UNK N   1      25.914  26.197  -8.520  0.00  0.00     0.014 C 
BRANCH  22  23
HETATM   23  C   UNK N   1      25.760  25.527  -9.874  0.00  0.00     0.103 C 
BRANCH  23  24
HETATM   24  C   UNK N   1      25.538  24.054  -9.727  0.00  0.00     0.218 C 
HETATM   25  N   UNK N   1      25.213  23.556  -8.513  0.00  0.00    -0.351 N 
HETATM   26  H   UNK N   1      25.095  24.179  -7.760  0.00  0.00     0.163 HD
HETATM   27  O   UNK N   1      25.691  23.310 -10.687  0.00  0.00    -0.274 OA
BRANCH  25  28
HETATM   28  C   UNK N   1      25.034  22.146  -8.282  0.00  0.00     0.232 C 
BRANCH  28  29
HETATM   29  C   UNK N   1      24.782  21.924  -6.830  0.00  0.00     0.158 C 
HETATM   30  O   UNK N   1      25.196  22.724  -6.008  0.00  0.00    -0.649 OA
BRANCH  29  31
HETATM   31  O   UNK N   1      24.105  20.832  -6.425  0.00  0.00    -0.775 OA
HETATM   32  H   UNK N   1      23.191  20.649  -6.527  0.00  0.00     0.167 HD
ENDBRANCH  29  31
ENDBRANCH  28  29
ENDBRANCH  25  28
ENDBRANCH  23  24
ENDBRANCH  22  23
ENDBRANCH  20  22
ENDBRANCH  16  20
BRANCH  18  33
HETATM   33  O   UNK N   1      26.480  23.900  -2.836  0.00  0.00    -0.395 OA
HETATM   34  H   UNK N   1      26.122  23.459  -2.049  0.00  0.00     0.210 HD
ENDBRANCH  18  33
BRANCH  17  35
HETATM   35  O   UNK N   1      32.483  21.416  -2.381  0.00  0.00    -0.396 OA
HETATM   36  H   UNK N   1      33.052  22.130  -2.054  0.00  0.00     0.210 HD
ENDBRANCH  17  35
TORSDOF 9
ENDMDL
MODEL 7
REMARK VINA RESULT:      -6.4     13.306     16.681
REMARK  9 active torsions:
REMARK  status: ('A' for Active; 'I' for Inactive)
REMARK    1  A    between atoms: C_16  and  C_17 
REMARK    2  A    between atoms: C_16  and  C_26 
REMARK    3  A    between atoms: C_19  and  C_17 
REMARK    4  A    between atoms: C_20  and  C_19 
REMARK    5  A    between atoms: C_21  and  O_22 
REMARK    6  A    between atoms: C_23  and  O_24 
REMARK       I    between atoms: C_26  and  N_28 
REMARK    7  A    between atoms: N_28  and  C_29 
REMARK    8  A    between atoms: C_29  and  C_31 
REMARK    9  A    between atoms: C_31  and  O_30 
ROOT
HETATM    1  C   UNK N   1      21.428  12.485   8.774  0.00  0.00     0.012 C 
HETATM    2  C   UNK N   1      21.647  13.097  10.157  0.00  0.00     0.032 C 
HETATM    3  C   UNK N   1      24.124  13.017   9.814  0.00  0.00     0.037 C 
HETATM    4  C   UNK N   1      25.077  12.873   7.490  0.00  0.00     0.037 C 
HETATM    5  C   UNK N   1      22.557  12.844   7.797  0.00  0.00    -0.036 C 
HETATM    6  C   UNK N   1      21.237  14.917   6.917  0.00  0.00     0.007 C 
HETATM    7  C   UNK N   1      21.004  14.397   5.503  0.00  0.00     0.010 C 
HETATM    8  C   UNK N   1      24.482  15.185   4.228  0.00  0.00     0.006 C 
HETATM    9  C   UNK N   1      23.755  16.497   3.973  0.00  0.00     0.006 C 
HETATM   10  C   UNK N   1      22.336  11.986   6.555  0.00  0.00     0.016 C 
HETATM   11  C   UNK N   1      22.550  14.377   7.483  0.00  0.00     0.001 C 
HETATM   12  C   UNK N   1      23.721  14.845   6.600  0.00  0.00     0.024 C 
HETATM   13  C   UNK N   1      23.546  14.391   5.128  0.00  0.00     0.001 C 
HETATM   14  C   UNK N   1      22.158  14.722   4.545  0.00  0.00    -0.036 C 
HETATM   15  C   UNK N   1      21.951  13.833   3.331  0.00  0.00     0.016 C 
HETATM   16  C   UNK N   1      22.268  16.156   3.982  0.00  0.00    -0.002 C 
HETATM   17  C   UNK N   1      22.976  12.629  10.743  0.00  0.00     0.118 C 
HETATM   18  C   UNK N   1      25.042  14.385   7.249  0.00  0.00     0.123 C 
HETATM   19  C   UNK N   1      23.922  12.444   8.405  0.00  0.00    -0.001 C 
ENDROOT
BRANCH  16  20
HETATM   20  C   UNK N   1      21.374  17.356   4.379  0.00  0.00    -0.013 C 
HETATM   21  C   UNK N   1      20.273  17.663   3.383  0.00  0.00     0.010 C 
BRANCH  20  22
HETATM   22  C   UNK N   1      22.206  18.638   4.423  0.00  0.00     0.014 C 
BRANCH  22  23
HETATM   23  C   UNK N   1      21.987  19.588   3.258  0.00  0.00     0.103 C 
BRANCH  23  24
HETATM   24  C   UNK N   1      23.204  20.423   3.003  0.00  0.00     0.218 C 
HETATM   25  N   UNK N   1      24.416  19.825   2.969  0.00  0.00    -0.351 N 
HETATM   26  H   UNK N   1      24.467  18.847   3.079  0.00  0.00     0.163 HD
HETATM   27  O   UNK N   1      23.101  21.634   2.869  0.00  0.00    -0.274 OA
BRANCH  25  28
HETATM   28  C   UNK N   1      25.635  20.566   2.780  0.00  0.00     0.232 C 
BRANCH  28  29
HETATM   29  C   UNK N   1      26.546  20.297   3.928  0.00  0.00     0.158 C 
HETATM   30  O   UNK N   1      26.155  20.461   5.071  0.00  0.00    -0.649 OA
BRANCH  29  31
HETATM   31  O   UNK N   1      27.807  19.881   3.702  0.00  0.00    -0.775 OA
HETATM   32  H   UNK N   1      28.502  20.348   3.279  0.00  0.00     0.167 HD
ENDBRANCH  29  31
ENDBRANCH  28  29
ENDBRANCH  25  28
ENDBRANCH  23  24
ENDBRANCH  22  23
ENDBRANCH  20  22
ENDBRANCH  16  20
BRANCH  18  33
HETATM   33  O   UNK N   1      26.156  14.784   6.510  0.00  0.00    -0.395 OA
HETATM   34  H   UNK N   1      26.252  15.711   6.239  0.00  0.00     0.210 HD
ENDBRANCH  18  33
BRANCH  17  35
HETATM   35  O   UNK N   1      22.956  11.246  10.943  0.00  0.00    -0.396 OA
HETATM   36  H   UNK N   1      22.437  10.605  11.454  0.00  0.00     0.210 HD
ENDBRANCH  17  35
TORSDOF 9
ENDMDL
MODEL 8
REMARK VINA RESULT:      -6.3     14.276     17.127
REMARK  9 active torsions:
REMARK  status: ('A' for Active; 'I' for Inactive)
REMARK    1  A    between atoms: C_16  and  C_17 
REMARK    2  A    between atoms: C_16  and  C_26 
REMARK    3  A    between atoms: C_19  and  C_17 
REMARK    4  A    between atoms: C_20  and  C_19 
REMARK    5  A    between atoms: C_21  and  O_22 
REMARK    6  A    between atoms: C_23  and  O_24 
REMARK       I    between atoms: C_26  and  N_28 
REMARK    7  A    between atoms: N_28  and  C_29 
REMARK    8  A    between atoms: C_29  and  C_31 
REMARK    9  A    between atoms: C_31  and  O_30 
ROOT
HETATM    1  C   UNK N   1      33.360  15.284   4.629  0.00  0.00     0.012 C 
HETATM    2  C   UNK N   1      34.025  14.150   5.408  0.00  0.00     0.032 C 
HETATM    3  C   UNK N   1      34.342  15.666   7.372  0.00  0.00     0.037 C 
HETATM    4  C   UNK N   1      32.928  17.733   7.617  0.00  0.00     0.037 C 
HETATM    5  C   UNK N   1      32.646  16.280   5.555  0.00  0.00    -0.036 C 
HETATM    6  C   UNK N   1      30.386  14.997   5.313  0.00  0.00     0.007 C 
HETATM    7  C   UNK N   1      29.635  16.092   4.563  0.00  0.00     0.010 C 
HETATM    8  C   UNK N   1      28.915  18.221   7.612  0.00  0.00     0.006 C 
HETATM    9  C   UNK N   1      27.728  17.269   7.613  0.00  0.00     0.006 C 
HETATM   10  C   UNK N   1      32.243  17.463   4.680  0.00  0.00     0.016 C 
HETATM   11  C   UNK N   1      31.424  15.602   6.258  0.00  0.00     0.001 C 
HETATM   12  C   UNK N   1      30.717  16.496   7.293  0.00  0.00     0.024 C 
HETATM   13  C   UNK N   1      29.893  17.620   6.612  0.00  0.00     0.001 C 
HETATM   14  C   UNK N   1      28.962  17.108   5.497  0.00  0.00    -0.036 C 
HETATM   15  C   UNK N   1      28.602  18.297   4.622  0.00  0.00     0.016 C 
HETATM   16  C   UNK N   1      27.645  16.707   6.196  0.00  0.00    -0.002 C 
HETATM   17  C   UNK N   1      35.035  14.708   6.405  0.00  0.00     0.118 C 
HETATM   18  C   UNK N   1      31.766  17.007   8.302  0.00  0.00     0.123 C 
HETATM   19  C   UNK N   1      33.636  16.804   6.622  0.00  0.00    -0.001 C 
ENDROOT
BRANCH  16  20
HETATM   20  C   UNK N   1      26.975  15.313   6.135  0.00  0.00    -0.013 C 
HETATM   21  C   UNK N   1      26.091  15.105   4.921  0.00  0.00     0.010 C 
BRANCH  20  22
HETATM   22  C   UNK N   1      26.027  15.135   7.322  0.00  0.00     0.014 C 
BRANCH  22  23
HETATM   23  C   UNK N   1      24.724  14.422   7.004  0.00  0.00     0.103 C 
BRANCH  23  24
HETATM   24  C   UNK N   1      24.565  13.187   7.835  0.00  0.00     0.218 C 
HETATM   25  N   UNK N   1      24.546  13.299   9.182  0.00  0.00    -0.351 N 
HETATM   26  H   UNK N   1      24.602  14.195   9.586  0.00  0.00     0.163 HD
HETATM   27  O   UNK N   1      24.496  12.090   7.299  0.00  0.00    -0.274 OA
BRANCH  25  28
HETATM   28  C   UNK N   1      24.447  12.153  10.049  0.00  0.00     0.232 C 
BRANCH  28  29
HETATM   29  C   UNK N   1      23.287  12.340  10.966  0.00  0.00     0.158 C 
HETATM   30  O   UNK N   1      23.313  11.866  12.089  0.00  0.00    -0.649 OA
BRANCH  29  31
HETATM   31  O   UNK N   1      22.205  13.026  10.549  0.00  0.00    -0.775 OA
HETATM   32  H   UNK N   1      21.995  13.925  10.710  0.00  0.00     0.167 HD
ENDBRANCH  29  31
ENDBRANCH  28  29
ENDBRANCH  25  28
ENDBRANCH  23  24
ENDBRANCH  22  23
ENDBRANCH  20  22
ENDBRANCH  16  20
BRANCH  18  33
HETATM   33  O   UNK N   1      31.198  17.818   9.284  0.00  0.00    -0.395 OA
HETATM   34  H   UNK N   1      30.322  17.604   9.642  0.00  0.00     0.210 HD
ENDBRANCH  18  33
BRANCH  17  35
HETATM   35  O   UNK N   1      36.072  15.360   5.732  0.00  0.00    -0.396 OA
HETATM   36  H   UNK N   1      36.680  15.170   5.000  0.00  0.00     0.210 HD
ENDBRANCH  17  35
TORSDOF 9
ENDMDL
MODEL 9
REMARK VINA RESULT:      -6.3     13.432     16.845
REMARK  9 active torsions:
REMARK  status: ('A' for Active; 'I' for Inactive)
REMARK    1  A    between atoms: C_16  and  C_17 
REMARK    2  A    between atoms: C_16  and  C_26 
REMARK    3  A    between atoms: C_19  and  C_17 
REMARK    4  A    between atoms: C_20  and  C_19 
REMARK    5  A    between atoms: C_21  and  O_22 
REMARK    6  A    between atoms: C_23  and  O_24 
REMARK       I    between atoms: C_26  and  N_28 
REMARK    7  A    between atoms: N_28  and  C_29 
REMARK    8  A    between atoms: C_29  and  C_31 
REMARK    9  A    between atoms: C_31  and  O_30 
ROOT
HETATM    1  C   UNK N   1      27.516  16.121   4.778  0.00  0.00     0.012 C 
HETATM    2  C   UNK N   1      28.096  16.914   5.948  0.00  0.00     0.032 C 
HETATM    3  C   UNK N   1      27.172  19.031   4.987  0.00  0.00     0.037 C 
HETATM    4  C   UNK N   1      25.273  18.951   3.339  0.00  0.00     0.037 C 
HETATM    5  C   UNK N   1      26.249  16.774   4.208  0.00  0.00    -0.036 C 
HETATM    6  C   UNK N   1      24.719  15.325   5.747  0.00  0.00     0.007 C 
HETATM    7  C   UNK N   1      24.064  14.510   4.637  0.00  0.00     0.010 C 
HETATM    8  C   UNK N   1      21.631  17.210   3.567  0.00  0.00     0.006 C 
HETATM    9  C   UNK N   1      20.853  16.514   4.674  0.00  0.00     0.006 C 
HETATM   10  C   UNK N   1      25.924  16.023   2.920  0.00  0.00     0.016 C 
HETATM   11  C   UNK N   1      25.083  16.723   5.250  0.00  0.00     0.001 C 
HETATM   12  C   UNK N   1      23.807  17.458   4.804  0.00  0.00     0.024 C 
HETATM   13  C   UNK N   1      23.052  16.677   3.698  0.00  0.00     0.001 C 
HETATM   14  C   UNK N   1      22.824  15.193   4.043  0.00  0.00    -0.036 C 
HETATM   15  C   UNK N   1      22.534  14.463   2.742  0.00  0.00     0.016 C 
HETATM   16  C   UNK N   1      21.501  15.142   4.838  0.00  0.00    -0.002 C 
HETATM   17  C   UNK N   1      28.427  18.339   5.514  0.00  0.00     0.118 C 
HETATM   18  C   UNK N   1      24.181  18.903   4.412  0.00  0.00     0.123 C 
HETATM   19  C   UNK N   1      26.545  18.245   3.828  0.00  0.00    -0.001 C 
ENDROOT
BRANCH  16  20
HETATM   20  C   UNK N   1      21.320  14.552   6.258  0.00  0.00    -0.013 C 
HETATM   21  C   UNK N   1      20.696  13.170   6.277  0.00  0.00     0.010 C 
BRANCH  20  22
HETATM   22  C   UNK N   1      20.346  15.413   7.063  0.00  0.00     0.014 C 
BRANCH  22  23
HETATM   23  C   UNK N   1      20.785  15.727   8.482  0.00  0.00     0.103 C 
BRANCH  23  24
HETATM   24  C   UNK N   1      20.492  14.585   9.405  0.00  0.00     0.218 C 
HETATM   25  N   UNK N   1      21.518  13.843   9.879  0.00  0.00    -0.351 N 
HETATM   26  H   UNK N   1      22.439  14.093   9.632  0.00  0.00     0.163 HD
HETATM   27  O   UNK N   1      19.336  14.306   9.691  0.00  0.00    -0.274 OA
BRANCH  25  28
HETATM   28  C   UNK N   1      21.313  12.700  10.730  0.00  0.00     0.232 C 
BRANCH  28  29
HETATM   29  C   UNK N   1      22.625  12.034  10.967  0.00  0.00     0.158 C 
HETATM   30  O   UNK N   1      23.025  11.178  10.196  0.00  0.00    -0.649 OA
BRANCH  29  31
HETATM   31  O   UNK N   1      23.366  12.372  12.040  0.00  0.00    -0.775 OA
HETATM   32  H   UNK N   1      24.193  12.812  12.055  0.00  0.00     0.167 HD
ENDBRANCH  29  31
ENDBRANCH  28  29
ENDBRANCH  25  28
ENDBRANCH  23  24
ENDBRANCH  22  23
ENDBRANCH  20  22
ENDBRANCH  16  20
BRANCH  18  33
HETATM   33  O   UNK N   1      23.069  19.640   4.006  0.00  0.00    -0.395 OA
HETATM   34  H   UNK N   1      22.506  19.314   3.286  0.00  0.00     0.210 HD
ENDBRANCH  18  33
BRANCH  17  35
HETATM   35  O   UNK N   1      29.426  18.328   4.537  0.00  0.00    -0.396 OA
HETATM   36  H   UNK N   1      29.498  18.510   3.587  0.00  0.00     0.210 HD
ENDBRANCH  17  35
TORSDOF 9
ENDMDL
