REMARK  12 active torsions:
REMARK  status: ('A' for Active; 'I' for Inactive)
REMARK    1  A    between atoms: C_23  and  C_19 
REMARK    2  A    between atoms: C_29  and  C_19 
REMARK    3  A    between atoms: C_24  and  C_20 
REMARK    4  A    between atoms: C_30  and  C_20 
REMARK    5  A    between atoms: C_25  and  C_21 
REMARK    6  A    between atoms: N_36  and  C_21 
REMARK    7  A    between atoms: C_26  and  C_22 
REMARK    8  A    between atoms: N_37  and  C_22 
REMARK    9  A    between atoms: N_34  and  C_27 
REMARK   10  A    between atoms: N_35  and  C_28 
REMARK   11  A    between atoms: C_31  and  O_38 
REMARK   12  A    between atoms: C_32  and  O_39 
ROOT
HETATM    1  C   UNK N   1       0.544   1.976  -0.652  0.00  0.00     0.124 C 
HETATM    2  C   UNK N   1       2.837   0.223  -0.747  0.00  0.00     0.124 C 
HETATM    3  C   UNK N   1       0.343   0.561  -0.122  0.00  0.00     0.172 C 
HETATM    4  C   UNK N   1       1.678  -0.099   0.250  0.00  0.00     0.172 C 
HETATM    5  C   UNK N   1       2.802   2.629   0.112  0.00  0.00     0.322 C 
HETATM    6  N   UNK N   1       1.425   2.786   0.188  0.00  0.00    -0.322 N 
HETATM    7  N   UNK N   1       3.406   1.586  -0.571  0.00  0.00    -0.322 N 
HETATM    8  O   UNK N   1       3.518   3.509   0.579  0.00  0.00    -0.247 OA
ENDROOT
BRANCH   6   9
HETATM    9  C   UNK N   1       0.870   3.959   0.859  0.00  0.00     0.166 C 
BRANCH   9  10
HETATM   10  C   UNK N   1       1.230   5.281   0.219  0.00  0.00    -0.038 A 
HETATM   11  C   UNK N   1       0.673   6.455   0.736  0.00  0.00     0.009 A 
HETATM   12  C   UNK N   1       1.029   7.700   0.202  0.00  0.00     0.003 A 
HETATM   13  C   UNK N   1       1.965   7.777  -0.835  0.00  0.00     0.029 A 
HETATM   14  C   UNK N   1       2.523   6.609  -1.356  0.00  0.00     0.026 A 
HETATM   15  C   UNK N   1       2.147   5.370  -0.842  0.00  0.00     0.037 A 
BRANCH  14  16
HETATM   16  N   UNK N   1       3.490   6.678  -2.378  0.00  0.00    -0.399 N 
HETATM   17  H   UNK N   1       3.870   6.118  -3.092  0.00  0.00     0.156 HD
HETATM   18  H   UNK N   1       3.919   7.564  -2.378  0.00  0.00     0.156 HD
ENDBRANCH  14  16
ENDBRANCH   9  10
ENDBRANCH   6   9
BRANCH   1  19
HETATM   19  C   UNK N   1      -0.754   2.662  -1.154  0.00  0.00     0.066 C 
BRANCH  19  20
HETATM   20  C   UNK N   1      -1.911   3.059  -0.278  0.00  0.00    -0.056 A 
HETATM   21  C   UNK N   1      -3.020   3.640  -0.908  0.00  0.00     0.007 A 
HETATM   22  C   UNK N   1      -4.119   4.069  -0.162  0.00  0.00     0.001 A 
HETATM   23  C   UNK N   1      -4.114   3.928   1.227  0.00  0.00     0.000 A 
HETATM   24  C   UNK N   1      -3.014   3.345   1.865  0.00  0.00     0.001 A 
HETATM   25  C   UNK N   1      -1.915   2.906   1.115  0.00  0.00     0.007 A 
ENDBRANCH  19  20
ENDBRANCH   1  19
BRANCH   3  26
HETATM   26  O   UNK N   1      -0.273  -0.196  -1.127  0.00  0.00    -0.391 OA
HETATM   27  H   UNK N   1      -0.940  -0.088  -1.824  0.00  0.00     0.210 HD
ENDBRANCH   3  26
BRANCH   7  28
HETATM   28  C   UNK N   1       4.706   1.859  -1.191  0.00  0.00     0.166 C 
BRANCH  28  29
HETATM   29  C   UNK N   1       5.879   1.914  -0.257  0.00  0.00    -0.038 A 
HETATM   30  C   UNK N   1       6.602   3.105  -0.119  0.00  0.00     0.009 A 
HETATM   31  C   UNK N   1       7.766   3.134   0.658  0.00  0.00     0.003 A 
HETATM   32  C   UNK N   1       8.223   1.967   1.280  0.00  0.00     0.029 A 
HETATM   33  C   UNK N   1       7.509   0.775   1.133  0.00  0.00     0.026 A 
HETATM   34  C   UNK N   1       6.346   0.750   0.364  0.00  0.00     0.037 A 
BRANCH  33  35
HETATM   35  N   UNK N   1       7.974  -0.409   1.739  0.00  0.00    -0.399 N 
HETATM   36  H   UNK N   1       7.420  -1.104   2.163  0.00  0.00     0.156 HD
HETATM   37  H   UNK N   1       8.948  -0.555   1.739  0.00  0.00     0.156 HD
ENDBRANCH  33  35
ENDBRANCH  28  29
ENDBRANCH   7  28
BRANCH   4  38
HETATM   38  O   UNK N   1       2.064   0.264   1.547  0.00  0.00    -0.391 OA
HETATM   39  H   UNK N   1       2.415   0.158   2.445  0.00  0.00     0.210 HD
ENDBRANCH   4  38
BRANCH   2  40
HETATM   40  C   UNK N   1       4.012  -0.753  -0.507  0.00  0.00     0.066 C 
BRANCH  40  41
HETATM   41  C   UNK N   1       3.774  -2.177  -0.157  0.00  0.00    -0.056 A 
HETATM   42  C   UNK N   1       4.289  -2.645   1.054  0.00  0.00     0.007 A 
HETATM   43  C   UNK N   1       4.120  -3.980   1.419  0.00  0.00     0.001 A 
HETATM   44  C   UNK N   1       3.436  -4.851   0.568  0.00  0.00     0.000 A 
HETATM   45  C   UNK N   1       2.926  -4.386  -0.650  0.00  0.00     0.001 A 
HETATM   46  C   UNK N   1       3.099  -3.047  -1.018  0.00  0.00     0.007 A 
ENDBRANCH  40  41
ENDBRANCH   2  40
TORSDOF 12
