MODEL 1
REMARK VINA RESULT:      -8.2      0.000      0.000
REMARK  9 active torsions:
REMARK  status: ('A' for Active; 'I' for Inactive)
REMARK       I    between atoms: N_1  and  C_2 
REMARK    1  A    between atoms: N_15  and  C_18 
REMARK    2  A    between atoms: C_21  and  C_24 
REMARK       I    between atoms: C_24  and  N_26 
REMARK    3  A    between atoms: C_27  and  N_26 
REMARK    4  A    between atoms: C_27  and  C_28 
REMARK    5  A    between atoms: C_27  and  C_33 
REMARK    6  A    between atoms: C_28  and  C_29 
REMARK    7  A    between atoms: C_29  and  C_30 
REMARK    8  A    between atoms: C_30  and  O_31 
REMARK    9  A    between atoms: C_33  and  O_34 
ROOT
HETATM    1  C   UNK N   1      27.114  17.830   3.771  0.00  0.00     0.031 C 
HETATM    2  C   UNK N   1      26.210  16.800   3.507  0.00  0.00     0.030 C 
HETATM    3  C   UNK N   1      24.849  17.074   3.507  0.00  0.00     0.019 C 
HETATM    4  C   UNK N   1      24.377  18.382   3.713  0.00  0.00     0.032 C 
HETATM    5  C   UNK N   1      25.295  19.431   3.796  0.00  0.00     0.019 C 
HETATM    6  C   UNK N   1      26.658  19.155   3.834  0.00  0.00     0.030 C 
ENDROOT
BRANCH   1   7
HETATM    7  N   UNK N   1      28.442  17.525   4.162  0.00  0.00    -0.362 N 
HETATM    8  C   UNK N   1      29.340  16.696   3.375  0.00  0.00     0.155 C 
HETATM    9  C   UNK N   1      30.577  16.701   4.245  0.00  0.00     0.143 C 
HETATM   10  C   UNK N   1      31.801  15.839   4.191  0.00  0.00     0.089 C 
HETATM   11  N   UNK N   1      30.181  17.158   5.534  0.00  0.00    -0.346 N 
HETATM   12  N   UNK N   1      32.581  15.758   5.221  0.00  0.00    -0.351 N 
HETATM   13  C   UNK N   1      32.276  16.386   6.470  0.00  0.00     0.153 A 
ATOM     14  HN  UNK N   1      33.447  15.226   5.139  1.00  0.00     0.166 HD
HETATM   15  C   UNK N   1      31.051  17.053   6.648  0.00  0.00     0.146 A 
HETATM   16  N   UNK N   1      33.156  16.309   7.499  0.00  0.00    -0.174 N 
HETATM   17  C   UNK N   1      30.755  17.580   7.918  0.00  0.00     0.290 A 
HETATM   18  N   UNK N   1      31.677  17.474   8.921  0.00  0.00    -0.154 N 
HETATM   19  O   UNK N   1      29.690  18.133   8.137  0.00  0.00    -0.265 OA
HETATM   20  C   UNK N   1      32.873  16.860   8.710  0.00  0.00     0.680 A 
ATOM     21  HN  UNK N   1      31.467  17.860   9.840  1.00  0.00     0.187 HD
HETATM   22  N   UNK N   1      33.818  16.793   9.750  0.00  0.00    -0.234 N 
HETATM   23  H   UNK N   1      34.603  16.201   9.696  0.00  0.00     0.174 HD
HETATM   24  H   UNK N   1      33.691  17.350  10.551  0.00  0.00     0.174 HD
HETATM   25  H   UNK N   1      34.015  15.847   7.368  0.00  0.00     0.186 HD
HETATM   26  C   UNK N   1      28.896  17.776   5.511  0.00  0.00     0.250 C 
ENDBRANCH   1   7
BRANCH   4  27
HETATM   27  C   UNK N   1      23.159  18.515   4.538  0.00  0.00     0.252 C 
HETATM   28  O   UNK N   1      23.278  18.256   5.725  0.00  0.00    -0.268 OA
HETATM   29  N   UNK N   1      21.981  19.058   4.129  0.00  0.00    -0.343 N 
HETATM   30  H   UNK N   1      21.442  19.493   4.829  0.00  0.00     0.163 HD
BRANCH  29  31
HETATM   31  C   UNK N   1      21.417  19.080   2.795  0.00  0.00     0.183 C 
BRANCH  31  32
HETATM   32  C   UNK N   1      19.985  18.584   2.652  0.00  0.00     0.046 C 
BRANCH  32  33
HETATM   33  C   UNK N   1      19.949  17.106   2.275  0.00  0.00     0.112 C 
BRANCH  33  34
HETATM   34  C   UNK N   1      20.352  16.840   0.849  0.00  0.00     0.139 C 
HETATM   35  O   UNK N   1      20.765  15.736   0.538  0.00  0.00    -0.650 OA
BRANCH  34  36
HETATM   36  O   UNK N   1      20.269  17.805  -0.090  0.00  0.00    -0.776 OA
HETATM   37  H   UNK N   1      19.683  17.763  -0.821  0.00  0.00     0.167 HD
ENDBRANCH  34  36
ENDBRANCH  33  34
ENDBRANCH  32  33
ENDBRANCH  31  32
BRANCH  31  38
HETATM   38  C   UNK N   1      21.647  20.417   2.152  0.00  0.00     0.163 C 
HETATM   39  O   UNK N   1      22.118  21.346   2.793  0.00  0.00    -0.648 OA
BRANCH  38  40
HETATM   40  O   UNK N   1      21.404  20.574   0.839  0.00  0.00    -0.775 OA
HETATM   41  H   UNK N   1      21.860  21.015   0.149  0.00  0.00     0.167 HD
ENDBRANCH  38  40
ENDBRANCH  31  38
ENDBRANCH  29  31
ENDBRANCH   4  27
TORSDOF 9
ENDMDL
MODEL 2
REMARK VINA RESULT:      -7.9      2.621     10.967
REMARK  9 active torsions:
REMARK  status: ('A' for Active; 'I' for Inactive)
REMARK       I    between atoms: N_1  and  C_2 
REMARK    1  A    between atoms: N_15  and  C_18 
REMARK    2  A    between atoms: C_21  and  C_24 
REMARK       I    between atoms: C_24  and  N_26 
REMARK    3  A    between atoms: C_27  and  N_26 
REMARK    4  A    between atoms: C_27  and  C_28 
REMARK    5  A    between atoms: C_27  and  C_33 
REMARK    6  A    between atoms: C_28  and  C_29 
REMARK    7  A    between atoms: C_29  and  C_30 
REMARK    8  A    between atoms: C_30  and  O_31 
REMARK    9  A    between atoms: C_33  and  O_34 
ROOT
HETATM    1  C   UNK N   1      27.613  17.409   5.854  0.00  0.00     0.031 C 
HETATM    2  C   UNK N   1      28.887  17.205   5.321  0.00  0.00     0.030 C 
HETATM    3  C   UNK N   1      29.959  17.003   6.180  0.00  0.00     0.019 C 
HETATM    4  C   UNK N   1      29.767  16.947   7.571  0.00  0.00     0.032 C 
HETATM    5  C   UNK N   1      28.467  16.972   8.080  0.00  0.00     0.019 C 
HETATM    6  C   UNK N   1      27.395  17.211   7.226  0.00  0.00     0.030 C 
ENDROOT
BRANCH   1   7
HETATM    7  N   UNK N   1      26.597  17.994   5.058  0.00  0.00    -0.362 N 
HETATM    8  C   UNK N   1      26.678  19.339   4.513  0.00  0.00     0.155 C 
HETATM    9  C   UNK N   1      25.359  19.436   3.781  0.00  0.00     0.143 C 
HETATM   10  C   UNK N   1      24.652  20.629   3.215  0.00  0.00     0.089 C 
HETATM   11  N   UNK N   1      24.533  18.381   4.263  0.00  0.00    -0.346 N 
HETATM   12  N   UNK N   1      23.388  20.563   2.943  0.00  0.00    -0.351 N 
HETATM   13  C   UNK N   1      22.591  19.416   3.253  0.00  0.00     0.153 A 
ATOM     14  HN  UNK N   1      22.942  21.361   2.489  1.00  0.00     0.166 HD
HETATM   15  C   UNK N   1      23.150  18.335   3.956  0.00  0.00     0.146 A 
HETATM   16  N   UNK N   1      21.283  19.384   2.898  0.00  0.00    -0.174 N 
HETATM   17  C   UNK N   1      22.309  17.266   4.317  0.00  0.00     0.290 A 
HETATM   18  N   UNK N   1      20.997  17.285   3.935  0.00  0.00    -0.154 N 
HETATM   19  O   UNK N   1      22.734  16.322   4.962  0.00  0.00    -0.265 OA
HETATM   20  C   UNK N   1      20.492  18.324   3.218  0.00  0.00     0.680 A 
ATOM     21  HN  UNK N   1      20.388  16.509   4.190  1.00  0.00     0.187 HD
HETATM   22  N   UNK N   1      19.146  18.305   2.809  0.00  0.00    -0.234 N 
HETATM   23  H   UNK N   1      18.702  19.110   2.460  0.00  0.00     0.174 HD
HETATM   24  H   UNK N   1      18.637  17.465   2.875  0.00  0.00     0.174 HD
HETATM   25  H   UNK N   1      20.898  20.141   2.400  0.00  0.00     0.186 HD
HETATM   26  C   UNK N   1      25.281  17.400   4.979  0.00  0.00     0.250 C 
ENDBRANCH   1   7
BRANCH   4  27
HETATM   27  C   UNK N   1      30.804  17.593   8.401  0.00  0.00     0.252 C 
HETATM   28  O   UNK N   1      30.556  18.721   8.797  0.00  0.00    -0.268 OA
HETATM   29  N   UNK N   1      31.915  16.984   8.896  0.00  0.00    -0.343 N 
HETATM   30  H   UNK N   1      32.257  17.340   9.748  0.00  0.00     0.163 HD
BRANCH  29  31
HETATM   31  C   UNK N   1      32.660  15.878   8.331  0.00  0.00     0.183 C 
BRANCH  31  32
HETATM   32  C   UNK N   1      33.905  16.233   7.530  0.00  0.00     0.046 C 
BRANCH  32  33
HETATM   33  C   UNK N   1      34.106  17.744   7.463  0.00  0.00     0.112 C 
BRANCH  33  34
HETATM   34  C   UNK N   1      34.911  18.293   8.611  0.00  0.00     0.139 C 
HETATM   35  O   UNK N   1      35.368  19.421   8.537  0.00  0.00    -0.650 OA
BRANCH  34  36
HETATM   36  O   UNK N   1      35.140  17.556   9.717  0.00  0.00    -0.776 OA
HETATM   37  H   UNK N   1      35.721  17.824  10.403  0.00  0.00     0.167 HD
ENDBRANCH  34  36
ENDBRANCH  33  34
ENDBRANCH  32  33
ENDBRANCH  31  32
BRANCH  31  38
HETATM   38  C   UNK N   1      32.907  14.827   9.374  0.00  0.00     0.163 C 
HETATM   39  O   UNK N   1      33.773  14.982  10.224  0.00  0.00    -0.648 OA
BRANCH  38  40
HETATM   40  O   UNK N   1      32.119  13.739   9.422  0.00  0.00    -0.775 OA
HETATM   41  H   UNK N   1      32.060  12.965   8.898  0.00  0.00     0.167 HD
ENDBRANCH  38  40
ENDBRANCH  31  38
ENDBRANCH  29  31
ENDBRANCH   4  27
TORSDOF 9
ENDMDL
MODEL 3
REMARK VINA RESULT:      -7.8      5.019      8.766
REMARK  9 active torsions:
REMARK  status: ('A' for Active; 'I' for Inactive)
REMARK       I    between atoms: N_1  and  C_2 
REMARK    1  A    between atoms: N_15  and  C_18 
REMARK    2  A    between atoms: C_21  and  C_24 
REMARK       I    between atoms: C_24  and  N_26 
REMARK    3  A    between atoms: C_27  and  N_26 
REMARK    4  A    between atoms: C_27  and  C_28 
REMARK    5  A    between atoms: C_27  and  C_33 
REMARK    6  A    between atoms: C_28  and  C_29 
REMARK    7  A    between atoms: C_29  and  C_30 
REMARK    8  A    between atoms: C_30  and  O_31 
REMARK    9  A    between atoms: C_33  and  O_34 
ROOT
HETATM    1  C   UNK N   1      25.573  14.836   4.768  0.00  0.00     0.031 C 
HETATM    2  C   UNK N   1      25.503  15.511   3.548  0.00  0.00     0.030 C 
HETATM    3  C   UNK N   1      26.677  15.905   2.921  0.00  0.00     0.019 C 
HETATM    4  C   UNK N   1      27.930  15.583   3.470  0.00  0.00     0.032 C 
HETATM    5  C   UNK N   1      27.989  14.754   4.591  0.00  0.00     0.019 C 
HETATM    6  C   UNK N   1      26.816  14.390   5.243  0.00  0.00     0.030 C 
ENDROOT
BRANCH   1   7
HETATM    7  N   UNK N   1      24.435  14.771   5.609  0.00  0.00    -0.362 N 
HETATM    8  C   UNK N   1      23.450  15.834   5.713  0.00  0.00     0.155 C 
HETATM    9  C   UNK N   1      22.494  15.248   6.726  0.00  0.00     0.143 C 
HETATM   10  C   UNK N   1      21.394  15.898   7.508  0.00  0.00     0.089 C 
HETATM   11  N   UNK N   1      23.168  14.166   7.362  0.00  0.00    -0.346 N 
HETATM   12  N   UNK N   1      20.927  15.322   8.570  0.00  0.00    -0.351 N 
HETATM   13  C   UNK N   1      21.485  14.118   9.102  0.00  0.00     0.153 A 
ATOM     14  HN  UNK N   1      20.129  15.745   9.045  1.00  0.00     0.166 HD
HETATM   15  C   UNK N   1      22.638  13.557   8.527  0.00  0.00     0.146 A 
HETATM   16  N   UNK N   1      20.921  13.532  10.188  0.00  0.00    -0.174 N 
HETATM   17  C   UNK N   1      23.204  12.422   9.135  0.00  0.00     0.290 A 
HETATM   18  N   UNK N   1      22.596  11.872  10.229  0.00  0.00    -0.154 N 
HETATM   19  O   UNK N   1      24.227  11.919   8.700  0.00  0.00    -0.265 OA
HETATM   20  C   UNK N   1      21.457  12.411  10.740  0.00  0.00     0.680 A 
ATOM     21  HN  UNK N   1      23.002  11.046  10.668  1.00  0.00     0.187 HD
HETATM   22  N   UNK N   1      20.833  11.807  11.847  0.00  0.00    -0.234 N 
HETATM   23  H   UNK N   1      20.126  12.267  12.355  0.00  0.00     0.174 HD
HETATM   24  H   UNK N   1      21.109  10.903  12.120  0.00  0.00     0.174 HD
HETATM   25  H   UNK N   1      20.110  13.926  10.583  0.00  0.00     0.186 HD
HETATM   26  C   UNK N   1      24.331  13.764   6.642  0.00  0.00     0.250 C 
ENDBRANCH   1   7
BRANCH   4  27
HETATM   27  C   UNK N   1      28.972  16.626   3.373  0.00  0.00     0.252 C 
HETATM   28  O   UNK N   1      29.873  16.419   2.574  0.00  0.00    -0.268 OA
HETATM   29  N   UNK N   1      28.923  17.852   3.960  0.00  0.00    -0.343 N 
HETATM   30  H   UNK N   1      29.396  18.575   3.487  0.00  0.00     0.163 HD
BRANCH  29  31
HETATM   31  C   UNK N   1      28.263  18.232   5.192  0.00  0.00     0.183 C 
BRANCH  31  32
HETATM   32  C   UNK N   1      28.963  17.845   6.487  0.00  0.00     0.046 C 
BRANCH  32  33
HETATM   33  C   UNK N   1      28.024  17.085   7.418  0.00  0.00     0.112 C 
BRANCH  33  34
HETATM   34  C   UNK N   1      27.890  17.713   8.780  0.00  0.00     0.139 C 
HETATM   35  O   UNK N   1      28.086  17.036   9.774  0.00  0.00    -0.650 OA
BRANCH  34  36
HETATM   36  O   UNK N   1      27.552  19.012   8.918  0.00  0.00    -0.776 OA
HETATM   37  H   UNK N   1      27.713  19.658   8.259  0.00  0.00     0.167 HD
ENDBRANCH  34  36
ENDBRANCH  33  34
ENDBRANCH  32  33
ENDBRANCH  31  32
BRANCH  31  38
HETATM   38  C   UNK N   1      27.860  19.677   5.146  0.00  0.00     0.163 C 
HETATM   39  O   UNK N   1      27.542  20.203   4.089  0.00  0.00    -0.648 OA
BRANCH  38  40
HETATM   40  O   UNK N   1      27.773  20.380   6.288  0.00  0.00    -0.775 OA
HETATM   41  H   UNK N   1      28.296  20.412   7.065  0.00  0.00     0.167 HD
ENDBRANCH  38  40
ENDBRANCH  31  38
ENDBRANCH  29  31
ENDBRANCH   4  27
TORSDOF 9
ENDMDL
MODEL 4
REMARK VINA RESULT:      -7.8      7.784     14.766
REMARK  9 active torsions:
REMARK  status: ('A' for Active; 'I' for Inactive)
REMARK       I    between atoms: N_1  and  C_2 
REMARK    1  A    between atoms: N_15  and  C_18 
REMARK    2  A    between atoms: C_21  and  C_24 
REMARK       I    between atoms: C_24  and  N_26 
REMARK    3  A    between atoms: C_27  and  N_26 
REMARK    4  A    between atoms: C_27  and  C_28 
REMARK    5  A    between atoms: C_27  and  C_33 
REMARK    6  A    between atoms: C_28  and  C_29 
REMARK    7  A    between atoms: C_29  and  C_30 
REMARK    8  A    between atoms: C_30  and  O_31 
REMARK    9  A    between atoms: C_33  and  O_34 
ROOT
HETATM    1  C   UNK N   1      35.969  12.859  10.679  0.00  0.00     0.031 C 
HETATM    2  C   UNK N   1      37.311  12.837  11.065  0.00  0.00     0.030 C 
HETATM    3  C   UNK N   1      37.708  11.995  12.095  0.00  0.00     0.019 C 
HETATM    4  C   UNK N   1      36.789  11.128  12.711  0.00  0.00     0.032 C 
HETATM    5  C   UNK N   1      35.495  11.030  12.197  0.00  0.00     0.019 C 
HETATM    6  C   UNK N   1      35.084  11.898  11.191  0.00  0.00     0.030 C 
ENDROOT
BRANCH   1   7
HETATM    7  N   UNK N   1      35.464  13.952   9.932  0.00  0.00    -0.362 N 
HETATM    8  C   UNK N   1      35.768  15.341  10.234  0.00  0.00     0.155 C 
HETATM    9  C   UNK N   1      34.982  16.052   9.156  0.00  0.00     0.143 C 
HETATM   10  C   UNK N   1      34.616  17.498   9.021  0.00  0.00     0.089 C 
HETATM   11  N   UNK N   1      34.054  15.112   8.625  0.00  0.00    -0.346 N 
HETATM   12  N   UNK N   1      33.654  17.850   8.229  0.00  0.00    -0.351 N 
HETATM   13  C   UNK N   1      32.838  16.900   7.536  0.00  0.00     0.153 A 
ATOM     14  HN  UNK N   1      33.470  18.845   8.094  1.00  0.00     0.166 HD
HETATM   15  C   UNK N   1      33.005  15.524   7.765  0.00  0.00     0.146 A 
HETATM   16  N   UNK N   1      31.878  17.329   6.680  0.00  0.00    -0.174 N 
HETATM   17  C   UNK N   1      32.125  14.629   7.130  0.00  0.00     0.290 A 
HETATM   18  N   UNK N   1      31.173  15.115   6.278  0.00  0.00    -0.154 N 
HETATM   19  O   UNK N   1      32.199  13.427   7.325  0.00  0.00    -0.265 OA
HETATM   20  C   UNK N   1      31.061  16.449   6.041  0.00  0.00     0.680 A 
ATOM     21  HN  UNK N   1      30.538  14.468   5.812  1.00  0.00     0.187 HD
HETATM   22  N   UNK N   1      30.094  16.921   5.134  0.00  0.00    -0.234 N 
HETATM   23  H   UNK N   1      29.859  17.875   5.081  0.00  0.00     0.174 HD
HETATM   24  H   UNK N   1      29.642  16.281   4.539  0.00  0.00     0.174 HD
HETATM   25  H   UNK N   1      31.770  18.294   6.518  0.00  0.00     0.186 HD
HETATM   26  C   UNK N   1      34.376  13.773   8.997  0.00  0.00     0.250 C 
ENDBRANCH   1   7
BRANCH   4  27
HETATM   27  C   UNK N   1      36.923  10.967  14.174  0.00  0.00     0.252 C 
HETATM   28  O   UNK N   1      37.372   9.900  14.563  0.00  0.00    -0.268 OA
HETATM   29  N   UNK N   1      36.758  11.952  15.098  0.00  0.00    -0.343 N 
HETATM   30  H   UNK N   1      37.288  11.862  15.922  0.00  0.00     0.163 HD
BRANCH  29  31
HETATM   31  C   UNK N   1      35.902  13.118  15.023  0.00  0.00     0.183 C 
BRANCH  31  32
HETATM   32  C   UNK N   1      34.797  13.219  16.066  0.00  0.00     0.046 C 
BRANCH  32  33
HETATM   33  C   UNK N   1      35.228  12.593  17.389  0.00  0.00     0.112 C 
BRANCH  33  34
HETATM   34  C   UNK N   1      35.321  13.584  18.519  0.00  0.00     0.139 C 
HETATM   35  O   UNK N   1      35.025  13.234  19.649  0.00  0.00    -0.650 OA
BRANCH  34  36
HETATM   36  O   UNK N   1      35.720  14.854  18.302  0.00  0.00    -0.776 OA
HETATM   37  H   UNK N   1      35.142  15.590  18.349  0.00  0.00     0.167 HD
ENDBRANCH  34  36
ENDBRANCH  33  34
ENDBRANCH  32  33
ENDBRANCH  31  32
BRANCH  31  38
HETATM   38  C   UNK N   1      36.726  14.367  14.912  0.00  0.00     0.163 C 
HETATM   39  O   UNK N   1      37.432  14.734  15.841  0.00  0.00    -0.648 OA
BRANCH  38  40
HETATM   40  O   UNK N   1      36.750  15.047  13.753  0.00  0.00    -0.775 OA
HETATM   41  H   UNK N   1      36.773  14.784  12.854  0.00  0.00     0.167 HD
ENDBRANCH  38  40
ENDBRANCH  31  38
ENDBRANCH  29  31
ENDBRANCH   4  27
TORSDOF 9
ENDMDL
MODEL 5
REMARK VINA RESULT:      -7.8      4.288     11.420
REMARK  9 active torsions:
REMARK  status: ('A' for Active; 'I' for Inactive)
REMARK       I    between atoms: N_1  and  C_2 
REMARK    1  A    between atoms: N_15  and  C_18 
REMARK    2  A    between atoms: C_21  and  C_24 
REMARK       I    between atoms: C_24  and  N_26 
REMARK    3  A    between atoms: C_27  and  N_26 
REMARK    4  A    between atoms: C_27  and  C_28 
REMARK    5  A    between atoms: C_27  and  C_33 
REMARK    6  A    between atoms: C_28  and  C_29 
REMARK    7  A    between atoms: C_29  and  C_30 
REMARK    8  A    between atoms: C_30  and  O_31 
REMARK    9  A    between atoms: C_33  and  O_34 
ROOT
HETATM    1  C   UNK N   1      31.474  16.842   6.273  0.00  0.00     0.031 C 
HETATM    2  C   UNK N   1      31.209  17.422   7.514  0.00  0.00     0.030 C 
HETATM    3  C   UNK N   1      32.249  18.006   8.227  0.00  0.00     0.019 C 
HETATM    4  C   UNK N   1      33.545  18.069   7.688  0.00  0.00     0.032 C 
HETATM    5  C   UNK N   1      33.757  17.648   6.374  0.00  0.00     0.019 C 
HETATM    6  C   UNK N   1      32.729  17.029   5.672  0.00  0.00     0.030 C 
ENDROOT
BRANCH   1   7
HETATM    7  N   UNK N   1      30.558  15.917   5.712  0.00  0.00    -0.362 N 
HETATM    8  C   UNK N   1      30.826  14.494   5.591  0.00  0.00     0.155 C 
HETATM    9  C   UNK N   1      29.551  14.012   4.938  0.00  0.00     0.143 C 
HETATM   10  C   UNK N   1      29.237  12.705   4.277  0.00  0.00     0.089 C 
HETATM   11  N   UNK N   1      28.887  15.159   4.419  0.00  0.00    -0.346 N 
HETATM   12  N   UNK N   1      28.223  12.612   3.476  0.00  0.00    -0.351 N 
HETATM   13  C   UNK N   1      27.429  13.742   3.104  0.00  0.00     0.153 A 
ATOM     14  HN  UNK N   1      27.983  11.697   3.096  1.00  0.00     0.166 HD
HETATM   15  C   UNK N   1      27.783  15.031   3.538  0.00  0.00     0.146 A 
HETATM   16  N   UNK N   1      26.348  13.575   2.302  0.00  0.00    -0.174 N 
HETATM   17  C   UNK N   1      27.026  16.123   3.078  0.00  0.00     0.290 A 
HETATM   18  N   UNK N   1      25.947  15.898   2.269  0.00  0.00    -0.154 N 
HETATM   19  O   UNK N   1      27.314  17.266   3.391  0.00  0.00    -0.265 OA
HETATM   20  C   UNK N   1      25.600  14.637   1.899  0.00  0.00     0.680 A 
ATOM     21  HN  UNK N   1      25.393  16.688   1.939  1.00  0.00     0.187 HD
HETATM   22  N   UNK N   1      24.466  14.430   1.092  0.00  0.00    -0.234 N 
HETATM   23  H   UNK N   1      24.296  13.566   0.654  0.00  0.00     0.174 HD
HETATM   24  H   UNK N   1      23.828  15.169   0.963  0.00  0.00     0.174 HD
HETATM   25  H   UNK N   1      26.101  12.669   2.007  0.00  0.00     0.186 HD
HETATM   26  C   UNK N   1      29.413  16.371   4.956  0.00  0.00     0.250 C 
ENDBRANCH   1   7
BRANCH   4  27
HETATM   27  C   UNK N   1      34.657  17.840   8.634  0.00  0.00     0.252 C 
HETATM   28  O   UNK N   1      35.350  18.810   8.901  0.00  0.00    -0.268 OA
HETATM   29  N   UNK N   1      34.863  16.705   9.354  0.00  0.00    -0.343 N 
HETATM   30  H   UNK N   1      35.309  16.822  10.224  0.00  0.00     0.163 HD
BRANCH  29  31
HETATM   31  C   UNK N   1      34.510  15.344   9.005  0.00  0.00     0.183 C 
BRANCH  31  32
HETATM   32  C   UNK N   1      35.616  14.304   9.117  0.00  0.00     0.046 C 
BRANCH  32  33
HETATM   33  C   UNK N   1      36.711  14.762  10.075  0.00  0.00     0.112 C 
BRANCH  33  34
HETATM   34  C   UNK N   1      36.670  14.065  11.410  0.00  0.00     0.139 C 
HETATM   35  O   UNK N   1      35.700  14.212  12.134  0.00  0.00    -0.650 OA
BRANCH  34  36
HETATM   36  O   UNK N   1      37.691  13.285  11.820  0.00  0.00    -0.776 OA
HETATM   37  H   UNK N   1      37.995  12.540  11.339  0.00  0.00     0.167 HD
ENDBRANCH  34  36
ENDBRANCH  33  34
ENDBRANCH  32  33
ENDBRANCH  31  32
BRANCH  31  38
HETATM   38  C   UNK N   1      33.244  14.938   9.700  0.00  0.00     0.163 C 
HETATM   39  O   UNK N   1      32.317  14.444   9.072  0.00  0.00    -0.648 OA
BRANCH  38  40
HETATM   40  O   UNK N   1      33.155  15.045  11.037  0.00  0.00    -0.775 OA
HETATM   41  H   UNK N   1      32.487  14.825  11.657  0.00  0.00     0.167 HD
ENDBRANCH  38  40
ENDBRANCH  31  38
ENDBRANCH  29  31
ENDBRANCH   4  27
TORSDOF 9
ENDMDL
MODEL 6
REMARK VINA RESULT:      -7.7      4.658      7.057
REMARK  9 active torsions:
REMARK  status: ('A' for Active; 'I' for Inactive)
REMARK       I    between atoms: N_1  and  C_2 
REMARK    1  A    between atoms: N_15  and  C_18 
REMARK    2  A    between atoms: C_21  and  C_24 
REMARK       I    between atoms: C_24  and  N_26 
REMARK    3  A    between atoms: C_27  and  N_26 
REMARK    4  A    between atoms: C_27  and  C_28 
REMARK    5  A    between atoms: C_27  and  C_33 
REMARK    6  A    between atoms: C_28  and  C_29 
REMARK    7  A    between atoms: C_29  and  C_30 
REMARK    8  A    between atoms: C_30  and  O_31 
REMARK    9  A    between atoms: C_33  and  O_34 
ROOT
HETATM    1  C   UNK N   1      31.930  16.273   8.026  0.00  0.00     0.031 C 
HETATM    2  C   UNK N   1      30.924  16.029   7.088  0.00  0.00     0.030 C 
HETATM    3  C   UNK N   1      29.796  16.838   7.077  0.00  0.00     0.019 C 
HETATM    4  C   UNK N   1      29.681  17.928   7.957  0.00  0.00     0.032 C 
HETATM    5  C   UNK N   1      30.769  18.268   8.763  0.00  0.00     0.019 C 
HETATM    6  C   UNK N   1      31.885  17.439   8.804  0.00  0.00     0.030 C 
ENDROOT
BRANCH   1   7
HETATM    7  N   UNK N   1      32.879  15.264   8.325  0.00  0.00    -0.362 N 
HETATM    8  C   UNK N   1      32.891  13.957   7.690  0.00  0.00     0.155 C 
HETATM    9  C   UNK N   1      34.073  13.311   8.375  0.00  0.00     0.143 C 
HETATM   10  C   UNK N   1      34.506  11.877   8.411  0.00  0.00     0.089 C 
HETATM   11  N   UNK N   1      34.365  14.089   9.532  0.00  0.00    -0.346 N 
HETATM   12  N   UNK N   1      35.327  11.472   9.326  0.00  0.00    -0.351 N 
HETATM   13  C   UNK N   1      35.777  12.319  10.388  0.00  0.00     0.153 A 
ATOM     14  HN  UNK N   1      35.667  10.511   9.289  1.00  0.00     0.166 HD
HETATM   15  C   UNK N   1      35.263  13.620  10.523  0.00  0.00     0.146 A 
HETATM   16  N   UNK N   1      36.678  11.854  11.289  0.00  0.00    -0.174 N 
HETATM   17  C   UNK N   1      35.666  14.387  11.630  0.00  0.00     0.290 A 
HETATM   18  N   UNK N   1      36.576  13.870  12.510  0.00  0.00    -0.154 N 
HETATM   19  O   UNK N   1      35.220  15.507  11.817  0.00  0.00    -0.265 OA
HETATM   20  C   UNK N   1      37.090  12.623  12.333  0.00  0.00     0.680 A 
ATOM     21  HN  UNK N   1      36.874  14.426  13.310  1.00  0.00     0.187 HD
HETATM   22  N   UNK N   1      38.049  12.127  13.234  0.00  0.00    -0.234 N 
HETATM   23  H   UNK N   1      38.299  11.175  13.249  0.00  0.00     0.174 HD
HETATM   24  H   UNK N   1      38.480  12.746  13.866  0.00  0.00     0.174 HD
HETATM   25  H   UNK N   1      37.039  10.945  11.187  0.00  0.00     0.186 HD
HETATM   26  C   UNK N   1      33.723  15.362   9.495  0.00  0.00     0.250 C 
ENDBRANCH   1   7
BRANCH   4  27
HETATM   27  C   UNK N   1      28.342  18.163   8.534  0.00  0.00     0.252 C 
HETATM   28  O   UNK N   1      28.034  17.467   9.490  0.00  0.00    -0.268 OA
HETATM   29  N   UNK N   1      27.508  19.187   8.209  0.00  0.00    -0.343 N 
HETATM   30  H   UNK N   1      26.906  19.496   8.925  0.00  0.00     0.163 HD
BRANCH  29  31
HETATM   31  C   UNK N   1      27.392  19.884   6.944  0.00  0.00     0.183 C 
BRANCH  31  32
HETATM   32  C   UNK N   1      26.972  19.048   5.743  0.00  0.00     0.046 C 
BRANCH  32  33
HETATM   33  C   UNK N   1      28.080  18.993   4.695  0.00  0.00     0.112 C 
BRANCH  33  34
HETATM   34  C   UNK N   1      28.197  17.654   4.017  0.00  0.00     0.139 C 
HETATM   35  O   UNK N   1      27.363  16.793   4.242  0.00  0.00    -0.650 OA
BRANCH  34  36
HETATM   36  O   UNK N   1      29.211  17.388   3.168  0.00  0.00    -0.776 OA
HETATM   37  H   UNK N   1      29.869  16.743   3.339  0.00  0.00     0.167 HD
ENDBRANCH  34  36
ENDBRANCH  33  34
ENDBRANCH  32  33
ENDBRANCH  31  32
BRANCH  31  38
HETATM   38  C   UNK N   1      26.578  21.134   7.108  0.00  0.00     0.163 C 
HETATM   39  O   UNK N   1      26.607  22.014   6.260  0.00  0.00    -0.648 OA
BRANCH  38  40
HETATM   40  O   UNK N   1      25.749  21.255   8.160  0.00  0.00    -0.775 OA
HETATM   41  H   UNK N   1      25.023  21.817   8.344  0.00  0.00     0.167 HD
ENDBRANCH  38  40
ENDBRANCH  31  38
ENDBRANCH  29  31
ENDBRANCH   4  27
TORSDOF 9
ENDMDL
MODEL 7
REMARK VINA RESULT:      -7.7      5.577     12.569
REMARK  9 active torsions:
REMARK  status: ('A' for Active; 'I' for Inactive)
REMARK       I    between atoms: N_1  and  C_2 
REMARK    1  A    between atoms: N_15  and  C_18 
REMARK    2  A    between atoms: C_21  and  C_24 
REMARK       I    between atoms: C_24  and  N_26 
REMARK    3  A    between atoms: C_27  and  N_26 
REMARK    4  A    between atoms: C_27  and  C_28 
REMARK    5  A    between atoms: C_27  and  C_33 
REMARK    6  A    between atoms: C_28  and  C_29 
REMARK    7  A    between atoms: C_29  and  C_30 
REMARK    8  A    between atoms: C_30  and  O_31 
REMARK    9  A    between atoms: C_33  and  O_34 
ROOT
HETATM    1  C   UNK N   1      33.007  15.200   8.173  0.00  0.00     0.031 C 
HETATM    2  C   UNK N   1      34.333  15.105   7.746  0.00  0.00     0.030 C 
HETATM    3  C   UNK N   1      35.341  14.948   8.688  0.00  0.00     0.019 C 
HETATM    4  C   UNK N   1      35.037  14.827  10.055  0.00  0.00     0.032 C 
HETATM    5  C   UNK N   1      33.700  14.743  10.449  0.00  0.00     0.019 C 
HETATM    6  C   UNK N   1      32.690  14.937   9.514  0.00  0.00     0.030 C 
ENDROOT
BRANCH   1   7
HETATM    7  N   UNK N   1      32.021  15.741   7.310  0.00  0.00    -0.362 N 
HETATM    8  C   UNK N   1      32.144  15.761   5.863  0.00  0.00     0.155 C 
HETATM    9  C   UNK N   1      30.851  16.439   5.471  0.00  0.00     0.143 C 
HETATM   10  C   UNK N   1      30.427  17.031   4.161  0.00  0.00     0.089 C 
HETATM   11  N   UNK N   1      30.330  17.058   6.643  0.00  0.00    -0.346 N 
HETATM   12  N   UNK N   1      29.440  17.868   4.119  0.00  0.00    -0.351 N 
HETATM   13  C   UNK N   1      28.782  18.344   5.296  0.00  0.00     0.153 A 
ATOM     14  HN  UNK N   1      29.120  18.201   3.209  1.00  0.00     0.166 HD
HETATM   15  C   UNK N   1      29.253  17.976   6.569  0.00  0.00     0.146 A 
HETATM   16  N   UNK N   1      27.721  19.181   5.187  0.00  0.00    -0.174 N 
HETATM   17  C   UNK N   1      28.631  18.537   7.699  0.00  0.00     0.290 A 
HETATM   18  N   UNK N   1      27.566  19.376   7.532  0.00  0.00    -0.154 N 
HETATM   19  O   UNK N   1      29.025  18.283   8.825  0.00  0.00    -0.265 OA
HETATM   20  C   UNK N   1      27.103  19.683   6.291  0.00  0.00     0.680 A 
ATOM     21  HN  UNK N   1      27.110  19.779   8.351  1.00  0.00     0.187 HD
HETATM   22  N   UNK N   1      25.985  20.524   6.147  0.00  0.00    -0.234 N 
HETATM   23  H   UNK N   1      25.742  20.915   5.277  0.00  0.00     0.174 HD
HETATM   24  H   UNK N   1      25.433  20.727   6.936  0.00  0.00     0.174 HD
HETATM   25  H   UNK N   1      27.391  19.430   4.293  0.00  0.00     0.186 HD
HETATM   26  C   UNK N   1      30.959  16.574   7.827  0.00  0.00     0.250 C 
ENDBRANCH   1   7
BRANCH   4  27
HETATM   27  C   UNK N   1      35.951  15.514  10.990  0.00  0.00     0.252 C 
HETATM   28  O   UNK N   1      36.387  16.595  10.626  0.00  0.00    -0.268 OA
HETATM   29  N   UNK N   1      36.206  15.135  12.271  0.00  0.00    -0.343 N 
HETATM   30  H   UNK N   1      36.433  15.859  12.898  0.00  0.00     0.163 HD
BRANCH  29  31
HETATM   31  C   UNK N   1      36.185  13.799  12.833  0.00  0.00     0.183 C 
BRANCH  31  32
HETATM   32  C   UNK N   1      37.239  12.828  12.321  0.00  0.00     0.046 C 
BRANCH  32  33
HETATM   33  C   UNK N   1      36.661  11.428  12.142  0.00  0.00     0.112 C 
BRANCH  33  34
HETATM   34  C   UNK N   1      35.210  11.426  11.737  0.00  0.00     0.139 C 
HETATM   35  O   UNK N   1      34.918  11.409  10.553  0.00  0.00    -0.650 OA
BRANCH  34  36
HETATM   36  O   UNK N   1      34.228  11.448  12.662  0.00  0.00    -0.776 OA
HETATM   37  H   UNK N   1      34.342  11.141  13.540  0.00  0.00     0.167 HD
ENDBRANCH  34  36
ENDBRANCH  33  34
ENDBRANCH  32  33
ENDBRANCH  31  32
BRANCH  31  38
HETATM   38  C   UNK N   1      36.116  13.863  14.331  0.00  0.00     0.163 C 
HETATM   39  O   UNK N   1      35.127  13.465  14.929  0.00  0.00    -0.648 OA
BRANCH  38  40
HETATM   40  O   UNK N   1      37.184  14.290  15.028  0.00  0.00    -0.775 OA
HETATM   41  H   UNK N   1      37.490  14.128  15.898  0.00  0.00     0.167 HD
ENDBRANCH  38  40
ENDBRANCH  31  38
ENDBRANCH  29  31
ENDBRANCH   4  27
TORSDOF 9
ENDMDL
MODEL 8
REMARK VINA RESULT:      -7.7      1.403      2.392
REMARK  9 active torsions:
REMARK  status: ('A' for Active; 'I' for Inactive)
REMARK       I    between atoms: N_1  and  C_2 
REMARK    1  A    between atoms: N_15  and  C_18 
REMARK    2  A    between atoms: C_21  and  C_24 
REMARK       I    between atoms: C_24  and  N_26 
REMARK    3  A    between atoms: C_27  and  N_26 
REMARK    4  A    between atoms: C_27  and  C_28 
REMARK    5  A    between atoms: C_27  and  C_33 
REMARK    6  A    between atoms: C_28  and  C_29 
REMARK    7  A    between atoms: C_29  and  C_30 
REMARK    8  A    between atoms: C_30  and  O_31 
REMARK    9  A    between atoms: C_33  and  O_34 
ROOT
HETATM    1  C   UNK N   1      26.442  17.751   5.102  0.00  0.00     0.031 C 
HETATM    2  C   UNK N   1      25.545  16.708   4.866  0.00  0.00     0.030 C 
HETATM    3  C   UNK N   1      24.226  17.004   4.550  0.00  0.00     0.019 C 
HETATM    4  C   UNK N   1      23.800  18.336   4.411  0.00  0.00     0.032 C 
HETATM    5  C   UNK N   1      24.744  19.362   4.471  0.00  0.00     0.019 C 
HETATM    6  C   UNK N   1      26.058  19.072   4.824  0.00  0.00     0.030 C 
ENDROOT
BRANCH   1   7
HETATM    7  N   UNK N   1      27.654  17.503   5.793  0.00  0.00    -0.362 N 
HETATM    8  C   UNK N   1      27.972  18.077   7.089  0.00  0.00     0.155 C 
HETATM    9  C   UNK N   1      29.346  17.497   7.335  0.00  0.00     0.143 C 
HETATM   10  C   UNK N   1      30.387  17.870   8.346  0.00  0.00     0.089 C 
HETATM   11  N   UNK N   1      29.824  17.007   6.086  0.00  0.00    -0.346 N 
HETATM   12  N   UNK N   1      31.617  17.503   8.173  0.00  0.00    -0.351 N 
HETATM   13  C   UNK N   1      32.063  16.830   6.992  0.00  0.00     0.153 A 
ATOM     14  HN  UNK N   1      32.295  17.703   8.909  1.00  0.00     0.166 HD
HETATM   15  C   UNK N   1      31.177  16.618   5.921  0.00  0.00     0.146 A 
HETATM   16  N   UNK N   1      33.353  16.425   6.889  0.00  0.00    -0.174 N 
HETATM   17  C   UNK N   1      31.679  16.031   4.746  0.00  0.00     0.290 A 
HETATM   18  N   UNK N   1      32.988  15.643   4.695  0.00  0.00    -0.154 N 
HETATM   19  O   UNK N   1      30.963  15.861   3.772  0.00  0.00    -0.265 OA
HETATM   20  C   UNK N   1      33.813  15.822   5.761  0.00  0.00     0.680 A 
ATOM     21  HN  UNK N   1      33.352  15.212   3.845  1.00  0.00     0.187 HD
HETATM   22  N   UNK N   1      35.148  15.384   5.694  0.00  0.00    -0.234 N 
HETATM   23  H   UNK N   1      35.816  15.661   6.362  0.00  0.00     0.174 HD
HETATM   24  H   UNK N   1      35.421  14.785   4.962  0.00  0.00     0.174 HD
HETATM   25  H   UNK N   1      33.967  16.571   7.645  0.00  0.00     0.186 HD
HETATM   26  C   UNK N   1      28.780  16.893   5.122  0.00  0.00     0.250 C 
ENDBRANCH   1   7
BRANCH   4  27
HETATM   27  C   UNK N   1      22.458  18.651   4.943  0.00  0.00     0.252 C 
HETATM   28  O   UNK N   1      22.312  18.528   6.150  0.00  0.00    -0.268 OA
HETATM   29  N   UNK N   1      21.442  19.223   4.243  0.00  0.00    -0.343 N 
HETATM   30  H   UNK N   1      20.816  19.775   4.765  0.00  0.00     0.163 HD
BRANCH  29  31
HETATM   31  C   UNK N   1      21.162  19.124   2.825  0.00  0.00     0.183 C 
BRANCH  31  32
HETATM   32  C   UNK N   1      19.798  18.571   2.437  0.00  0.00     0.046 C 
BRANCH  32  33
HETATM   33  C   UNK N   1      19.902  17.126   1.960  0.00  0.00     0.112 C 
BRANCH  33  34
HETATM   34  C   UNK N   1      19.847  16.983   0.462  0.00  0.00     0.139 C 
HETATM   35  O   UNK N   1      19.350  15.983  -0.027  0.00  0.00    -0.650 OA
BRANCH  34  36
HETATM   36  O   UNK N   1      20.342  17.941  -0.349  0.00  0.00    -0.776 OA
HETATM   37  H   UNK N   1      21.121  17.831  -0.859  0.00  0.00     0.167 HD
ENDBRANCH  34  36
ENDBRANCH  33  34
ENDBRANCH  32  33
ENDBRANCH  31  32
BRANCH  31  38
HETATM   38  C   UNK N   1      21.496  20.414   2.135  0.00  0.00     0.163 C 
HETATM   39  O   UNK N   1      21.429  20.506   0.917  0.00  0.00    -0.648 OA
BRANCH  38  40
HETATM   40  O   UNK N   1      21.797  21.501   2.866  0.00  0.00    -0.775 OA
HETATM   41  H   UNK N   1      22.204  22.320   2.662  0.00  0.00     0.167 HD
ENDBRANCH  38  40
ENDBRANCH  31  38
ENDBRANCH  29  31
ENDBRANCH   4  27
TORSDOF 9
ENDMDL
MODEL 9
REMARK VINA RESULT:      -7.6      1.206      2.158
REMARK  9 active torsions:
REMARK  status: ('A' for Active; 'I' for Inactive)
REMARK       I    between atoms: N_1  and  C_2 
REMARK    1  A    between atoms: N_15  and  C_18 
REMARK    2  A    between atoms: C_21  and  C_24 
REMARK       I    between atoms: C_24  and  N_26 
REMARK    3  A    between atoms: C_27  and  N_26 
REMARK    4  A    between atoms: C_27  and  C_28 
REMARK    5  A    between atoms: C_27  and  C_33 
REMARK    6  A    between atoms: C_28  and  C_29 
REMARK    7  A    between atoms: C_29  and  C_30 
REMARK    8  A    between atoms: C_30  and  O_31 
REMARK    9  A    between atoms: C_33  and  O_34 
ROOT
HETATM    1  C   UNK N   1      26.388  17.780   4.068  0.00  0.00     0.031 C 
HETATM    2  C   UNK N   1      25.587  16.735   3.603  0.00  0.00     0.030 C 
HETATM    3  C   UNK N   1      24.206  16.841   3.703  0.00  0.00     0.019 C 
HETATM    4  C   UNK N   1      23.608  18.006   4.213  0.00  0.00     0.032 C 
HETATM    5  C   UNK N   1      24.410  19.111   4.505  0.00  0.00     0.019 C 
HETATM    6  C   UNK N   1      25.794  18.995   4.442  0.00  0.00     0.030 C 
ENDROOT
BRANCH   1   7
HETATM    7  N   UNK N   1      27.760  17.554   4.342  0.00  0.00    -0.362 N 
HETATM    8  C   UNK N   1      28.649  16.832   3.449  0.00  0.00     0.155 C 
HETATM    9  C   UNK N   1      29.946  16.886   4.223  0.00  0.00     0.143 C 
HETATM   10  C   UNK N   1      31.219  16.119   4.033  0.00  0.00     0.089 C 
HETATM   11  N   UNK N   1      29.621  17.251   5.561  0.00  0.00    -0.346 N 
HETATM   12  N   UNK N   1      32.081  16.046   4.997  0.00  0.00    -0.351 N 
HETATM   13  C   UNK N   1      31.831  16.590   6.297  0.00  0.00     0.153 A 
ATOM     14  HN  UNK N   1      32.973  15.583   4.822  1.00  0.00     0.166 HD
HETATM   15  C   UNK N   1      30.581  17.156   6.600  0.00  0.00     0.146 A 
HETATM   16  N   UNK N   1      32.792  16.528   7.252  0.00  0.00    -0.174 N 
HETATM   17  C   UNK N   1      30.349  17.598   7.914  0.00  0.00     0.290 A 
HETATM   18  N   UNK N   1      31.351  17.512   8.839  0.00  0.00    -0.154 N 
HETATM   19  O   UNK N   1      29.268  18.061   8.241  0.00  0.00    -0.265 OA
HETATM   20  C   UNK N   1      32.566  16.999   8.508  0.00  0.00     0.680 A 
ATOM     21  HN  UNK N   1      31.187  17.838   9.791  1.00  0.00     0.187 HD
HETATM   22  N   UNK N   1      33.592  16.950   9.470  0.00  0.00    -0.234 N 
HETATM   23  H   UNK N   1      34.409  16.421   9.326  0.00  0.00     0.174 HD
HETATM   24  H   UNK N   1      33.489  17.458  10.307  0.00  0.00     0.174 HD
HETATM   25  H   UNK N   1      33.668  16.136   7.033  0.00  0.00     0.186 HD
HETATM   26  C   UNK N   1      28.299  17.773   5.666  0.00  0.00     0.250 C 
ENDBRANCH   1   7
BRANCH   4  27
HETATM   27  C   UNK N   1      22.428  17.809   5.080  0.00  0.00     0.252 C 
HETATM   28  O   UNK N   1      22.607  17.156   6.097  0.00  0.00    -0.268 OA
HETATM   29  N   UNK N   1      21.225  18.426   4.934  0.00  0.00    -0.343 N 
HETATM   30  H   UNK N   1      20.714  18.575   5.762  0.00  0.00     0.163 HD
BRANCH  29  31
HETATM   31  C   UNK N   1      20.599  18.894   3.714  0.00  0.00     0.183 C 
BRANCH  31  32
HETATM   32  C   UNK N   1      21.528  19.426   2.632  0.00  0.00     0.046 C 
BRANCH  32  33
HETATM   33  C   UNK N   1      21.319  20.921   2.410  0.00  0.00     0.112 C 
BRANCH  33  34
HETATM   34  C   UNK N   1      20.906  21.266   1.003  0.00  0.00     0.139 C 
HETATM   35  O   UNK N   1      21.144  20.483   0.099  0.00  0.00    -0.650 OA
BRANCH  34  36
HETATM   36  O   UNK N   1      20.283  22.430   0.726  0.00  0.00    -0.776 OA
HETATM   37  H   UNK N   1      19.461  22.676   1.103  0.00  0.00     0.167 HD
ENDBRANCH  34  36
ENDBRANCH  33  34
ENDBRANCH  32  33
ENDBRANCH  31  32
BRANCH  31  38
HETATM   38  C   UNK N   1      19.620  17.877   3.205  0.00  0.00     0.163 C 
HETATM   39  O   UNK N   1      19.207  16.987   3.935  0.00  0.00    -0.648 OA
BRANCH  38  40
HETATM   40  O   UNK N   1      19.131  17.990   1.958  0.00  0.00    -0.775 OA
HETATM   41  H   UNK N   1      19.011  17.380   1.257  0.00  0.00     0.167 HD
ENDBRANCH  38  40
ENDBRANCH  31  38
ENDBRANCH  29  31
ENDBRANCH   4  27
TORSDOF 9
ENDMDL
