MODEL 1
REMARK VINA RESULT:      -7.1      0.000      0.000
REMARK  9 active torsions:
REMARK  status: ('A' for Active; 'I' for Inactive)
REMARK    1  A    between atoms: C_5  and  C_2 
REMARK    2  A    between atoms: O_24  and  C_2 
REMARK    3  A    between atoms: C_7  and  C_4 
REMARK    4  A    between atoms: C_9  and  O_18 
REMARK    5  A    between atoms: C_10  and  O_19 
REMARK    6  A    between atoms: O_20  and  C_11 
REMARK    7  A    between atoms: P_25  and  O_21 
REMARK    8  A    between atoms: P_25  and  O_22 
REMARK    9  A    between atoms: P_25  and  O_24 
ROOT
HETATM    1  C   UNK N   1      18.893  15.278   5.238  0.00  0.00     0.133 C 
HETATM    2  C   UNK N   1      20.025  16.051   3.413  0.00  0.00     0.145 C 
HETATM    3  C   UNK N   1      19.727  14.120   4.623  0.00  0.00     0.173 C 
HETATM    4  C   UNK N   1      19.955  14.561   3.171  0.00  0.00     0.175 C 
HETATM    5  N   UNK N   1      18.831  16.309   4.207  0.00  0.00    -0.402 N 
HETATM    6  H   UNK N   1      18.124  17.033   4.075  0.00  0.00     0.154 HD
ENDROOT
BRANCH   2   7
HETATM    7  C   UNK N   1      20.118  17.021   2.284  0.00  0.00     0.011 A 
HETATM    8  C   UNK N   1      20.027  16.828   0.906  0.00  0.00     0.100 A 
HETATM    9  N   UNK N   1      20.225  18.021   0.274  0.00  0.00    -0.360 N 
HETATM   10  C   UNK N   1      20.440  18.926   1.249  0.00  0.00     0.111 A 
HETATM   11  H   UNK N   1      20.215  18.185  -0.697  0.00  0.00     0.165 HD
HETATM   12  C   UNK N   1      20.375  18.349   2.464  0.00  0.00     0.074 A 
HETATM   13  C   UNK N   1      20.713  20.285   1.149  0.00  0.00     0.170 A 
HETATM   14  N   UNK N   1      20.567  19.040   3.614  0.00  0.00    -0.350 N 
HETATM   15  C   UNK N   1      20.831  20.378   3.529  0.00  0.00     0.183 A 
ATOM     16  HN  UNK N   1      20.515  18.574   4.519  1.00  0.00     0.166 HD
HETATM   17  N   UNK N   1      20.904  20.992   2.303  0.00  0.00    -0.331 N 
ATOM     18  HN  UNK N   1      21.103  21.991   2.253  1.00  0.00     0.168 HD
BRANCH  13  19
HETATM   19  O   UNK N   1      20.794  20.894  -0.045  0.00  0.00    -0.344 OA
HETATM   20  H   UNK N   1      21.625  21.187  -0.366  0.00  0.00     0.219 HD
ENDBRANCH  13  19
ENDBRANCH   2   7
BRANCH   4  21
HETATM   21  O   UNK N   1      18.833  14.267   2.385  0.00  0.00    -0.391 OA
HETATM   22  H   UNK N   1      17.865  14.200   2.386  0.00  0.00     0.210 HD
ENDBRANCH   4  21
BRANCH   3  23
HETATM   23  O   UNK N   1      19.087  12.881   4.708  0.00  0.00    -0.391 OA
HETATM   24  H   UNK N   1      18.708  12.537   5.531  0.00  0.00     0.210 HD
ENDBRANCH   3  23
BRANCH   1  25
HETATM   25  C   UNK N   1      19.592  15.981   6.403  0.00  0.00     0.208 C 
BRANCH  25  26
HETATM   26  O   UNK N   1      20.734  15.343   6.889  0.00  0.00    -0.295 OA
BRANCH  26  27
HETATM   27  P   UNK N   1      20.543  15.357   8.624  0.00  0.00     0.390 P 
HETATM   28  O   UNK N   1      19.295  16.148   8.151  0.00  0.00    -0.632 OA
BRANCH  27  29
HETATM   29  O   UNK N   1      19.236  14.575   9.454  0.00  0.00    -0.307 OA
HETATM   30  H   UNK N   1      18.312  14.496   9.169  0.00  0.00     0.222 HD
ENDBRANCH  27  29
BRANCH  27  31
HETATM   31  O   UNK N   1      20.336  13.691   8.149  0.00  0.00    -0.307 OA
HETATM   32  H   UNK N   1      20.015  13.097   7.452  0.00  0.00     0.222 HD
ENDBRANCH  27  31
ENDBRANCH  26  27
ENDBRANCH  25  26
ENDBRANCH   1  25
TORSDOF 9
ENDMDL
MODEL 2
REMARK VINA RESULT:      -6.9     17.286     19.081
REMARK  9 active torsions:
REMARK  status: ('A' for Active; 'I' for Inactive)
REMARK    1  A    between atoms: C_5  and  C_2 
REMARK    2  A    between atoms: O_24  and  C_2 
REMARK    3  A    between atoms: C_7  and  C_4 
REMARK    4  A    between atoms: C_9  and  O_18 
REMARK    5  A    between atoms: C_10  and  O_19 
REMARK    6  A    between atoms: O_20  and  C_11 
REMARK    7  A    between atoms: P_25  and  O_21 
REMARK    8  A    between atoms: P_25  and  O_22 
REMARK    9  A    between atoms: P_25  and  O_24 
ROOT
HETATM    1  C   UNK N   1      36.409  15.650  10.639  0.00  0.00     0.133 C 
HETATM    2  C   UNK N   1      35.920  14.056  12.198  0.00  0.00     0.145 C 
HETATM    3  C   UNK N   1      36.443  14.248   9.968  0.00  0.00     0.173 C 
HETATM    4  C   UNK N   1      36.675  13.285  11.139  0.00  0.00     0.175 C 
HETATM    5  N   UNK N   1      36.469  15.400  12.075  0.00  0.00    -0.402 N 
HETATM    6  H   UNK N   1      36.812  16.016  12.813  0.00  0.00     0.154 HD
ENDROOT
BRANCH   2   7
HETATM    7  C   UNK N   1      35.919  13.624  13.625  0.00  0.00     0.011 A 
HETATM    8  C   UNK N   1      36.609  14.120  14.729  0.00  0.00     0.100 A 
HETATM    9  N   UNK N   1      36.315  13.356  15.821  0.00  0.00    -0.360 N 
HETATM   10  C   UNK N   1      35.464  12.405  15.389  0.00  0.00     0.111 A 
HETATM   11  H   UNK N   1      36.656  13.475  16.737  0.00  0.00     0.165 HD
HETATM   12  C   UNK N   1      35.207  12.548  14.075  0.00  0.00     0.074 A 
HETATM   13  C   UNK N   1      34.873  11.362  16.092  0.00  0.00     0.170 A 
HETATM   14  N   UNK N   1      34.389  11.711  13.392  0.00  0.00    -0.350 N 
HETATM   15  C   UNK N   1      33.799  10.685  14.074  0.00  0.00     0.183 A 
ATOM     16  HN  UNK N   1      34.218  11.845  12.396  1.00  0.00     0.166 HD
HETATM   17  N   UNK N   1      34.042  10.514  15.413  0.00  0.00    -0.331 N 
ATOM     18  HN  UNK N   1      33.597   9.743  15.911  1.00  0.00     0.168 HD
BRANCH  13  19
HETATM   19  O   UNK N   1      35.110  11.180  17.401  0.00  0.00    -0.344 OA
HETATM   20  H   UNK N   1      34.615  11.658  18.038  0.00  0.00     0.219 HD
ENDBRANCH  13  19
ENDBRANCH   2   7
BRANCH   4  21
HETATM   21  O   UNK N   1      38.034  13.236  11.475  0.00  0.00    -0.391 OA
HETATM   22  H   UNK N   1      38.727  13.645  12.018  0.00  0.00     0.210 HD
ENDBRANCH   4  21
BRANCH   3  23
HETATM   23  O   UNK N   1      37.429  14.137   8.985  0.00  0.00    -0.391 OA
HETATM   24  H   UNK N   1      38.317  14.512   9.082  0.00  0.00     0.210 HD
ENDBRANCH   3  23
BRANCH   1  25
HETATM   25  C   UNK N   1      35.077  16.379  10.460  0.00  0.00     0.208 C 
BRANCH  25  26
HETATM   26  O   UNK N   1      35.160  17.647   9.881  0.00  0.00    -0.295 OA
BRANCH  26  27
HETATM   27  P   UNK N   1      34.646  17.413   8.229  0.00  0.00     0.390 P 
HETATM   28  O   UNK N   1      33.323  17.217   9.015  0.00  0.00    -0.632 OA
BRANCH  27  29
HETATM   29  O   UNK N   1      33.536  18.464   7.409  0.00  0.00    -0.307 OA
HETATM   30  H   UNK N   1      33.742  19.247   6.874  0.00  0.00     0.222 HD
ENDBRANCH  27  29
BRANCH  27  31
HETATM   31  O   UNK N   1      35.094  19.095   8.340  0.00  0.00    -0.307 OA
HETATM   32  H   UNK N   1      35.500  19.843   7.874  0.00  0.00     0.222 HD
ENDBRANCH  27  31
ENDBRANCH  26  27
ENDBRANCH  25  26
ENDBRANCH   1  25
TORSDOF 9
ENDMDL
MODEL 3
REMARK VINA RESULT:      -6.7     14.195     15.568
REMARK  9 active torsions:
REMARK  status: ('A' for Active; 'I' for Inactive)
REMARK    1  A    between atoms: C_5  and  C_2 
REMARK    2  A    between atoms: O_24  and  C_2 
REMARK    3  A    between atoms: C_7  and  C_4 
REMARK    4  A    between atoms: C_9  and  O_18 
REMARK    5  A    between atoms: C_10  and  O_19 
REMARK    6  A    between atoms: O_20  and  C_11 
REMARK    7  A    between atoms: P_25  and  O_21 
REMARK    8  A    between atoms: P_25  and  O_22 
REMARK    9  A    between atoms: P_25  and  O_24 
ROOT
HETATM    1  C   UNK N   1      32.378  17.870   7.978  0.00  0.00     0.133 C 
HETATM    2  C   UNK N   1      33.591  16.232   9.005  0.00  0.00     0.145 C 
HETATM    3  C   UNK N   1      32.506  16.651   7.023  0.00  0.00     0.173 C 
HETATM    4  C   UNK N   1      33.747  15.909   7.536  0.00  0.00     0.175 C 
HETATM    5  N   UNK N   1      33.400  17.676   9.002  0.00  0.00    -0.402 N 
HETATM    6  H   UNK N   1      33.865  18.381   9.575  0.00  0.00     0.154 HD
ENDROOT
BRANCH   2   7
HETATM    7  C   UNK N   1      34.633  15.849  10.001  0.00  0.00     0.011 A 
HETATM    8  C   UNK N   1      35.580  16.618  10.673  0.00  0.00     0.100 A 
HETATM    9  N   UNK N   1      36.348  15.803  11.453  0.00  0.00    -0.360 N 
HETATM   10  C   UNK N   1      35.881  14.554  11.255  0.00  0.00     0.111 A 
HETATM   11  H   UNK N   1      37.092  16.072  12.039  0.00  0.00     0.165 HD
HETATM   12  C   UNK N   1      34.848  14.558  10.391  0.00  0.00     0.074 A 
HETATM   13  C   UNK N   1      36.321  13.351  11.792  0.00  0.00     0.170 A 
HETATM   14  N   UNK N   1      34.205  13.426  10.012  0.00  0.00    -0.350 N 
HETATM   15  C   UNK N   1      34.626  12.237  10.538  0.00  0.00     0.183 A 
ATOM     16  HN  UNK N   1      33.429  13.462   9.353  1.00  0.00     0.166 HD
HETATM   17  N   UNK N   1      35.677  12.204  11.420  0.00  0.00    -0.331 N 
ATOM     18  HN  UNK N   1      35.982  11.309  11.803  1.00  0.00     0.168 HD
BRANCH  13  19
HETATM   19  O   UNK N   1      37.353  13.305  12.649  0.00  0.00    -0.344 OA
HETATM   20  H   UNK N   1      37.218  13.015  13.531  0.00  0.00     0.219 HD
ENDBRANCH  13  19
ENDBRANCH   2   7
BRANCH   4  21
HETATM   21  O   UNK N   1      34.916  16.506   7.046  0.00  0.00    -0.391 OA
HETATM   22  H   UNK N   1      35.674  17.065   7.281  0.00  0.00     0.210 HD
ENDBRANCH   4  21
BRANCH   3  23
HETATM   23  O   UNK N   1      32.624  17.019   5.680  0.00  0.00    -0.391 OA
HETATM   24  H   UNK N   1      32.144  16.573   4.965  0.00  0.00     0.210 HD
ENDBRANCH   3  23
BRANCH   1  25
HETATM   25  C   UNK N   1      31.073  17.886   8.775  0.00  0.00     0.208 C 
BRANCH  25  26
HETATM   26  O   UNK N   1      30.011  17.188   8.199  0.00  0.00    -0.295 OA
BRANCH  26  27
HETATM   27  P   UNK N   1      28.691  18.330   8.179  0.00  0.00     0.390 P 
HETATM   28  O   UNK N   1      27.964  16.984   7.919  0.00  0.00    -0.632 OA
BRANCH  27  29
HETATM   29  O   UNK N   1      27.407  18.338   9.346  0.00  0.00    -0.307 OA
HETATM   30  H   UNK N   1      27.163  19.050   9.957  0.00  0.00     0.222 HD
ENDBRANCH  27  29
BRANCH  27  31
HETATM   31  O   UNK N   1      29.268  18.320   9.825  0.00  0.00    -0.307 OA
HETATM   32  H   UNK N   1      29.986  18.039  10.414  0.00  0.00     0.222 HD
ENDBRANCH  27  31
ENDBRANCH  26  27
ENDBRANCH  25  26
ENDBRANCH   1  25
TORSDOF 9
ENDMDL
MODEL 4
REMARK VINA RESULT:      -6.7     13.094     13.833
REMARK  9 active torsions:
REMARK  status: ('A' for Active; 'I' for Inactive)
REMARK    1  A    between atoms: C_5  and  C_2 
REMARK    2  A    between atoms: O_24  and  C_2 
REMARK    3  A    between atoms: C_7  and  C_4 
REMARK    4  A    between atoms: C_9  and  O_18 
REMARK    5  A    between atoms: C_10  and  O_19 
REMARK    6  A    between atoms: O_20  and  C_11 
REMARK    7  A    between atoms: P_25  and  O_21 
REMARK    8  A    between atoms: P_25  and  O_22 
REMARK    9  A    between atoms: P_25  and  O_24 
ROOT
HETATM    1  C   UNK N   1      34.587  15.741   9.001  0.00  0.00     0.133 C 
HETATM    2  C   UNK N   1      32.934  16.700   7.752  0.00  0.00     0.145 C 
HETATM    3  C   UNK N   1      34.384  17.212   9.460  0.00  0.00     0.173 C 
HETATM    4  C   UNK N   1      33.725  17.888   8.251  0.00  0.00     0.175 C 
HETATM    5  N   UNK N   1      33.935  15.643   7.699  0.00  0.00    -0.402 N 
HETATM    6  H   UNK N   1      34.132  14.992   6.938  0.00  0.00     0.154 HD
ENDROOT
BRANCH   2   7
HETATM    7  C   UNK N   1      32.169  16.756   6.473  0.00  0.00     0.011 A 
HETATM    8  C   UNK N   1      32.558  16.480   5.164  0.00  0.00     0.100 A 
HETATM    9  N   UNK N   1      31.510  16.724   4.325  0.00  0.00    -0.360 N 
HETATM   10  C   UNK N   1      30.499  17.148   5.108  0.00  0.00     0.111 A 
HETATM   11  H   UNK N   1      31.497  16.613   3.346  0.00  0.00     0.165 HD
HETATM   12  C   UNK N   1      30.870  17.170   6.403  0.00  0.00     0.074 A 
HETATM   13  C   UNK N   1      29.216  17.546   4.756  0.00  0.00     0.170 A 
HETATM   14  N   UNK N   1      30.039  17.570   7.396  0.00  0.00    -0.350 N 
HETATM   15  C   UNK N   1      28.773  17.960   7.062  0.00  0.00     0.183 A 
ATOM     16  HN  UNK N   1      30.351  17.580   8.366  1.00  0.00     0.166 HD
HETATM   17  N   UNK N   1      28.368  17.948   5.751  0.00  0.00    -0.331 N 
ATOM     18  HN  UNK N   1      27.421  18.243   5.515  1.00  0.00     0.168 HD
BRANCH  13  19
HETATM   19  O   UNK N   1      28.811  17.546   3.476  0.00  0.00    -0.344 OA
HETATM   20  H   UNK N   1      28.680  16.734   3.025  0.00  0.00     0.219 HD
ENDBRANCH  13  19
ENDBRANCH   2   7
BRANCH   4  21
HETATM   21  O   UNK N   1      34.689  18.244   7.300  0.00  0.00    -0.391 OA
HETATM   22  H   UNK N   1      34.969  18.938   6.682  0.00  0.00     0.210 HD
ENDBRANCH   4  21
BRANCH   3  23
HETATM   23  O   UNK N   1      35.576  17.837   9.835  0.00  0.00    -0.391 OA
HETATM   24  H   UNK N   1      35.660  18.797   9.937  0.00  0.00     0.210 HD
ENDBRANCH   3  23
BRANCH   1  25
HETATM   25  C   UNK N   1      33.829  14.725   9.856  0.00  0.00     0.208 C 
BRANCH  25  26
HETATM   26  O   UNK N   1      33.985  14.868  11.236  0.00  0.00    -0.295 OA
BRANCH  26  27
HETATM   27  P   UNK N   1      35.534  14.140  11.583  0.00  0.00     0.390 P 
HETATM   28  O   UNK N   1      35.730  15.591  12.097  0.00  0.00    -0.632 OA
BRANCH  27  29
HETATM   29  O   UNK N   1      36.152  13.914  13.188  0.00  0.00    -0.307 OA
HETATM   30  H   UNK N   1      36.890  14.380  13.612  0.00  0.00     0.222 HD
ENDBRANCH  27  29
BRANCH  27  31
HETATM   31  O   UNK N   1      34.400  13.343  12.642  0.00  0.00    -0.307 OA
HETATM   32  H   UNK N   1      33.464  13.251  12.882  0.00  0.00     0.222 HD
ENDBRANCH  27  31
ENDBRANCH  26  27
ENDBRANCH  25  26
ENDBRANCH   1  25
TORSDOF 9
ENDMDL
MODEL 5
REMARK VINA RESULT:      -6.4     15.652     16.489
REMARK  9 active torsions:
REMARK  status: ('A' for Active; 'I' for Inactive)
REMARK    1  A    between atoms: C_5  and  C_2 
REMARK    2  A    between atoms: O_24  and  C_2 
REMARK    3  A    between atoms: C_7  and  C_4 
REMARK    4  A    between atoms: C_9  and  O_18 
REMARK    5  A    between atoms: C_10  and  O_19 
REMARK    6  A    between atoms: O_20  and  C_11 
REMARK    7  A    between atoms: P_25  and  O_21 
REMARK    8  A    between atoms: P_25  and  O_22 
REMARK    9  A    between atoms: P_25  and  O_24 
ROOT
HETATM    1  C   UNK N   1      36.273  13.322  11.877  0.00  0.00     0.133 C 
HETATM    2  C   UNK N   1      35.290  14.654  10.305  0.00  0.00     0.145 C 
HETATM    3  C   UNK N   1      35.911  14.691  12.517  0.00  0.00     0.173 C 
HETATM    4  C   UNK N   1      35.815  15.645  11.319  0.00  0.00     0.175 C 
HETATM    5  N   UNK N   1      36.214  13.535  10.435  0.00  0.00    -0.402 N 
HETATM    6  H   UNK N   1      36.702  13.025   9.697  0.00  0.00     0.154 HD
ENDROOT
BRANCH   2   7
HETATM    7  C   UNK N   1      35.119  15.024   8.871  0.00  0.00     0.011 A 
HETATM    8  C   UNK N   1      35.790  14.587   7.730  0.00  0.00     0.100 A 
HETATM    9  N   UNK N   1      35.307  15.256   6.643  0.00  0.00    -0.360 N 
HETATM   10  C   UNK N   1      34.361  16.093   7.113  0.00  0.00     0.111 A 
HETATM   11  H   UNK N   1      35.592  15.150   5.707  0.00  0.00     0.165 HD
HETATM   12  C   UNK N   1      34.227  15.967   8.448  0.00  0.00     0.074 A 
HETATM   13  C   UNK N   1      33.574  17.011   6.430  0.00  0.00     0.170 A 
HETATM   14  N   UNK N   1      33.349  16.705   9.169  0.00  0.00    -0.350 N 
HETATM   15  C   UNK N   1      32.566  17.608   8.507  0.00  0.00     0.183 A 
ATOM     16  HN  UNK N   1      33.274  16.589  10.179  1.00  0.00     0.166 HD
HETATM   17  N   UNK N   1      32.681  17.758   7.147  0.00  0.00    -0.331 N 
ATOM     18  HN  UNK N   1      32.093  18.437   6.665  1.00  0.00     0.168 HD
BRANCH  13  19
HETATM   19  O   UNK N   1      33.684  17.172   5.101  0.00  0.00    -0.344 OA
HETATM   20  H   UNK N   1      33.279  16.558   4.519  0.00  0.00     0.219 HD
ENDBRANCH  13  19
ENDBRANCH   2   7
BRANCH   4  21
HETATM   21  O   UNK N   1      37.088  16.081  10.932  0.00  0.00    -0.391 OA
HETATM   22  H   UNK N   1      37.930  15.804  10.535  0.00  0.00     0.210 HD
ENDBRANCH   4  21
BRANCH   3  23
HETATM   23  O   UNK N   1      36.849  15.118  13.461  0.00  0.00    -0.391 OA
HETATM   24  H   UNK N   1      37.777  14.837  13.449  0.00  0.00     0.210 HD
ENDBRANCH   3  23
BRANCH   1  25
HETATM   25  C   UNK N   1      35.221  12.239  12.120  0.00  0.00     0.208 C 
BRANCH  25  26
HETATM   26  O   UNK N   1      34.354  12.474  13.188  0.00  0.00    -0.295 OA
BRANCH  26  27
HETATM   27  P   UNK N   1      34.917  11.413  14.456  0.00  0.00     0.390 P 
HETATM   28  O   UNK N   1      34.161  12.507  15.256  0.00  0.00    -0.632 OA
BRANCH  27  29
HETATM   29  O   UNK N   1      33.860  10.498  15.483  0.00  0.00    -0.307 OA
HETATM   30  H   UNK N   1      34.102   9.936  16.237  0.00  0.00     0.222 HD
ENDBRANCH  27  29
BRANCH  27  31
HETATM   31  O   UNK N   1      33.737  10.486  13.566  0.00  0.00    -0.307 OA
HETATM   32  H   UNK N   1      33.025  10.527  12.908  0.00  0.00     0.222 HD
ENDBRANCH  27  31
ENDBRANCH  26  27
ENDBRANCH  25  26
ENDBRANCH   1  25
TORSDOF 9
ENDMDL
MODEL 6
REMARK VINA RESULT:      -6.4     12.772     13.552
REMARK  9 active torsions:
REMARK  status: ('A' for Active; 'I' for Inactive)
REMARK    1  A    between atoms: C_5  and  C_2 
REMARK    2  A    between atoms: O_24  and  C_2 
REMARK    3  A    between atoms: C_7  and  C_4 
REMARK    4  A    between atoms: C_9  and  O_18 
REMARK    5  A    between atoms: C_10  and  O_19 
REMARK    6  A    between atoms: O_20  and  C_11 
REMARK    7  A    between atoms: P_25  and  O_21 
REMARK    8  A    between atoms: P_25  and  O_22 
REMARK    9  A    between atoms: P_25  and  O_24 
ROOT
HETATM    1  C   UNK N   1      34.067  14.727   7.604  0.00  0.00     0.133 C 
HETATM    2  C   UNK N   1      32.693  16.481   7.109  0.00  0.00     0.145 C 
HETATM    3  C   UNK N   1      34.885  15.832   6.880  0.00  0.00     0.173 C 
HETATM    4  C   UNK N   1      33.825  16.638   6.119  0.00  0.00     0.175 C 
HETATM    5  N   UNK N   1      32.666  15.045   7.348  0.00  0.00    -0.402 N 
HETATM    6  H   UNK N   1      31.863  14.414   7.338  0.00  0.00     0.154 HD
ENDROOT
BRANCH   2   7
HETATM    7  C   UNK N   1      31.321  16.984   6.810  0.00  0.00     0.011 A 
HETATM    8  C   UNK N   1      30.627  17.079   5.605  0.00  0.00     0.100 A 
HETATM    9  N   UNK N   1      29.410  17.654   5.834  0.00  0.00    -0.360 N 
HETATM   10  C   UNK N   1      29.366  17.913   7.156  0.00  0.00     0.111 A 
HETATM   11  H   UNK N   1      28.709  17.842   5.169  0.00  0.00     0.165 HD
HETATM   12  C   UNK N   1      30.500  17.514   7.764  0.00  0.00     0.074 A 
HETATM   13  C   UNK N   1      28.361  18.511   7.906  0.00  0.00     0.170 A 
HETATM   14  N   UNK N   1      30.713  17.672   9.092  0.00  0.00    -0.350 N 
HETATM   15  C   UNK N   1      29.730  18.254   9.841  0.00  0.00     0.183 A 
ATOM     16  HN  UNK N   1      31.585  17.363   9.522  1.00  0.00     0.166 HD
HETATM   17  N   UNK N   1      28.564  18.670   9.248  0.00  0.00    -0.331 N 
ATOM     18  HN  UNK N   1      27.839  19.105   9.818  1.00  0.00     0.168 HD
BRANCH  13  19
HETATM   19  O   UNK N   1      27.219  18.929   7.336  0.00  0.00    -0.344 OA
HETATM   20  H   UNK N   1      27.203  19.147   6.424  0.00  0.00     0.219 HD
ENDBRANCH  13  19
ENDBRANCH   2   7
BRANCH   4  21
HETATM   21  O   UNK N   1      33.489  16.000   4.919  0.00  0.00    -0.391 OA
HETATM   22  H   UNK N   1      33.843  15.500   4.166  0.00  0.00     0.210 HD
ENDBRANCH   4  21
BRANCH   3  23
HETATM   23  O   UNK N   1      35.870  15.317   6.034  0.00  0.00    -0.391 OA
HETATM   24  H   UNK N   1      36.604  15.848   5.691  0.00  0.00     0.210 HD
ENDBRANCH   3  23
BRANCH   1  25
HETATM   25  C   UNK N   1      34.173  14.790   9.129  0.00  0.00     0.208 C 
BRANCH  25  26
HETATM   26  O   UNK N   1      35.467  14.702   9.644  0.00  0.00    -0.295 OA
BRANCH  26  27
HETATM   27  P   UNK N   1      35.386  15.516  11.186  0.00  0.00     0.390 P 
HETATM   28  O   UNK N   1      36.598  16.211  10.512  0.00  0.00    -0.632 OA
BRANCH  27  29
HETATM   29  O   UNK N   1      35.029  17.204  11.364  0.00  0.00    -0.307 OA
HETATM   30  H   UNK N   1      34.234  17.607  11.749  0.00  0.00     0.222 HD
ENDBRANCH  27  29
BRANCH  27  31
HETATM   31  O   UNK N   1      33.945  16.001  10.330  0.00  0.00    -0.307 OA
HETATM   32  H   UNK N   1      33.356  16.743  10.120  0.00  0.00     0.222 HD
ENDBRANCH  27  31
ENDBRANCH  26  27
ENDBRANCH  25  26
ENDBRANCH   1  25
TORSDOF 9
ENDMDL
MODEL 7
REMARK VINA RESULT:      -6.2     13.549     15.568
REMARK  9 active torsions:
REMARK  status: ('A' for Active; 'I' for Inactive)
REMARK    1  A    between atoms: C_5  and  C_2 
REMARK    2  A    between atoms: O_24  and  C_2 
REMARK    3  A    between atoms: C_7  and  C_4 
REMARK    4  A    between atoms: C_9  and  O_18 
REMARK    5  A    between atoms: C_10  and  O_19 
REMARK    6  A    between atoms: O_20  and  C_11 
REMARK    7  A    between atoms: P_25  and  O_21 
REMARK    8  A    between atoms: P_25  and  O_22 
REMARK    9  A    between atoms: P_25  and  O_24 
ROOT
HETATM    1  C   UNK N   1      26.303  25.531  -5.615  0.00  0.00     0.133 C 
HETATM    2  C   UNK N   1      28.306  24.726  -4.875  0.00  0.00     0.145 C 
HETATM    3  C   UNK N   1      27.426  26.547  -5.964  0.00  0.00     0.173 C 
HETATM    4  C   UNK N   1      28.546  26.215  -4.970  0.00  0.00     0.175 C 
HETATM    5  N   UNK N   1      26.876  24.642  -4.610  0.00  0.00    -0.402 N 
HETATM    6  H   UNK N   1      26.393  24.096  -3.896  0.00  0.00     0.154 HD
ENDROOT
BRANCH   2   7
HETATM    7  C   UNK N   1      29.064  23.875  -3.912  0.00  0.00     0.011 A 
HETATM    8  C   UNK N   1      28.769  23.491  -2.605  0.00  0.00     0.100 A 
HETATM    9  N   UNK N   1      29.799  22.744  -2.114  0.00  0.00    -0.360 N 
HETATM   10  C   UNK N   1      30.712  22.678  -3.103  0.00  0.00     0.111 A 
HETATM   11  H   UNK N   1      29.863  22.337  -1.220  0.00  0.00     0.165 HD
HETATM   12  C   UNK N   1      30.290  23.345  -4.195  0.00  0.00     0.074 A 
HETATM   13  C   UNK N   1      31.954  22.054  -3.120  0.00  0.00     0.170 A 
HETATM   14  N   UNK N   1      31.030  23.442  -5.326  0.00  0.00    -0.350 N 
HETATM   15  C   UNK N   1      32.250  22.829  -5.355  0.00  0.00     0.183 A 
ATOM     16  HN  UNK N   1      30.683  23.958  -6.134  1.00  0.00     0.166 HD
HETATM   17  N   UNK N   1      32.706  22.142  -4.258  0.00  0.00    -0.331 N 
ATOM     18  HN  UNK N   1      33.620  21.691  -4.292  1.00  0.00     0.168 HD
BRANCH  13  19
HETATM   19  O   UNK N   1      32.414  21.387  -2.050  0.00  0.00    -0.344 OA
HETATM   20  H   UNK N   1      33.336  21.259  -1.937  0.00  0.00     0.219 HD
ENDBRANCH  13  19
ENDBRANCH   2   7
BRANCH   4  21
HETATM   21  O   UNK N   1      28.294  26.811  -3.727  0.00  0.00    -0.391 OA
HETATM   22  H   UNK N   1      28.374  26.695  -2.767  0.00  0.00     0.210 HD
ENDBRANCH   4  21
BRANCH   3  23
HETATM   23  O   UNK N   1      27.007  27.877  -5.869  0.00  0.00    -0.391 OA
HETATM   24  H   UNK N   1      26.203  28.146  -5.399  0.00  0.00     0.210 HD
ENDBRANCH   3  23
BRANCH   1  25
HETATM   25  C   UNK N   1      25.955  24.587  -6.767  0.00  0.00     0.208 C 
BRANCH  25  26
HETATM   26  O   UNK N   1      25.116  23.522  -6.438  0.00  0.00    -0.295 OA
BRANCH  26  27
HETATM   27  P   UNK N   1      25.521  22.268  -7.582  0.00  0.00     0.390 P 
HETATM   28  O   UNK N   1      24.417  21.589  -6.730  0.00  0.00    -0.632 OA
BRANCH  27  29
HETATM   29  O   UNK N   1      24.416  21.658  -8.772  0.00  0.00    -0.307 OA
HETATM   30  H   UNK N   1      23.779  22.160  -9.305  0.00  0.00     0.222 HD
ENDBRANCH  27  29
BRANCH  27  31
HETATM   31  O   UNK N   1      24.773  23.531  -8.525  0.00  0.00    -0.307 OA
HETATM   32  H   UNK N   1      24.328  24.392  -8.490  0.00  0.00     0.222 HD
ENDBRANCH  27  31
ENDBRANCH  26  27
ENDBRANCH  25  26
ENDBRANCH   1  25
TORSDOF 9
ENDMDL
MODEL 8
REMARK VINA RESULT:      -6.2      4.250      7.760
REMARK  9 active torsions:
REMARK  status: ('A' for Active; 'I' for Inactive)
REMARK    1  A    between atoms: C_5  and  C_2 
REMARK    2  A    between atoms: O_24  and  C_2 
REMARK    3  A    between atoms: C_7  and  C_4 
REMARK    4  A    between atoms: C_9  and  O_18 
REMARK    5  A    between atoms: C_10  and  O_19 
REMARK    6  A    between atoms: O_20  and  C_11 
REMARK    7  A    between atoms: P_25  and  O_21 
REMARK    8  A    between atoms: P_25  and  O_22 
REMARK    9  A    between atoms: P_25  and  O_24 
ROOT
HETATM    1  C   UNK N   1      23.612  17.975   4.768  0.00  0.00     0.133 C 
HETATM    2  C   UNK N   1      22.553  16.279   5.868  0.00  0.00     0.145 C 
HETATM    3  C   UNK N   1      24.288  16.625   4.402  0.00  0.00     0.173 C 
HETATM    4  C   UNK N   1      23.916  15.698   5.567  0.00  0.00     0.175 C 
HETATM    5  N   UNK N   1      22.821  17.707   5.965  0.00  0.00    -0.402 N 
HETATM    6  H   UNK N   1      22.529  18.361   6.693  0.00  0.00     0.154 HD
ENDROOT
BRANCH   2   7
HETATM    7  C   UNK N   1      21.752  15.819   7.039  0.00  0.00     0.011 A 
HETATM    8  C   UNK N   1      20.831  16.496   7.837  0.00  0.00     0.100 A 
HETATM    9  N   UNK N   1      20.395  15.661   8.824  0.00  0.00    -0.360 N 
HETATM   10  C   UNK N   1      21.044  14.495   8.636  0.00  0.00     0.111 A 
HETATM   11  H   UNK N   1      19.740  15.868   9.529  0.00  0.00     0.165 HD
HETATM   12  C   UNK N   1      21.861  14.565   7.567  0.00  0.00     0.074 A 
HETATM   13  C   UNK N   1      20.980  13.319   9.374  0.00  0.00     0.170 A 
HETATM   14  N   UNK N   1      22.638  13.528   7.170  0.00  0.00    -0.350 N 
HETATM   15  C   UNK N   1      22.580  12.365   7.884  0.00  0.00     0.183 A 
ATOM     16  HN  UNK N   1      23.249  13.614   6.358  1.00  0.00     0.166 HD
HETATM   17  N   UNK N   1      21.757  12.266   8.978  0.00  0.00    -0.331 N 
ATOM     18  HN  UNK N   1      21.724  11.393   9.504  1.00  0.00     0.168 HD
BRANCH  13  19
HETATM   19  O   UNK N   1      20.185  13.213  10.450  0.00  0.00    -0.344 OA
HETATM   20  H   UNK N   1      20.216  13.866  11.122  0.00  0.00     0.219 HD
ENDBRANCH  13  19
ENDBRANCH   2   7
BRANCH   4  21
HETATM   21  O   UNK N   1      24.767  15.911   6.658  0.00  0.00    -0.391 OA
HETATM   22  H   UNK N   1      25.686  15.847   6.966  0.00  0.00     0.210 HD
ENDBRANCH   4  21
BRANCH   3  23
HETATM   23  O   UNK N   1      25.671  16.735   4.232  0.00  0.00    -0.391 OA
HETATM   24  H   UNK N   1      26.233  15.989   3.972  0.00  0.00     0.210 HD
ENDBRANCH   3  23
BRANCH   1  25
HETATM   25  C   UNK N   1      22.568  18.431   3.747  0.00  0.00     0.208 C 
BRANCH  25  26
HETATM   26  O   UNK N   1      21.818  19.549   4.116  0.00  0.00    -0.295 OA
BRANCH  26  27
HETATM   27  P   UNK N   1      21.116  20.121   2.623  0.00  0.00     0.390 P 
HETATM   28  O   UNK N   1      20.197  20.774   3.689  0.00  0.00    -0.632 OA
BRANCH  27  29
HETATM   29  O   UNK N   1      21.083  21.791   2.154  0.00  0.00    -0.307 OA
HETATM   30  H   UNK N   1      20.819  22.163   1.298  0.00  0.00     0.222 HD
ENDBRANCH  27  29
BRANCH  27  31
HETATM   31  O   UNK N   1      22.681  20.886   2.721  0.00  0.00    -0.307 OA
HETATM   32  H   UNK N   1      23.587  20.890   2.375  0.00  0.00     0.222 HD
ENDBRANCH  27  31
ENDBRANCH  26  27
ENDBRANCH  25  26
ENDBRANCH   1  25
TORSDOF 9
ENDMDL
MODEL 9
REMARK VINA RESULT:      -6.2     11.174     12.278
REMARK  9 active torsions:
REMARK  status: ('A' for Active; 'I' for Inactive)
REMARK    1  A    between atoms: C_5  and  C_2 
REMARK    2  A    between atoms: O_24  and  C_2 
REMARK    3  A    between atoms: C_7  and  C_4 
REMARK    4  A    between atoms: C_9  and  O_18 
REMARK    5  A    between atoms: C_10  and  O_19 
REMARK    6  A    between atoms: O_20  and  C_11 
REMARK    7  A    between atoms: P_25  and  O_21 
REMARK    8  A    between atoms: P_25  and  O_22 
REMARK    9  A    between atoms: P_25  and  O_24 
ROOT
HETATM    1  C   UNK N   1      28.175  17.158   7.391  0.00  0.00     0.133 C 
HETATM    2  C   UNK N   1      30.400  17.643   7.547  0.00  0.00     0.145 C 
HETATM    3  C   UNK N   1      28.368  18.389   8.319  0.00  0.00     0.173 C 
HETATM    4  C   UNK N   1      29.821  18.267   8.796  0.00  0.00     0.175 C 
HETATM    5  N   UNK N   1      29.491  16.536   7.285  0.00  0.00    -0.402 N 
HETATM    6  H   UNK N   1      29.718  15.562   7.078  0.00  0.00     0.154 HD
ENDROOT
BRANCH   2   7
HETATM    7  C   UNK N   1      31.816  17.178   7.493  0.00  0.00     0.011 A 
HETATM    8  C   UNK N   1      32.828  17.223   8.449  0.00  0.00     0.100 A 
HETATM    9  N   UNK N   1      33.974  16.714   7.912  0.00  0.00    -0.360 N 
HETATM   10  C   UNK N   1      33.669  16.369   6.646  0.00  0.00     0.111 A 
HETATM   11  H   UNK N   1      34.847  16.619   8.359  0.00  0.00     0.165 HD
HETATM   12  C   UNK N   1      32.376  16.633   6.373  0.00  0.00     0.074 A 
HETATM   13  C   UNK N   1      34.479  15.822   5.659  0.00  0.00     0.170 A 
HETATM   14  N   UNK N   1      31.818  16.390   5.163  0.00  0.00    -0.350 N 
HETATM   15  C   UNK N   1      32.604  15.848   4.185  0.00  0.00     0.183 A 
ATOM     16  HN  UNK N   1      30.838  16.605   4.987  1.00  0.00     0.166 HD
HETATM   17  N   UNK N   1      33.924  15.569   4.435  0.00  0.00    -0.331 N 
ATOM     18  HN  UNK N   1      34.501  15.166   3.696  1.00  0.00     0.168 HD
BRANCH  13  19
HETATM   19  O   UNK N   1      35.774  15.552   5.889  0.00  0.00    -0.344 OA
HETATM   20  H   UNK N   1      36.439  16.122   5.552  0.00  0.00     0.219 HD
ENDBRANCH  13  19
ENDBRANCH   2   7
BRANCH   4  21
HETATM   21  O   UNK N   1      29.916  17.361   9.860  0.00  0.00    -0.391 OA
HETATM   22  H   UNK N   1      30.534  16.880  10.433  0.00  0.00     0.210 HD
ENDBRANCH   4  21
BRANCH   3  23
HETATM   23  O   UNK N   1      27.460  18.420   9.381  0.00  0.00    -0.391 OA
HETATM   24  H   UNK N   1      27.174  17.625   9.856  0.00  0.00     0.210 HD
ENDBRANCH   3  23
BRANCH   1  25
HETATM   25  C   UNK N   1      27.840  17.530   5.946  0.00  0.00     0.208 C 
BRANCH  25  26
HETATM   26  O   UNK N   1      27.238  16.522   5.192  0.00  0.00    -0.295 OA
BRANCH  26  27
HETATM   27  P   UNK N   1      27.864  16.744   3.577  0.00  0.00     0.390 P 
HETATM   28  O   UNK N   1      27.974  18.173   4.171  0.00  0.00    -0.632 OA
BRANCH  27  29
HETATM   29  O   UNK N   1      29.504  17.193   3.235  0.00  0.00    -0.307 OA
HETATM   30  H   UNK N   1      30.136  16.740   2.654  0.00  0.00     0.222 HD
ENDBRANCH  27  29
BRANCH  27  31
HETATM   31  O   UNK N   1      29.029  15.732   4.390  0.00  0.00    -0.307 OA
HETATM   32  H   UNK N   1      29.219  14.835   4.709  0.00  0.00     0.222 HD
ENDBRANCH  27  31
ENDBRANCH  26  27
ENDBRANCH  25  26
ENDBRANCH   1  25
TORSDOF 9
ENDMDL
