MODEL 1
REMARK VINA RESULT:      -5.6      0.000      0.000
REMARK  14 active torsions:
REMARK  status: ('A' for Active; 'I' for Inactive)
REMARK    1  A    between atoms: C_3  and  C_1 
REMARK    2  A    between atoms: O_8  and  C_1 
REMARK    3  A    between atoms: C_4  and  C_2 
REMARK    4  A    between atoms: O_15  and  C_2 
REMARK    5  A    between atoms: C_5  and  C_3 
REMARK    6  A    between atoms: C_3  and  N_7 
REMARK    7  A    between atoms: C_6  and  C_4 
REMARK    8  A    between atoms: C_4  and  O_9 
REMARK    9  A    between atoms: C_6  and  C_5 
REMARK   10  A    between atoms: C_5  and  O_10 
REMARK   11  A    between atoms: C_6  and  O_11 
REMARK   12  A    between atoms: P_16  and  O_12 
REMARK   13  A    between atoms: P_16  and  O_13 
REMARK   14  A    between atoms: P_16  and  O_15 
ROOT
HETATM    1  C   UNK N   1      35.385  14.617  11.897  0.00  0.00     0.179 C 
ENDROOT
BRANCH   1   2
HETATM    2  C   UNK N   1      35.917  15.283  10.606  0.00  0.00     0.173 C 
BRANCH   2   3
HETATM    3  C   UNK N   1      34.861  16.101   9.863  0.00  0.00     0.214 C 
BRANCH   3   4
HETATM    4  O   UNK N   1      35.265  17.415   9.611  0.00  0.00    -0.294 OA
BRANCH   4   5
HETATM    5  P   UNK N   1      34.124  17.966   8.415  0.00  0.00     0.390 P 
HETATM    6  O   UNK N   1      35.173  19.108   8.382  0.00  0.00    -0.632 OA
BRANCH   5   7
HETATM    7  O   UNK N   1      34.520  18.035   6.728  0.00  0.00    -0.307 OA
HETATM    8  H   UNK N   1      35.295  18.040   6.144  0.00  0.00     0.222 HD
ENDBRANCH   5   7
BRANCH   5   9
HETATM    9  O   UNK N   1      34.879  16.496   7.878  0.00  0.00    -0.307 OA
HETATM   10  H   UNK N   1      34.453  15.627   7.802  0.00  0.00     0.222 HD
ENDBRANCH   5   9
ENDBRANCH   4   5
ENDBRANCH   3   4
ENDBRANCH   2   3
BRANCH   2  11
HETATM   11  O   UNK N   1      37.020  16.092  10.886  0.00  0.00    -0.391 OA
HETATM   12  H   UNK N   1      37.954  15.842  10.812  0.00  0.00     0.210 HD
ENDBRANCH   2  11
ENDBRANCH   1   2
BRANCH   1  13
HETATM   13  C   UNK N   1      36.172  13.311  12.213  0.00  0.00     0.173 C 
BRANCH  13  14
HETATM   14  C   UNK N   1      35.964  12.753  13.644  0.00  0.00     0.129 C 
BRANCH  14  15
HETATM   15  C   UNK N   1      36.222  13.789  14.735  0.00  0.00     0.191 C 
BRANCH  15  16
HETATM   16  O   UNK N   1      37.570  13.797  15.102  0.00  0.00    -0.399 OA
HETATM   17  H   UNK N   1      37.874  13.686  16.017  0.00  0.00     0.209 HD
ENDBRANCH  15  16
ENDBRANCH  14  15
BRANCH  14  18
HETATM   18  N   UNK N   1      34.619  12.228  13.804  0.00  0.00    -0.422 N 
HETATM   19  H   UNK N   1      34.302  11.370  13.352  0.00  0.00     0.150 HD
HETATM   20  H   UNK N   1      33.962  12.739  14.394  0.00  0.00     0.150 HD
ENDBRANCH  14  18
ENDBRANCH  13  14
BRANCH  13  21
HETATM   21  O   UNK N   1      37.538  13.501  11.992  0.00  0.00    -0.391 OA
HETATM   22  H   UNK N   1      38.203  12.842  12.245  0.00  0.00     0.210 HD
ENDBRANCH  13  21
ENDBRANCH   1  13
BRANCH   1  23
HETATM   23  O   UNK N   1      34.035  14.305  11.718  0.00  0.00    -0.390 OA
HETATM   24  H   UNK N   1      33.590  13.559  12.150  0.00  0.00     0.210 HD
ENDBRANCH   1  23
TORSDOF 14
ENDMDL
MODEL 2
REMARK VINA RESULT:      -5.4      3.030      6.193
REMARK  14 active torsions:
REMARK  status: ('A' for Active; 'I' for Inactive)
REMARK    1  A    between atoms: C_3  and  C_1 
REMARK    2  A    between atoms: O_8  and  C_1 
REMARK    3  A    between atoms: C_4  and  C_2 
REMARK    4  A    between atoms: O_15  and  C_2 
REMARK    5  A    between atoms: C_5  and  C_3 
REMARK    6  A    between atoms: C_3  and  N_7 
REMARK    7  A    between atoms: C_6  and  C_4 
REMARK    8  A    between atoms: C_4  and  O_9 
REMARK    9  A    between atoms: C_6  and  C_5 
REMARK   10  A    between atoms: C_5  and  O_10 
REMARK   11  A    between atoms: C_6  and  O_11 
REMARK   12  A    between atoms: P_16  and  O_12 
REMARK   13  A    between atoms: P_16  and  O_13 
REMARK   14  A    between atoms: P_16  and  O_15 
ROOT
HETATM    1  C   UNK N   1      34.695  15.496  10.469  0.00  0.00     0.179 C 
ENDROOT
BRANCH   1   2
HETATM    2  C   UNK N   1      35.817  15.927  11.443  0.00  0.00     0.173 C 
BRANCH   2   3
HETATM    3  C   UNK N   1      35.955  15.009  12.658  0.00  0.00     0.214 C 
BRANCH   3   4
HETATM    4  O   UNK N   1      36.165  13.672  12.312  0.00  0.00    -0.294 OA
BRANCH   4   5
HETATM    5  P   UNK N   1      35.953  12.826  13.819  0.00  0.00     0.390 P 
HETATM    6  O   UNK N   1      36.389  14.228  14.318  0.00  0.00    -0.632 OA
BRANCH   5   7
HETATM    7  O   UNK N   1      34.676  13.221  14.925  0.00  0.00    -0.307 OA
HETATM    8  H   UNK N   1      34.450  13.132  15.865  0.00  0.00     0.222 HD
ENDBRANCH   5   7
BRANCH   5   9
HETATM    9  O   UNK N   1      34.426  12.970  13.003  0.00  0.00    -0.307 OA
HETATM   10  H   UNK N   1      33.784  12.258  12.857  0.00  0.00     0.222 HD
ENDBRANCH   5   9
ENDBRANCH   4   5
ENDBRANCH   3   4
ENDBRANCH   2   3
BRANCH   2  11
HETATM   11  O   UNK N   1      37.043  16.008  10.780  0.00  0.00    -0.391 OA
HETATM   12  H   UNK N   1      37.226  16.493   9.960  0.00  0.00     0.210 HD
ENDBRANCH   2  11
ENDBRANCH   1   2
BRANCH   1  13
HETATM   13  C   UNK N   1      34.210  16.702   9.612  0.00  0.00     0.173 C 
BRANCH  13  14
HETATM   14  C   UNK N   1      33.800  16.348   8.160  0.00  0.00     0.129 C 
BRANCH  14  15
HETATM   15  C   UNK N   1      33.402  17.569   7.334  0.00  0.00     0.191 C 
BRANCH  15  16
HETATM   16  O   UNK N   1      34.496  18.061   6.618  0.00  0.00    -0.399 OA
HETATM   17  H   UNK N   1      34.999  17.528   5.982  0.00  0.00     0.209 HD
ENDBRANCH  15  16
ENDBRANCH  14  15
BRANCH  14  18
HETATM   18  N   UNK N   1      34.873  15.649   7.474  0.00  0.00    -0.422 N 
HETATM   19  H   UNK N   1      35.655  15.216   7.967  0.00  0.00     0.150 HD
HETATM   20  H   UNK N   1      34.844  15.588   6.457  0.00  0.00     0.150 HD
ENDBRANCH  14  18
ENDBRANCH  13  14
BRANCH  13  21
HETATM   21  O   UNK N   1      35.185  17.701   9.581  0.00  0.00    -0.391 OA
HETATM   22  H   UNK N   1      36.130  17.503   9.493  0.00  0.00     0.210 HD
ENDBRANCH  13  21
ENDBRANCH   1  13
BRANCH   1  23
HETATM   23  O   UNK N   1      33.621  15.000  11.212  0.00  0.00    -0.390 OA
HETATM   24  H   UNK N   1      33.573  14.093  11.555  0.00  0.00     0.210 HD
ENDBRANCH   1  23
TORSDOF 14
ENDMDL
MODEL 3
REMARK VINA RESULT:      -5.2      3.092      6.335
REMARK  14 active torsions:
REMARK  status: ('A' for Active; 'I' for Inactive)
REMARK    1  A    between atoms: C_3  and  C_1 
REMARK    2  A    between atoms: O_8  and  C_1 
REMARK    3  A    between atoms: C_4  and  C_2 
REMARK    4  A    between atoms: O_15  and  C_2 
REMARK    5  A    between atoms: C_5  and  C_3 
REMARK    6  A    between atoms: C_3  and  N_7 
REMARK    7  A    between atoms: C_6  and  C_4 
REMARK    8  A    between atoms: C_4  and  O_9 
REMARK    9  A    between atoms: C_6  and  C_5 
REMARK   10  A    between atoms: C_5  and  O_10 
REMARK   11  A    between atoms: C_6  and  O_11 
REMARK   12  A    between atoms: P_16  and  O_12 
REMARK   13  A    between atoms: P_16  and  O_13 
REMARK   14  A    between atoms: P_16  and  O_15 
ROOT
HETATM    1  C   UNK N   1      35.434  16.203  10.714  0.00  0.00     0.179 C 
ENDROOT
BRANCH   1   2
HETATM    2  C   UNK N   1      34.931  14.829  11.215  0.00  0.00     0.173 C 
BRANCH   2   3
HETATM    3  C   UNK N   1      35.560  14.395  12.539  0.00  0.00     0.214 C 
BRANCH   3   4
HETATM    4  O   UNK N   1      35.995  13.067  12.529  0.00  0.00    -0.294 OA
BRANCH   4   5
HETATM    5  P   UNK N   1      35.788  12.562  14.183  0.00  0.00     0.390 P 
HETATM    6  O   UNK N   1      36.165  14.055  14.368  0.00  0.00    -0.632 OA
BRANCH   5   7
HETATM    7  O   UNK N   1      34.479  13.138  15.165  0.00  0.00    -0.307 OA
HETATM    8  H   UNK N   1      34.186  13.946  15.616  0.00  0.00     0.222 HD
ENDBRANCH   5   7
BRANCH   5   9
HETATM    9  O   UNK N   1      34.271  12.466  13.342  0.00  0.00    -0.307 OA
HETATM   10  H   UNK N   1      33.394  12.638  13.719  0.00  0.00     0.222 HD
ENDBRANCH   5   9
ENDBRANCH   4   5
ENDBRANCH   3   4
ENDBRANCH   2   3
BRANCH   2  11
HETATM   11  O   UNK N   1      33.540  14.827  11.338  0.00  0.00    -0.391 OA
HETATM   12  H   UNK N   1      32.970  15.600  11.472  0.00  0.00     0.210 HD
ENDBRANCH   2  11
ENDBRANCH   1   2
BRANCH   1  13
HETATM   13  C   UNK N   1      35.022  16.438   9.231  0.00  0.00     0.173 C 
BRANCH  13  14
HETATM   14  C   UNK N   1      33.810  17.382   9.032  0.00  0.00     0.129 C 
BRANCH  14  15
HETATM   15  C   UNK N   1      33.928  18.256   7.785  0.00  0.00     0.191 C 
BRANCH  15  16
HETATM   16  O   UNK N   1      34.590  17.573   6.762  0.00  0.00    -0.399 OA
HETATM   17  H   UNK N   1      34.149  16.945   6.169  0.00  0.00     0.209 HD
ENDBRANCH  15  16
ENDBRANCH  14  15
BRANCH  14  18
HETATM   18  N   UNK N   1      32.571  16.628   8.960  0.00  0.00    -0.422 N 
HETATM   19  H   UNK N   1      31.937  16.527   9.753  0.00  0.00     0.150 HD
HETATM   20  H   UNK N   1      32.324  16.178   8.077  0.00  0.00     0.150 HD
ENDBRANCH  14  18
ENDBRANCH  13  14
BRANCH  13  21
HETATM   21  O   UNK N   1      34.760  15.220   8.599  0.00  0.00    -0.391 OA
HETATM   22  H   UNK N   1      35.017  15.043   7.681  0.00  0.00     0.210 HD
ENDBRANCH  13  21
ENDBRANCH   1  13
BRANCH   1  23
HETATM   23  O   UNK N   1      36.827  16.234  10.812  0.00  0.00    -0.390 OA
HETATM   24  H   UNK N   1      37.320  15.942  11.595  0.00  0.00     0.210 HD
ENDBRANCH   1  23
TORSDOF 14
ENDMDL
MODEL 4
REMARK VINA RESULT:      -5.1      1.578      1.898
REMARK  14 active torsions:
REMARK  status: ('A' for Active; 'I' for Inactive)
REMARK    1  A    between atoms: C_3  and  C_1 
REMARK    2  A    between atoms: O_8  and  C_1 
REMARK    3  A    between atoms: C_4  and  C_2 
REMARK    4  A    between atoms: O_15  and  C_2 
REMARK    5  A    between atoms: C_5  and  C_3 
REMARK    6  A    between atoms: C_3  and  N_7 
REMARK    7  A    between atoms: C_6  and  C_4 
REMARK    8  A    between atoms: C_4  and  O_9 
REMARK    9  A    between atoms: C_6  and  C_5 
REMARK   10  A    between atoms: C_5  and  O_10 
REMARK   11  A    between atoms: C_6  and  O_11 
REMARK   12  A    between atoms: P_16  and  O_12 
REMARK   13  A    between atoms: P_16  and  O_13 
REMARK   14  A    between atoms: P_16  and  O_15 
ROOT
HETATM    1  C   UNK N   1      34.874  14.804  11.569  0.00  0.00     0.179 C 
ENDROOT
BRANCH   1   2
HETATM    2  C   UNK N   1      35.723  15.356  10.399  0.00  0.00     0.173 C 
BRANCH   2   3
HETATM    3  C   UNK N   1      34.944  16.283   9.467  0.00  0.00     0.214 C 
BRANCH   3   4
HETATM    4  O   UNK N   1      35.043  15.916   8.122  0.00  0.00    -0.294 OA
BRANCH   4   5
HETATM    5  P   UNK N   1      33.815  16.878   7.348  0.00  0.00     0.390 P 
HETATM    6  O   UNK N   1      34.593  17.961   8.140  0.00  0.00    -0.632 OA
BRANCH   5   7
HETATM    7  O   UNK N   1      34.193  18.025   6.102  0.00  0.00    -0.307 OA
HETATM    8  H   UNK N   1      34.532  18.928   6.000  0.00  0.00     0.222 HD
ENDBRANCH   5   7
BRANCH   5   9
HETATM    9  O   UNK N   1      34.871  16.192   6.150  0.00  0.00    -0.307 OA
HETATM   10  H   UNK N   1      35.650  15.640   6.321  0.00  0.00     0.222 HD
ENDBRANCH   5   9
ENDBRANCH   4   5
ENDBRANCH   3   4
ENDBRANCH   2   3
BRANCH   2  11
HETATM   11  O   UNK N   1      36.852  16.022  10.880  0.00  0.00    -0.391 OA
HETATM   12  H   UNK N   1      36.940  16.976  11.033  0.00  0.00     0.210 HD
ENDBRANCH   2  11
ENDBRANCH   1   2
BRANCH   1  13
HETATM   13  C   UNK N   1      35.152  13.287  11.788  0.00  0.00     0.173 C 
BRANCH  13  14
HETATM   14  C   UNK N   1      36.318  12.971  12.759  0.00  0.00     0.129 C 
BRANCH  14  15
HETATM   15  C   UNK N   1      37.522  12.338  12.066  0.00  0.00     0.191 C 
BRANCH  15  16
HETATM   16  O   UNK N   1      38.235  13.295  11.339  0.00  0.00    -0.399 OA
HETATM   17  H   UNK N   1      39.089  13.654  11.627  0.00  0.00     0.209 HD
ENDBRANCH  15  16
ENDBRANCH  14  15
BRANCH  14  18
HETATM   18  N   UNK N   1      36.754  14.171  13.453  0.00  0.00    -0.422 N 
HETATM   19  H   UNK N   1      36.205  14.614  14.191  0.00  0.00     0.150 HD
HETATM   20  H   UNK N   1      37.648  14.588  13.192  0.00  0.00     0.150 HD
ENDBRANCH  14  18
ENDBRANCH  13  14
BRANCH  13  21
HETATM   21  O   UNK N   1      35.392  12.654  10.567  0.00  0.00    -0.391 OA
HETATM   22  H   UNK N   1      34.808  11.966  10.214  0.00  0.00     0.210 HD
ENDBRANCH  13  21
ENDBRANCH   1  13
BRANCH   1  23
HETATM   23  O   UNK N   1      33.522  14.983  11.266  0.00  0.00    -0.390 OA
HETATM   24  H   UNK N   1      33.094  14.623  10.473  0.00  0.00     0.210 HD
ENDBRANCH   1  23
TORSDOF 14
ENDMDL
MODEL 5
REMARK VINA RESULT:      -5.0      1.490      2.065
REMARK  14 active torsions:
REMARK  status: ('A' for Active; 'I' for Inactive)
REMARK    1  A    between atoms: C_3  and  C_1 
REMARK    2  A    between atoms: O_8  and  C_1 
REMARK    3  A    between atoms: C_4  and  C_2 
REMARK    4  A    between atoms: O_15  and  C_2 
REMARK    5  A    between atoms: C_5  and  C_3 
REMARK    6  A    between atoms: C_3  and  N_7 
REMARK    7  A    between atoms: C_6  and  C_4 
REMARK    8  A    between atoms: C_4  and  O_9 
REMARK    9  A    between atoms: C_6  and  C_5 
REMARK   10  A    between atoms: C_5  and  O_10 
REMARK   11  A    between atoms: C_6  and  O_11 
REMARK   12  A    between atoms: P_16  and  O_12 
REMARK   13  A    between atoms: P_16  and  O_13 
REMARK   14  A    between atoms: P_16  and  O_15 
ROOT
HETATM    1  C   UNK N   1      36.118  14.953  10.607  0.00  0.00     0.179 C 
ENDROOT
BRANCH   1   2
HETATM    2  C   UNK N   1      34.681  15.512  10.742  0.00  0.00     0.173 C 
BRANCH   2   3
HETATM    3  C   UNK N   1      34.426  16.750   9.883  0.00  0.00     0.214 C 
BRANCH   3   4
HETATM    4  O   UNK N   1      35.036  16.681   8.628  0.00  0.00    -0.294 OA
BRANCH   4   5
HETATM    5  P   UNK N   1      33.836  17.350   7.558  0.00  0.00     0.390 P 
HETATM    6  O   UNK N   1      34.656  18.616   7.921  0.00  0.00    -0.632 OA
BRANCH   5   7
HETATM    7  O   UNK N   1      34.244  17.970   5.989  0.00  0.00    -0.307 OA
HETATM    8  H   UNK N   1      34.062  17.802   5.051  0.00  0.00     0.222 HD
ENDBRANCH   5   7
BRANCH   5   9
HETATM    9  O   UNK N   1      34.859  16.250   6.685  0.00  0.00    -0.307 OA
HETATM   10  H   UNK N   1      35.532  16.490   6.029  0.00  0.00     0.222 HD
ENDBRANCH   5   9
ENDBRANCH   4   5
ENDBRANCH   3   4
ENDBRANCH   2   3
BRANCH   2  11
HETATM   11  O   UNK N   1      33.738  14.529  10.432  0.00  0.00    -0.391 OA
HETATM   12  H   UNK N   1      33.916  13.660  10.042  0.00  0.00     0.210 HD
ENDBRANCH   2  11
ENDBRANCH   1   2
BRANCH   1  13
HETATM   13  C   UNK N   1      36.372  13.819  11.643  0.00  0.00     0.173 C 
BRANCH  13  14
HETATM   14  C   UNK N   1      35.838  14.107  13.069  0.00  0.00     0.129 C 
BRANCH  14  15
HETATM   15  C   UNK N   1      35.542  12.839  13.867  0.00  0.00     0.191 C 
BRANCH  15  16
HETATM   16  O   UNK N   1      34.221  12.427  13.669  0.00  0.00    -0.399 OA
HETATM   17  H   UNK N   1      33.460  13.024  13.744  0.00  0.00     0.209 HD
ENDBRANCH  15  16
ENDBRANCH  14  15
BRANCH  14  18
HETATM   18  N   UNK N   1      36.776  14.924  13.819  0.00  0.00    -0.422 N 
HETATM   19  H   UNK N   1      36.518  15.816  14.242  0.00  0.00     0.150 HD
HETATM   20  H   UNK N   1      37.734  14.591  13.928  0.00  0.00     0.150 HD
ENDBRANCH  14  18
ENDBRANCH  13  14
BRANCH  13  21
HETATM   21  O   UNK N   1      37.735  13.524  11.717  0.00  0.00    -0.391 OA
HETATM   22  H   UNK N   1      38.367  14.097  12.177  0.00  0.00     0.210 HD
ENDBRANCH  13  21
ENDBRANCH   1  13
BRANCH   1  23
HETATM   23  O   UNK N   1      37.025  15.991  10.831  0.00  0.00    -0.390 OA
HETATM   24  H   UNK N   1      36.847  16.921  10.619  0.00  0.00     0.210 HD
ENDBRANCH   1  23
TORSDOF 14
ENDMDL
MODEL 6
REMARK VINA RESULT:      -5.0      3.110      5.593
REMARK  14 active torsions:
REMARK  status: ('A' for Active; 'I' for Inactive)
REMARK    1  A    between atoms: C_3  and  C_1 
REMARK    2  A    between atoms: O_8  and  C_1 
REMARK    3  A    between atoms: C_4  and  C_2 
REMARK    4  A    between atoms: O_15  and  C_2 
REMARK    5  A    between atoms: C_5  and  C_3 
REMARK    6  A    between atoms: C_3  and  N_7 
REMARK    7  A    between atoms: C_6  and  C_4 
REMARK    8  A    between atoms: C_4  and  O_9 
REMARK    9  A    between atoms: C_6  and  C_5 
REMARK   10  A    between atoms: C_5  and  O_10 
REMARK   11  A    between atoms: C_6  and  O_11 
REMARK   12  A    between atoms: P_16  and  O_12 
REMARK   13  A    between atoms: P_16  and  O_13 
REMARK   14  A    between atoms: P_16  and  O_15 
ROOT
HETATM    1  C   UNK N   1      35.211  16.477  10.540  0.00  0.00     0.179 C 
ENDROOT
BRANCH   1   2
HETATM    2  C   UNK N   1      36.436  15.840  11.239  0.00  0.00     0.173 C 
BRANCH   2   3
HETATM    3  C   UNK N   1      36.062  14.792  12.287  0.00  0.00     0.214 C 
BRANCH   3   4
HETATM    4  O   UNK N   1      36.273  13.482  11.850  0.00  0.00    -0.294 OA
BRANCH   4   5
HETATM    5  P   UNK N   1      35.614  12.514  13.139  0.00  0.00     0.390 P 
HETATM    6  O   UNK N   1      36.547  13.470  13.926  0.00  0.00    -0.632 OA
BRANCH   5   7
HETATM    7  O   UNK N   1      34.530  13.172  14.323  0.00  0.00    -0.307 OA
HETATM    8  H   UNK N   1      33.599  13.429  14.419  0.00  0.00     0.222 HD
ENDBRANCH   5   7
BRANCH   5   9
HETATM    9  O   UNK N   1      34.351  13.447  12.396  0.00  0.00    -0.307 OA
HETATM   10  H   UNK N   1      34.423  13.958  11.574  0.00  0.00     0.222 HD
ENDBRANCH   5   9
ENDBRANCH   4   5
ENDBRANCH   3   4
ENDBRANCH   2   3
BRANCH   2  11
HETATM   11  O   UNK N   1      37.300  15.272  10.301  0.00  0.00    -0.391 OA
HETATM   12  H   UNK N   1      37.306  14.348  10.005  0.00  0.00     0.210 HD
ENDBRANCH   2  11
ENDBRANCH   1   2
BRANCH   1  13
HETATM   13  C   UNK N   1      34.787  15.644   9.295  0.00  0.00     0.173 C 
BRANCH  13  14
HETATM   14  C   UNK N   1      33.361  15.941   8.766  0.00  0.00     0.129 C 
BRANCH  14  15
HETATM   15  C   UNK N   1      32.300  15.007   9.343  0.00  0.00     0.191 C 
BRANCH  15  16
HETATM   16  O   UNK N   1      32.291  15.070  10.739  0.00  0.00    -0.399 OA
HETATM   17  H   UNK N   1      32.047  15.868  11.234  0.00  0.00     0.209 HD
ENDBRANCH  15  16
ENDBRANCH  14  15
BRANCH  14  18
HETATM   18  N   UNK N   1      32.980  17.314   9.046  0.00  0.00    -0.422 N 
HETATM   19  H   UNK N   1      32.108  17.562   9.515  0.00  0.00     0.150 HD
HETATM   20  H   UNK N   1      33.611  18.064   8.762  0.00  0.00     0.150 HD
ENDBRANCH  14  18
ENDBRANCH  13  14
BRANCH  13  21
HETATM   21  O   UNK N   1      34.899  14.277   9.562  0.00  0.00    -0.391 OA
HETATM   22  H   UNK N   1      35.731  13.869   9.846  0.00  0.00     0.210 HD
ENDBRANCH  13  21
ENDBRANCH   1  13
BRANCH   1  23
HETATM   23  O   UNK N   1      35.550  17.770  10.133  0.00  0.00    -0.390 OA
HETATM   24  H   UNK N   1      34.899  18.466   9.947  0.00  0.00     0.210 HD
ENDBRANCH   1  23
TORSDOF 14
ENDMDL
MODEL 7
REMARK VINA RESULT:      -4.8      3.534      6.231
REMARK  14 active torsions:
REMARK  status: ('A' for Active; 'I' for Inactive)
REMARK    1  A    between atoms: C_3  and  C_1 
REMARK    2  A    between atoms: O_8  and  C_1 
REMARK    3  A    between atoms: C_4  and  C_2 
REMARK    4  A    between atoms: O_15  and  C_2 
REMARK    5  A    between atoms: C_5  and  C_3 
REMARK    6  A    between atoms: C_3  and  N_7 
REMARK    7  A    between atoms: C_6  and  C_4 
REMARK    8  A    between atoms: C_4  and  O_9 
REMARK    9  A    between atoms: C_6  and  C_5 
REMARK   10  A    between atoms: C_5  and  O_10 
REMARK   11  A    between atoms: C_6  and  O_11 
REMARK   12  A    between atoms: P_16  and  O_12 
REMARK   13  A    between atoms: P_16  and  O_13 
REMARK   14  A    between atoms: P_16  and  O_15 
ROOT
HETATM    1  C   UNK N   1      35.272  14.462  11.107  0.00  0.00     0.179 C 
ENDROOT
BRANCH   1   2
HETATM    2  C   UNK N   1      36.376  14.042  12.106  0.00  0.00     0.173 C 
BRANCH   2   3
HETATM    3  C   UNK N   1      35.986  12.848  12.978  0.00  0.00     0.214 C 
BRANCH   3   4
HETATM    4  O   UNK N   1      35.043  13.170  13.957  0.00  0.00    -0.294 OA
BRANCH   4   5
HETATM    5  P   UNK N   1      34.720  11.642  14.726  0.00  0.00     0.390 P 
HETATM    6  O   UNK N   1      33.839  12.598  15.572  0.00  0.00    -0.632 OA
BRANCH   5   7
HETATM    7  O   UNK N   1      33.169  10.871  14.629  0.00  0.00    -0.307 OA
HETATM    8  H   UNK N   1      32.235  11.092  14.482  0.00  0.00     0.222 HD
ENDBRANCH   5   7
BRANCH   5   9
HETATM    9  O   UNK N   1      34.122  11.621  13.095  0.00  0.00    -0.307 OA
HETATM   10  H   UNK N   1      34.232  10.902  12.453  0.00  0.00     0.222 HD
ENDBRANCH   5   9
ENDBRANCH   4   5
ENDBRANCH   3   4
ENDBRANCH   2   3
BRANCH   2  11
HETATM   11  O   UNK N   1      37.568  13.759  11.436  0.00  0.00    -0.391 OA
HETATM   12  H   UNK N   1      37.699  13.089  10.747  0.00  0.00     0.210 HD
ENDBRANCH   2  11
ENDBRANCH   1   2
BRANCH   1  13
HETATM   13  C   UNK N   1      35.425  15.959  10.708  0.00  0.00     0.173 C 
BRANCH  13  14
HETATM   14  C   UNK N   1      34.950  16.305   9.274  0.00  0.00     0.129 C 
BRANCH  14  15
HETATM   15  C   UNK N   1      33.680  15.562   8.867  0.00  0.00     0.191 C 
BRANCH  15  16
HETATM   16  O   UNK N   1      32.584  16.013   9.605  0.00  0.00    -0.399 OA
HETATM   17  H   UNK N   1      31.712  16.182   9.214  0.00  0.00     0.209 HD
ENDBRANCH  15  16
ENDBRANCH  14  15
BRANCH  14  18
HETATM   18  N   UNK N   1      34.723  17.733   9.133  0.00  0.00    -0.422 N 
HETATM   19  H   UNK N   1      34.084  18.126   8.442  0.00  0.00     0.150 HD
HETATM   20  H   UNK N   1      35.225  18.370   9.752  0.00  0.00     0.150 HD
ENDBRANCH  14  18
ENDBRANCH  13  14
BRANCH  13  21
HETATM   21  O   UNK N   1      36.750  16.372  10.862  0.00  0.00    -0.391 OA
HETATM   22  H   UNK N   1      37.020  17.016  11.534  0.00  0.00     0.210 HD
ENDBRANCH  13  21
ENDBRANCH   1  13
BRANCH   1  23
HETATM   23  O   UNK N   1      34.026  14.273  11.709  0.00  0.00    -0.390 OA
HETATM   24  H   UNK N   1      33.379  14.983  11.848  0.00  0.00     0.210 HD
ENDBRANCH   1  23
TORSDOF 14
ENDMDL
MODEL 8
REMARK VINA RESULT:      -4.8      5.797      8.236
REMARK  14 active torsions:
REMARK  status: ('A' for Active; 'I' for Inactive)
REMARK    1  A    between atoms: C_3  and  C_1 
REMARK    2  A    between atoms: O_8  and  C_1 
REMARK    3  A    between atoms: C_4  and  C_2 
REMARK    4  A    between atoms: O_15  and  C_2 
REMARK    5  A    between atoms: C_5  and  C_3 
REMARK    6  A    between atoms: C_3  and  N_7 
REMARK    7  A    between atoms: C_6  and  C_4 
REMARK    8  A    between atoms: C_4  and  O_9 
REMARK    9  A    between atoms: C_6  and  C_5 
REMARK   10  A    between atoms: C_5  and  O_10 
REMARK   11  A    between atoms: C_6  and  O_11 
REMARK   12  A    between atoms: P_16  and  O_12 
REMARK   13  A    between atoms: P_16  and  O_13 
REMARK   14  A    between atoms: P_16  and  O_15 
ROOT
HETATM    1  C   UNK N   1      29.980  17.277   8.557  0.00  0.00     0.179 C 
ENDROOT
BRANCH   1   2
HETATM    2  C   UNK N   1      30.814  17.280   7.254  0.00  0.00     0.173 C 
BRANCH   2   3
HETATM    3  C   UNK N   1      32.308  17.058   7.487  0.00  0.00     0.214 C 
BRANCH   3   4
HETATM    4  O   UNK N   1      32.952  18.178   8.019  0.00  0.00    -0.294 OA
BRANCH   4   5
HETATM    5  P   UNK N   1      34.569  17.608   8.325  0.00  0.00     0.390 P 
HETATM    6  O   UNK N   1      34.791  19.143   8.286  0.00  0.00    -0.632 OA
BRANCH   5   7
HETATM    7  O   UNK N   1      35.374  17.888   9.837  0.00  0.00    -0.307 OA
HETATM    8  H   UNK N   1      35.488  17.475  10.707  0.00  0.00     0.222 HD
ENDBRANCH   5   7
BRANCH   5   9
HETATM    9  O   UNK N   1      33.542  17.224   9.673  0.00  0.00    -0.307 OA
HETATM   10  H   UNK N   1      33.770  17.314  10.612  0.00  0.00     0.222 HD
ENDBRANCH   5   9
ENDBRANCH   4   5
ENDBRANCH   3   4
ENDBRANCH   2   3
BRANCH   2  11
HETATM   11  O   UNK N   1      30.335  16.322   6.358  0.00  0.00    -0.391 OA
HETATM   12  H   UNK N   1      30.864  15.790   5.744  0.00  0.00     0.210 HD
ENDBRANCH   2  11
ENDBRANCH   1   2
BRANCH   1  13
HETATM   13  C   UNK N   1      28.475  17.539   8.253  0.00  0.00     0.173 C 
BRANCH  13  14
HETATM   14  C   UNK N   1      28.182  18.865   7.506  0.00  0.00     0.129 C 
BRANCH  14  15
HETATM   15  C   UNK N   1      27.641  18.652   6.095  0.00  0.00     0.191 C 
BRANCH  15  16
HETATM   16  O   UNK N   1      27.534  17.289   5.806  0.00  0.00    -0.399 OA
HETATM   17  H   UNK N   1      28.219  16.789   5.335  0.00  0.00     0.209 HD
ENDBRANCH  15  16
ENDBRANCH  14  15
BRANCH  14  18
HETATM   18  N   UNK N   1      27.239  19.682   8.251  0.00  0.00    -0.422 N 
HETATM   19  H   UNK N   1      27.052  19.544   9.245  0.00  0.00     0.150 HD
HETATM   20  H   UNK N   1      26.742  20.425   7.759  0.00  0.00     0.150 HD
ENDBRANCH  14  18
ENDBRANCH  13  14
BRANCH  13  21
HETATM   21  O   UNK N   1      27.727  17.504   9.432  0.00  0.00    -0.391 OA
HETATM   22  H   UNK N   1      26.910  18.014   9.545  0.00  0.00     0.210 HD
ENDBRANCH  13  21
ENDBRANCH   1  13
BRANCH   1  23
HETATM   23  O   UNK N   1      30.459  18.283   9.400  0.00  0.00    -0.390 OA
HETATM   24  H   UNK N   1      30.674  18.147  10.336  0.00  0.00     0.210 HD
ENDBRANCH   1  23
TORSDOF 14
ENDMDL
MODEL 9
REMARK VINA RESULT:      -4.8      3.165      6.192
REMARK  14 active torsions:
REMARK  status: ('A' for Active; 'I' for Inactive)
REMARK    1  A    between atoms: C_3  and  C_1 
REMARK    2  A    between atoms: O_8  and  C_1 
REMARK    3  A    between atoms: C_4  and  C_2 
REMARK    4  A    between atoms: O_15  and  C_2 
REMARK    5  A    between atoms: C_5  and  C_3 
REMARK    6  A    between atoms: C_3  and  N_7 
REMARK    7  A    between atoms: C_6  and  C_4 
REMARK    8  A    between atoms: C_4  and  O_9 
REMARK    9  A    between atoms: C_6  and  C_5 
REMARK   10  A    between atoms: C_5  and  O_10 
REMARK   11  A    between atoms: C_6  and  O_11 
REMARK   12  A    between atoms: P_16  and  O_12 
REMARK   13  A    between atoms: P_16  and  O_13 
REMARK   14  A    between atoms: P_16  and  O_15 
ROOT
HETATM    1  C   UNK N   1      34.487  15.648   9.140  0.00  0.00     0.179 C 
ENDROOT
BRANCH   1   2
HETATM    2  C   UNK N   1      34.843  16.316  10.490  0.00  0.00     0.173 C 
BRANCH   2   3
HETATM    3  C   UNK N   1      35.575  15.384  11.456  0.00  0.00     0.214 C 
BRANCH   3   4
HETATM    4  O   UNK N   1      34.712  14.554  12.175  0.00  0.00    -0.294 OA
BRANCH   4   5
HETATM    5  P   UNK N   1      35.777  13.354  12.854  0.00  0.00     0.390 P 
HETATM    6  O   UNK N   1      35.778  12.947  11.358  0.00  0.00    -0.632 OA
BRANCH   5   7
HETATM    7  O   UNK N   1      37.474  13.322  12.497  0.00  0.00    -0.307 OA
HETATM    8  H   UNK N   1      38.115  13.724  11.890  0.00  0.00     0.222 HD
ENDBRANCH   5   7
BRANCH   5   9
HETATM    9  O   UNK N   1      36.489  14.931  13.007  0.00  0.00    -0.307 OA
HETATM   10  H   UNK N   1      36.983  15.407  12.321  0.00  0.00     0.222 HD
ENDBRANCH   5   9
ENDBRANCH   4   5
ENDBRANCH   3   4
ENDBRANCH   2   3
BRANCH   2  11
HETATM   11  O   UNK N   1      35.606  17.467  10.286  0.00  0.00    -0.391 OA
HETATM   12  H   UNK N   1      35.303  18.300   9.892  0.00  0.00     0.210 HD
ENDBRANCH   2  11
ENDBRANCH   1   2
BRANCH   1  13
HETATM   13  C   UNK N   1      33.119  16.168   8.609  0.00  0.00     0.173 C 
BRANCH  13  14
HETATM   14  C   UNK N   1      32.926  16.048   7.076  0.00  0.00     0.129 C 
BRANCH  14  15
HETATM   15  C   UNK N   1      34.134  16.534   6.279  0.00  0.00     0.191 C 
BRANCH  15  16
HETATM   16  O   UNK N   1      34.307  17.912   6.433  0.00  0.00    -0.399 OA
HETATM   17  H   UNK N   1      34.257  18.541   5.696  0.00  0.00     0.209 HD
ENDBRANCH  15  16
ENDBRANCH  14  15
BRANCH  14  18
HETATM   18  N   UNK N   1      32.635  14.676   6.696  0.00  0.00    -0.422 N 
HETATM   19  H   UNK N   1      32.181  14.430   5.816  0.00  0.00     0.150 HD
HETATM   20  H   UNK N   1      32.897  13.926   7.337  0.00  0.00     0.150 HD
ENDBRANCH  14  18
ENDBRANCH  13  14
BRANCH  13  21
HETATM   21  O   UNK N   1      32.920  17.496   8.991  0.00  0.00    -0.391 OA
HETATM   22  H   UNK N   1      33.498  18.215   8.694  0.00  0.00     0.210 HD
ENDBRANCH  13  21
ENDBRANCH   1  13
BRANCH   1  23
HETATM   23  O   UNK N   1      34.410  14.266   9.330  0.00  0.00    -0.390 OA
HETATM   24  H   UNK N   1      34.149  13.849  10.166  0.00  0.00     0.210 HD
ENDBRANCH   1  23
TORSDOF 14
ENDMDL
