MODEL 1
REMARK VINA RESULT:      -6.1      0.000      0.000
REMARK  9 active torsions:
REMARK  status: ('A' for Active; 'I' for Inactive)
REMARK    1  A    between atoms: C_6  and  C_7 
REMARK    2  A    between atoms: C_7  and  O_8 
REMARK    3  A    between atoms: O_8  and  P_9 
REMARK    4  A    between atoms: P_9  and  O_10 
REMARK    5  A    between atoms: P_9  and  O_11 
REMARK    6  A    between atoms: C_13  and  C_14 
REMARK    7  A    between atoms: C_14  and  N_15 
REMARK    8  A    between atoms: C_16  and  N_15 
REMARK    9  A    between atoms: C_22  and  O_23 
ROOT
HETATM    1  C   UNK N   1      31.728  17.112   3.379  0.00  0.00     0.071 C 
HETATM    2  C   UNK N   1      32.180  17.117   4.799  0.00  0.00     0.039 A 
HETATM    3  N   UNK N   1      33.506  17.007   5.076  0.00  0.00    -0.367 N 
ATOM      4  HN  UNK N   1      34.170  16.939   4.304  1.00  0.00     0.165 HD
HETATM    5  C   UNK N   1      33.969  16.987   6.352  0.00  0.00     0.098 A 
HETATM    6  C   UNK N   1      33.083  17.072   7.430  0.00  0.00    -0.008 A 
HETATM    7  C   UNK N   1      31.699  17.194   7.178  0.00  0.00     0.004 A 
HETATM    8  C   UNK N   1      31.250  17.217   5.846  0.00  0.00     0.096 A 
ENDROOT
BRANCH   7   9
HETATM    9  C   UNK N   1      30.681  17.243   8.292  0.00  0.00     0.157 C 
BRANCH   9  10
HETATM   10  N   UNK N   1      30.117  18.574   8.517  0.00  0.00    -0.404 N 
HETATM   11  H   UNK N   1      30.677  19.425   8.549  0.00  0.00     0.154 HD
BRANCH  10  12
HETATM   12  C   UNK N   1      28.666  18.554   8.690  0.00  0.00     0.198 C 
HETATM   13  C   UNK N   1      28.192  17.089   8.637  0.00  0.00     0.235 C 
HETATM   14  O   UNK N   1      27.528  16.820   7.402  0.00  0.00    -0.275 OA
HETATM   15  N   UNK N   1      27.366  18.028   6.846  0.00  0.00    -0.233 N 
HETATM   16  C   UNK N   1      27.976  19.013   7.489  0.00  0.00     0.265 C 
HETATM   17  H   UNK N   1      26.838  18.172   6.027  0.00  0.00     0.197 HD
HETATM   18  O   UNK N   1      27.942  20.169   7.107  0.00  0.00    -0.269 OA
ENDBRANCH  10  12
ENDBRANCH   9  10
ENDBRANCH   7   9
BRANCH   6  19
HETATM   19  C   UNK N   1      33.630  17.014   8.819  0.00  0.00     0.221 C 
BRANCH  19  20
HETATM   20  O   UNK N   1      34.786  16.227   8.850  0.00  0.00    -0.292 OA
BRANCH  20  21
HETATM   21  P   UNK N   1      35.216  16.148  10.533  0.00  0.00     0.391 P 
HETATM   22  O   UNK N   1      35.644  17.599  10.191  0.00  0.00    -0.632 OA
BRANCH  21  23
HETATM   23  O   UNK N   1      36.867  16.155  11.064  0.00  0.00    -0.307 OA
HETATM   24  H   UNK N   1      37.319  15.528  11.651  0.00  0.00     0.222 HD
ENDBRANCH  21  23
BRANCH  21  25
HETATM   25  O   UNK N   1      36.194  15.061   9.596  0.00  0.00    -0.307 OA
HETATM   26  H   UNK N   1      36.226  15.056   8.626  0.00  0.00     0.222 HD
ENDBRANCH  21  25
ENDBRANCH  20  21
ENDBRANCH  19  20
ENDBRANCH   6  19
BRANCH   8  27
HETATM   27  O   UNK N   1      29.935  17.315   5.573  0.00  0.00    -0.358 OA
HETATM   28  H   UNK N   1      29.583  16.945   4.787  0.00  0.00     0.217 HD
ENDBRANCH   8  27
TORSDOF 9
ENDMDL
MODEL 2
REMARK VINA RESULT:      -6.0      7.491     10.845
REMARK  9 active torsions:
REMARK  status: ('A' for Active; 'I' for Inactive)
REMARK    1  A    between atoms: C_6  and  C_7 
REMARK    2  A    between atoms: C_7  and  O_8 
REMARK    3  A    between atoms: O_8  and  P_9 
REMARK    4  A    between atoms: P_9  and  O_10 
REMARK    5  A    between atoms: P_9  and  O_11 
REMARK    6  A    between atoms: C_13  and  C_14 
REMARK    7  A    between atoms: C_14  and  N_15 
REMARK    8  A    between atoms: C_16  and  N_15 
REMARK    9  A    between atoms: C_22  and  O_23 
ROOT
HETATM    1  C   UNK N   1      28.183  19.807   4.558  0.00  0.00     0.071 C 
HETATM    2  C   UNK N   1      26.741  19.791   4.183  0.00  0.00     0.039 A 
HETATM    3  N   UNK N   1      26.323  20.519   3.115  0.00  0.00    -0.367 N 
ATOM      4  HN  UNK N   1      27.008  21.053   2.579  1.00  0.00     0.165 HD
HETATM    5  C   UNK N   1      25.017  20.554   2.742  0.00  0.00     0.098 A 
HETATM    6  C   UNK N   1      24.054  19.839   3.460  0.00  0.00    -0.008 A 
HETATM    7  C   UNK N   1      24.456  19.066   4.572  0.00  0.00     0.004 A 
HETATM    8  C   UNK N   1      25.815  19.046   4.930  0.00  0.00     0.096 A 
ENDROOT
BRANCH   7   9
HETATM    9  C   UNK N   1      23.466  18.306   5.420  0.00  0.00     0.157 C 
BRANCH   9  10
HETATM   10  N   UNK N   1      23.789  16.889   5.579  0.00  0.00    -0.404 N 
HETATM   11  H   UNK N   1      24.741  16.533   5.661  0.00  0.00     0.154 HD
BRANCH  10  12
HETATM   12  C   UNK N   1      22.603  16.035   5.609  0.00  0.00     0.198 C 
HETATM   13  C   UNK N   1      21.357  16.939   5.664  0.00  0.00     0.235 C 
HETATM   14  O   UNK N   1      20.774  16.911   6.967  0.00  0.00    -0.275 OA
HETATM   15  N   UNK N   1      21.412  15.912   7.592  0.00  0.00    -0.233 N 
HETATM   16  C   UNK N   1      22.429  15.404   6.913  0.00  0.00     0.265 C 
HETATM   17  H   UNK N   1      21.147  15.583   8.482  0.00  0.00     0.197 HD
HETATM   18  O   UNK N   1      23.124  14.501   7.345  0.00  0.00    -0.269 OA
ENDBRANCH  10  12
ENDBRANCH   9  10
ENDBRANCH   7   9
BRANCH   6  19
HETATM   19  C   UNK N   1      22.625  19.930   3.037  0.00  0.00     0.221 C 
BRANCH  19  20
HETATM   20  O   UNK N   1      22.543  20.312   1.693  0.00  0.00    -0.292 OA
BRANCH  20  21
HETATM   21  P   UNK N   1      20.849  20.604   1.425  0.00  0.00     0.391 P 
HETATM   22  O   UNK N   1      21.412  20.821  -0.005  0.00  0.00    -0.632 OA
BRANCH  21  23
HETATM   23  O   UNK N   1      20.234  22.181   1.048  0.00  0.00    -0.307 OA
HETATM   24  H   UNK N   1      20.657  22.894   0.544  0.00  0.00     0.222 HD
ENDBRANCH  21  23
BRANCH  21  25
HETATM   25  O   UNK N   1      21.526  21.820   2.463  0.00  0.00    -0.307 OA
HETATM   26  H   UNK N   1      21.001  22.481   2.942  0.00  0.00     0.222 HD
ENDBRANCH  21  25
ENDBRANCH  20  21
ENDBRANCH  19  20
ENDBRANCH   6  19
BRANCH   8  27
HETATM   27  O   UNK N   1      26.226  18.331   5.995  0.00  0.00    -0.358 OA
HETATM   28  H   UNK N   1      26.443  18.759   6.800  0.00  0.00     0.217 HD
ENDBRANCH   8  27
TORSDOF 9
ENDMDL
MODEL 3
REMARK VINA RESULT:      -5.9     11.407     12.518
REMARK  9 active torsions:
REMARK  status: ('A' for Active; 'I' for Inactive)
REMARK    1  A    between atoms: C_6  and  C_7 
REMARK    2  A    between atoms: C_7  and  O_8 
REMARK    3  A    between atoms: O_8  and  P_9 
REMARK    4  A    between atoms: P_9  and  O_10 
REMARK    5  A    between atoms: P_9  and  O_11 
REMARK    6  A    between atoms: C_13  and  C_14 
REMARK    7  A    between atoms: C_14  and  N_15 
REMARK    8  A    between atoms: C_16  and  N_15 
REMARK    9  A    between atoms: C_22  and  O_23 
ROOT
HETATM    1  C   UNK N   1      22.007  13.604   0.765  0.00  0.00     0.071 C 
HETATM    2  C   UNK N   1      21.397  14.817   1.379  0.00  0.00     0.039 A 
HETATM    3  N   UNK N   1      20.649  15.649   0.606  0.00  0.00    -0.367 N 
ATOM      4  HN  UNK N   1      20.506  15.419  -0.377  1.00  0.00     0.165 HD
HETATM    5  C   UNK N   1      20.087  16.777   1.111  0.00  0.00     0.098 A 
HETATM    6  C   UNK N   1      20.270  17.123   2.453  0.00  0.00    -0.008 A 
HETATM    7  C   UNK N   1      21.036  16.277   3.285  0.00  0.00     0.004 A 
HETATM    8  C   UNK N   1      21.601  15.113   2.735  0.00  0.00     0.096 A 
ENDROOT
BRANCH   7   9
HETATM    9  C   UNK N   1      21.314  16.611   4.731  0.00  0.00     0.157 C 
BRANCH   9  10
HETATM   10  N   UNK N   1      20.543  15.808   5.680  0.00  0.00    -0.404 N 
HETATM   11  H   UNK N   1      19.611  15.445   5.485  0.00  0.00     0.154 HD
BRANCH  10  12
HETATM   12  C   UNK N   1      21.251  15.581   6.939  0.00  0.00     0.198 C 
HETATM   13  C   UNK N   1      20.985  14.131   7.388  0.00  0.00     0.235 C 
HETATM   14  O   UNK N   1      20.081  14.107   8.493  0.00  0.00    -0.275 OA
HETATM   15  N   UNK N   1      19.987  15.389   8.870  0.00  0.00    -0.233 N 
HETATM   16  C   UNK N   1      20.588  16.244   8.056  0.00  0.00     0.265 C 
HETATM   17  H   UNK N   1      19.511  15.673   9.684  0.00  0.00     0.197 HD
HETATM   18  O   UNK N   1      20.584  17.447   8.245  0.00  0.00    -0.269 OA
ENDBRANCH  10  12
ENDBRANCH   9  10
ENDBRANCH   7   9
BRANCH   6  19
HETATM   19  C   UNK N   1      19.661  18.389   2.961  0.00  0.00     0.221 C 
BRANCH  19  20
HETATM   20  O   UNK N   1      20.013  19.460   2.132  0.00  0.00    -0.292 OA
BRANCH  20  21
HETATM   21  P   UNK N   1      21.470  20.098   2.837  0.00  0.00     0.391 P 
HETATM   22  O   UNK N   1      20.401  20.688   3.795  0.00  0.00    -0.632 OA
BRANCH  21  23
HETATM   23  O   UNK N   1      21.855  21.788   2.785  0.00  0.00    -0.307 OA
HETATM   24  H   UNK N   1      21.819  22.441   3.501  0.00  0.00     0.222 HD
ENDBRANCH  21  23
BRANCH  21  25
HETATM   25  O   UNK N   1      21.207  20.766   1.256  0.00  0.00    -0.307 OA
HETATM   26  H   UNK N   1      20.604  20.386   0.597  0.00  0.00     0.222 HD
ENDBRANCH  21  25
ENDBRANCH  20  21
ENDBRANCH  19  20
ENDBRANCH   6  19
BRANCH   8  27
HETATM   27  O   UNK N   1      22.349  14.295   3.499  0.00  0.00    -0.358 OA
HETATM   28  H   UNK N   1      21.943  13.649   4.043  0.00  0.00     0.217 HD
ENDBRANCH   8  27
TORSDOF 9
ENDMDL
MODEL 4
REMARK VINA RESULT:      -5.8      8.711     11.880
REMARK  9 active torsions:
REMARK  status: ('A' for Active; 'I' for Inactive)
REMARK    1  A    between atoms: C_6  and  C_7 
REMARK    2  A    between atoms: C_7  and  O_8 
REMARK    3  A    between atoms: O_8  and  P_9 
REMARK    4  A    between atoms: P_9  and  O_10 
REMARK    5  A    between atoms: P_9  and  O_11 
REMARK    6  A    between atoms: C_13  and  C_14 
REMARK    7  A    between atoms: C_14  and  N_15 
REMARK    8  A    between atoms: C_16  and  N_15 
REMARK    9  A    between atoms: C_22  and  O_23 
ROOT
HETATM    1  C   UNK N   1      26.293  20.296   4.086  0.00  0.00     0.071 C 
HETATM    2  C   UNK N   1      24.881  19.896   3.829  0.00  0.00     0.039 A 
HETATM    3  N   UNK N   1      24.099  20.684   3.044  0.00  0.00    -0.367 N 
ATOM      4  HN  UNK N   1      24.499  21.527   2.632  1.00  0.00     0.165 HD
HETATM    5  C   UNK N   1      22.800  20.375   2.794  0.00  0.00     0.098 A 
HETATM    6  C   UNK N   1      22.222  19.230   3.349  0.00  0.00    -0.008 A 
HETATM    7  C   UNK N   1      23.008  18.386   4.164  0.00  0.00     0.004 A 
HETATM    8  C   UNK N   1      24.351  18.729   4.401  0.00  0.00     0.096 A 
ENDROOT
BRANCH   7   9
HETATM    9  C   UNK N   1      22.439  17.160   4.834  0.00  0.00     0.157 C 
BRANCH   9  10
HETATM   10  N   UNK N   1      22.183  17.333   6.263  0.00  0.00    -0.404 N 
HETATM   11  H   UNK N   1      22.807  17.840   6.890  0.00  0.00     0.154 HD
BRANCH  10  12
HETATM   12  C   UNK N   1      20.937  16.704   6.698  0.00  0.00     0.198 C 
HETATM   13  C   UNK N   1      20.267  17.626   7.735  0.00  0.00     0.235 C 
HETATM   14  O   UNK N   1      20.394  17.079   9.048  0.00  0.00    -0.275 OA
HETATM   15  N   UNK N   1      20.856  15.839   8.845  0.00  0.00    -0.233 N 
HETATM   16  C   UNK N   1      21.187  15.577   7.589  0.00  0.00     0.265 C 
HETATM   17  H   UNK N   1      20.944  15.176   9.569  0.00  0.00     0.197 HD
HETATM   18  O   UNK N   1      21.638  14.501   7.238  0.00  0.00    -0.269 OA
ENDBRANCH  10  12
ENDBRANCH   9  10
ENDBRANCH   7   9
BRANCH   6  19
HETATM   19  C   UNK N   1      20.782  18.944   3.075  0.00  0.00     0.221 C 
BRANCH  19  20
HETATM   20  O   UNK N   1      20.554  18.894   1.696  0.00  0.00    -0.292 OA
BRANCH  20  21
HETATM   21  P   UNK N   1      20.063  17.254   1.394  0.00  0.00     0.391 P 
HETATM   22  O   UNK N   1      20.468  17.703  -0.035  0.00  0.00    -0.632 OA
BRANCH  21  23
HETATM   23  O   UNK N   1      18.631  16.871   0.492  0.00  0.00    -0.307 OA
HETATM   24  H   UNK N   1      17.745  16.654   0.822  0.00  0.00     0.222 HD
ENDBRANCH  21  23
BRANCH  21  25
HETATM   25  O   UNK N   1      18.710  18.218   1.900  0.00  0.00    -0.307 OA
HETATM   26  H   UNK N   1      18.319  18.929   1.369  0.00  0.00     0.222 HD
ENDBRANCH  21  25
ENDBRANCH  20  21
ENDBRANCH  19  20
ENDBRANCH   6  19
BRANCH   8  27
HETATM   27  O   UNK N   1      25.122  17.953   5.186  0.00  0.00    -0.358 OA
HETATM   28  H   UNK N   1      25.864  17.505   4.830  0.00  0.00     0.217 HD
ENDBRANCH   8  27
TORSDOF 9
ENDMDL
MODEL 5
REMARK VINA RESULT:      -5.7     13.331     16.414
REMARK  9 active torsions:
REMARK  status: ('A' for Active; 'I' for Inactive)
REMARK    1  A    between atoms: C_6  and  C_7 
REMARK    2  A    between atoms: C_7  and  O_8 
REMARK    3  A    between atoms: O_8  and  P_9 
REMARK    4  A    between atoms: P_9  and  O_10 
REMARK    5  A    between atoms: P_9  and  O_11 
REMARK    6  A    between atoms: C_13  and  C_14 
REMARK    7  A    between atoms: C_14  and  N_15 
REMARK    8  A    between atoms: C_16  and  N_15 
REMARK    9  A    between atoms: C_22  and  O_23 
ROOT
HETATM    1  C   UNK N   1      26.266  29.081  -3.560  0.00  0.00     0.071 C 
HETATM    2  C   UNK N   1      26.435  27.768  -4.244  0.00  0.00     0.039 A 
HETATM    3  N   UNK N   1      25.357  27.175  -4.820  0.00  0.00    -0.367 N 
ATOM      4  HN  UNK N   1      24.453  27.648  -4.788  1.00  0.00     0.165 HD
HETATM    5  C   UNK N   1      25.452  25.970  -5.440  0.00  0.00     0.098 A 
HETATM    6  C   UNK N   1      26.675  25.295  -5.496  0.00  0.00    -0.008 A 
HETATM    7  C   UNK N   1      27.816  25.886  -4.912  0.00  0.00     0.004 A 
HETATM    8  C   UNK N   1      27.688  27.137  -4.283  0.00  0.00     0.096 A 
ENDROOT
BRANCH   7   9
HETATM    9  C   UNK N   1      29.158  25.194  -4.894  0.00  0.00     0.157 C 
BRANCH   9  10
HETATM   10  N   UNK N   1      29.669  24.934  -3.549  0.00  0.00    -0.404 N 
HETATM   11  H   UNK N   1      29.300  25.379  -2.709  0.00  0.00     0.154 HD
BRANCH  10  12
HETATM   12  C   UNK N   1      30.764  23.966  -3.534  0.00  0.00     0.198 C 
HETATM   13  C   UNK N   1      30.699  23.142  -4.834  0.00  0.00     0.235 C 
HETATM   14  O   UNK N   1      30.220  21.823  -4.569  0.00  0.00    -0.275 OA
HETATM   15  N   UNK N   1      30.228  21.733  -3.232  0.00  0.00    -0.233 N 
HETATM   16  C   UNK N   1      30.500  22.869  -2.609  0.00  0.00     0.265 C 
HETATM   17  H   UNK N   1      30.046  20.892  -2.753  0.00  0.00     0.197 HD
HETATM   18  O   UNK N   1      30.530  22.963  -1.394  0.00  0.00    -0.269 OA
ENDBRANCH  10  12
ENDBRANCH   9  10
ENDBRANCH   7   9
BRANCH   6  19
HETATM   19  C   UNK N   1      26.730  23.957  -6.158  0.00  0.00     0.221 C 
BRANCH  19  20
HETATM   20  O   UNK N   1      25.463  23.363  -6.151  0.00  0.00    -0.292 OA
BRANCH  20  21
HETATM   21  P   UNK N   1      25.435  22.378  -7.584  0.00  0.00     0.391 P 
HETATM   22  O   UNK N   1      24.907  23.724  -8.146  0.00  0.00    -0.632 OA
BRANCH  21  23
HETATM   23  O   UNK N   1      23.951  21.881  -8.332  0.00  0.00    -0.307 OA
HETATM   24  H   UNK N   1      23.391  21.118  -8.122  0.00  0.00     0.222 HD
ENDBRANCH  21  23
BRANCH  21  25
HETATM   25  O   UNK N   1      24.291  21.795  -6.414  0.00  0.00    -0.307 OA
HETATM   26  H   UNK N   1      23.331  21.910  -6.488  0.00  0.00     0.222 HD
ENDBRANCH  21  25
ENDBRANCH  20  21
ENDBRANCH  19  20
ENDBRANCH   6  19
BRANCH   8  27
HETATM   27  O   UNK N   1      28.755  27.718  -3.703  0.00  0.00    -0.358 OA
HETATM   28  H   UNK N   1      29.450  27.196  -3.353  0.00  0.00     0.217 HD
ENDBRANCH   8  27
TORSDOF 9
ENDMDL
MODEL 6
REMARK VINA RESULT:      -5.7     13.361     15.581
REMARK  9 active torsions:
REMARK  status: ('A' for Active; 'I' for Inactive)
REMARK    1  A    between atoms: C_6  and  C_7 
REMARK    2  A    between atoms: C_7  and  O_8 
REMARK    3  A    between atoms: O_8  and  P_9 
REMARK    4  A    between atoms: P_9  and  O_10 
REMARK    5  A    between atoms: P_9  and  O_11 
REMARK    6  A    between atoms: C_13  and  C_14 
REMARK    7  A    between atoms: C_14  and  N_15 
REMARK    8  A    between atoms: C_16  and  N_15 
REMARK    9  A    between atoms: C_22  and  O_23 
ROOT
HETATM    1  C   UNK N   1      26.720  29.266  -4.747  0.00  0.00     0.071 C 
HETATM    2  C   UNK N   1      27.215  27.878  -4.522  0.00  0.00     0.039 A 
HETATM    3  N   UNK N   1      28.513  27.684  -4.172  0.00  0.00    -0.367 N 
ATOM      4  HN  UNK N   1      29.122  28.494  -4.054  1.00  0.00     0.165 HD
HETATM    5  C   UNK N   1      29.020  26.439  -3.974  0.00  0.00     0.098 A 
HETATM    6  C   UNK N   1      28.212  25.310  -4.134  0.00  0.00    -0.008 A 
HETATM    7  C   UNK N   1      26.856  25.477  -4.491  0.00  0.00     0.004 A 
HETATM    8  C   UNK N   1      26.359  26.778  -4.684  0.00  0.00     0.096 A 
ENDROOT
BRANCH   7   9
HETATM    9  C   UNK N   1      25.938  24.302  -4.726  0.00  0.00     0.157 C 
BRANCH   9  10
HETATM   10  N   UNK N   1      25.544  24.132  -6.125  0.00  0.00    -0.404 N 
HETATM   11  H   UNK N   1      25.074  24.853  -6.670  0.00  0.00     0.154 HD
BRANCH  10  12
HETATM   12  C   UNK N   1      25.898  22.818  -6.659  0.00  0.00     0.198 C 
HETATM   13  C   UNK N   1      27.348  22.882  -7.178  0.00  0.00     0.235 C 
HETATM   14  O   UNK N   1      27.370  22.893  -8.605  0.00  0.00    -0.275 OA
HETATM   15  N   UNK N   1      26.109  22.608  -8.956  0.00  0.00    -0.233 N 
HETATM   16  C   UNK N   1      25.255  22.570  -7.945  0.00  0.00     0.265 C 
HETATM   17  H   UNK N   1      25.839  22.441  -9.889  0.00  0.00     0.197 HD
HETATM   18  O   UNK N   1      24.068  22.340  -8.093  0.00  0.00    -0.269 OA
ENDBRANCH  10  12
ENDBRANCH   9  10
ENDBRANCH   7   9
BRANCH   6  19
HETATM   19  C   UNK N   1      28.816  23.958  -3.939  0.00  0.00     0.221 C 
BRANCH  19  20
HETATM   20  O   UNK N   1      29.978  24.056  -3.165  0.00  0.00    -0.292 OA
BRANCH  20  21
HETATM   21  P   UNK N   1      30.411  22.408  -2.818  0.00  0.00     0.391 P 
HETATM   22  O   UNK N   1      30.380  23.008  -1.387  0.00  0.00    -0.632 OA
BRANCH  21  23
HETATM   23  O   UNK N   1      31.983  21.973  -2.226  0.00  0.00    -0.307 OA
HETATM   24  H   UNK N   1      32.836  22.403  -2.395  0.00  0.00     0.222 HD
ENDBRANCH  21  23
BRANCH  21  25
HETATM   25  O   UNK N   1      31.673  23.201  -3.709  0.00  0.00    -0.307 OA
HETATM   26  H   UNK N   1      31.737  23.202  -4.677  0.00  0.00     0.222 HD
ENDBRANCH  21  25
ENDBRANCH  20  21
ENDBRANCH  19  20
ENDBRANCH   6  19
BRANCH   8  27
HETATM   27  O   UNK N   1      25.075  26.968  -5.040  0.00  0.00    -0.358 OA
HETATM   28  H   UNK N   1      24.776  27.816  -5.308  0.00  0.00     0.217 HD
ENDBRANCH   8  27
TORSDOF 9
ENDMDL
MODEL 7
REMARK VINA RESULT:      -5.7      9.014     10.553
REMARK  9 active torsions:
REMARK  status: ('A' for Active; 'I' for Inactive)
REMARK    1  A    between atoms: C_6  and  C_7 
REMARK    2  A    between atoms: C_7  and  O_8 
REMARK    3  A    between atoms: O_8  and  P_9 
REMARK    4  A    between atoms: P_9  and  O_10 
REMARK    5  A    between atoms: P_9  and  O_11 
REMARK    6  A    between atoms: C_13  and  C_14 
REMARK    7  A    between atoms: C_14  and  N_15 
REMARK    8  A    between atoms: C_16  and  N_15 
REMARK    9  A    between atoms: C_22  and  O_23 
ROOT
HETATM    1  C   UNK N   1      23.162  11.852  13.232  0.00  0.00     0.071 C 
HETATM    2  C   UNK N   1      23.440  12.122  11.793  0.00  0.00     0.039 A 
HETATM    3  N   UNK N   1      24.728  12.219  11.370  0.00  0.00    -0.367 N 
ATOM      4  HN  UNK N   1      25.482  12.090  12.045  1.00  0.00     0.165 HD
HETATM    5  C   UNK N   1      25.035  12.482  10.074  0.00  0.00     0.098 A 
HETATM    6  C   UNK N   1      24.023  12.669   9.128  0.00  0.00    -0.008 A 
HETATM    7  C   UNK N   1      22.674  12.568   9.532  0.00  0.00     0.004 A 
HETATM    8  C   UNK N   1      22.387  12.290  10.880  0.00  0.00     0.096 A 
ENDROOT
BRANCH   7   9
HETATM    9  C   UNK N   1      21.530  12.804   8.576  0.00  0.00     0.157 C 
BRANCH   9  10
HETATM   10  N   UNK N   1      20.904  14.119   8.717  0.00  0.00    -0.404 N 
HETATM   11  H   UNK N   1      20.817  14.609   9.607  0.00  0.00     0.154 HD
BRANCH  10  12
HETATM   12  C   UNK N   1      20.418  14.657   7.448  0.00  0.00     0.198 C 
HETATM   13  C   UNK N   1      20.721  13.631   6.340  0.00  0.00     0.235 C 
HETATM   14  O   UNK N   1      21.801  14.081   5.521  0.00  0.00    -0.275 OA
HETATM   15  N   UNK N   1      21.991  15.353   5.897  0.00  0.00    -0.233 N 
HETATM   16  C   UNK N   1      21.281  15.723   6.952  0.00  0.00     0.265 C 
HETATM   17  H   UNK N   1      22.608  15.961   5.429  0.00  0.00     0.197 HD
HETATM   18  O   UNK N   1      21.349  16.841   7.431  0.00  0.00    -0.269 OA
ENDBRANCH  10  12
ENDBRANCH   9  10
ENDBRANCH   7   9
BRANCH   6  19
HETATM   19  C   UNK N   1      24.403  12.989   7.719  0.00  0.00     0.221 C 
BRANCH  19  20
HETATM   20  O   UNK N   1      24.568  14.370   7.565  0.00  0.00    -0.292 OA
BRANCH  20  21
HETATM   21  P   UNK N   1      25.525  14.537   6.122  0.00  0.00     0.391 P 
HETATM   22  O   UNK N   1      24.779  15.898   6.136  0.00  0.00    -0.632 OA
BRANCH  21  23
HETATM   23  O   UNK N   1      24.813  14.557   4.541  0.00  0.00    -0.307 OA
HETATM   24  H   UNK N   1      25.065  14.047   3.755  0.00  0.00     0.222 HD
ENDBRANCH  21  23
BRANCH  21  25
HETATM   25  O   UNK N   1      24.345  13.277   5.935  0.00  0.00    -0.307 OA
HETATM   26  H   UNK N   1      24.050  12.696   6.655  0.00  0.00     0.222 HD
ENDBRANCH  21  25
ENDBRANCH  20  21
ENDBRANCH  19  20
ENDBRANCH   6  19
BRANCH   8  27
HETATM   27  O   UNK N   1      21.110  12.203  11.298  0.00  0.00    -0.358 OA
HETATM   28  H   UNK N   1      20.874  12.476  12.163  0.00  0.00     0.217 HD
ENDBRANCH   8  27
TORSDOF 9
ENDMDL
MODEL 8
REMARK VINA RESULT:      -5.7      8.850     10.882
REMARK  9 active torsions:
REMARK  status: ('A' for Active; 'I' for Inactive)
REMARK    1  A    between atoms: C_6  and  C_7 
REMARK    2  A    between atoms: C_7  and  O_8 
REMARK    3  A    between atoms: O_8  and  P_9 
REMARK    4  A    between atoms: P_9  and  O_10 
REMARK    5  A    between atoms: P_9  and  O_11 
REMARK    6  A    between atoms: C_13  and  C_14 
REMARK    7  A    between atoms: C_14  and  N_15 
REMARK    8  A    between atoms: C_16  and  N_15 
REMARK    9  A    between atoms: C_22  and  O_23 
ROOT
HETATM    1  C   UNK N   1      23.076  11.923  11.984  0.00  0.00     0.071 C 
HETATM    2  C   UNK N   1      23.105  12.472  10.599  0.00  0.00     0.039 A 
HETATM    3  N   UNK N   1      24.279  12.486   9.913  0.00  0.00    -0.367 N 
ATOM      4  HN  UNK N   1      25.116  12.105  10.355  1.00  0.00     0.165 HD
HETATM    5  C   UNK N   1      24.364  12.993   8.656  0.00  0.00     0.098 A 
HETATM    6  C   UNK N   1      23.236  13.527   8.028  0.00  0.00    -0.008 A 
HETATM    7  C   UNK N   1      21.999  13.522   8.710  0.00  0.00     0.004 A 
HETATM    8  C   UNK N   1      21.941  12.987  10.008  0.00  0.00     0.096 A 
ENDROOT
BRANCH   7   9
HETATM    9  C   UNK N   1      20.751  14.124   8.111  0.00  0.00     0.157 C 
BRANCH   9  10
HETATM   10  N   UNK N   1      20.155  15.181   8.929  0.00  0.00    -0.404 N 
HETATM   11  H   UNK N   1      20.205  15.202   9.947  0.00  0.00     0.154 HD
BRANCH  10  12
HETATM   12  C   UNK N   1      19.481  16.204   8.132  0.00  0.00     0.198 C 
HETATM   13  C   UNK N   1      20.443  17.396   7.964  0.00  0.00     0.235 C 
HETATM   14  O   UNK N   1      20.028  18.494   8.777  0.00  0.00    -0.275 OA
HETATM   15  N   UNK N   1      18.810  18.142   9.209  0.00  0.00    -0.233 N 
HETATM   16  C   UNK N   1      18.460  16.901   8.906  0.00  0.00     0.265 C 
HETATM   17  H   UNK N   1      18.224  18.754   9.711  0.00  0.00     0.197 HD
HETATM   18  O   UNK N   1      17.392  16.418   9.239  0.00  0.00    -0.269 OA
ENDBRANCH  10  12
ENDBRANCH   9  10
ENDBRANCH   7   9
BRANCH   6  19
HETATM   19  C   UNK N   1      23.379  14.104   6.657  0.00  0.00     0.221 C 
BRANCH  19  20
HETATM   20  O   UNK N   1      23.536  15.492   6.732  0.00  0.00    -0.292 OA
BRANCH  20  21
HETATM   21  P   UNK N   1      24.648  15.876   5.452  0.00  0.00     0.391 P 
HETATM   22  O   UNK N   1      25.630  15.662   6.635  0.00  0.00    -0.632 OA
BRANCH  21  23
HETATM   23  O   UNK N   1      25.549  17.358   5.426  0.00  0.00    -0.307 OA
HETATM   24  H   UNK N   1      26.297  17.624   5.983  0.00  0.00     0.222 HD
ENDBRANCH  21  23
BRANCH  21  25
HETATM   25  O   UNK N   1      23.644  17.242   5.823  0.00  0.00    -0.307 OA
HETATM   26  H   UNK N   1      23.134  17.335   6.644  0.00  0.00     0.222 HD
ENDBRANCH  21  25
ENDBRANCH  20  21
ENDBRANCH  19  20
ENDBRANCH   6  19
BRANCH   8  27
HETATM   27  O   UNK N   1      20.780  12.982  10.689  0.00  0.00    -0.358 OA
HETATM   28  H   UNK N   1      20.607  12.319  11.329  0.00  0.00     0.217 HD
ENDBRANCH   8  27
TORSDOF 9
ENDMDL
MODEL 9
REMARK VINA RESULT:      -5.5      7.042     11.044
REMARK  9 active torsions:
REMARK  status: ('A' for Active; 'I' for Inactive)
REMARK    1  A    between atoms: C_6  and  C_7 
REMARK    2  A    between atoms: C_7  and  O_8 
REMARK    3  A    between atoms: O_8  and  P_9 
REMARK    4  A    between atoms: P_9  and  O_10 
REMARK    5  A    between atoms: P_9  and  O_11 
REMARK    6  A    between atoms: C_13  and  C_14 
REMARK    7  A    between atoms: C_14  and  N_15 
REMARK    8  A    between atoms: C_16  and  N_15 
REMARK    9  A    between atoms: C_22  and  O_23 
ROOT
HETATM    1  C   UNK N   1      22.862  14.223   4.496  0.00  0.00     0.071 C 
HETATM    2  C   UNK N   1      22.653  15.673   4.221  0.00  0.00     0.039 A 
HETATM    3  N   UNK N   1      21.422  16.108   3.843  0.00  0.00    -0.367 N 
ATOM      4  HN  UNK N   1      20.659  15.435   3.770  1.00  0.00     0.165 HD
HETATM    5  C   UNK N   1      21.183  17.415   3.563  0.00  0.00     0.098 A 
HETATM    6  C   UNK N   1      22.210  18.359   3.648  0.00  0.00    -0.008 A 
HETATM    7  C   UNK N   1      23.500  17.942   4.044  0.00  0.00     0.004 A 
HETATM    8  C   UNK N   1      23.716  16.583   4.333  0.00  0.00     0.096 A 
ENDROOT
BRANCH   7   9
HETATM    9  C   UNK N   1      24.666  18.897   4.112  0.00  0.00     0.157 C 
BRANCH   9  10
HETATM   10  N   UNK N   1      25.346  18.907   5.408  0.00  0.00    -0.404 N 
HETATM   11  H   UNK N   1      24.904  18.614   6.279  0.00  0.00     0.154 HD
BRANCH  10  12
HETATM   12  C   UNK N   1      26.727  19.378   5.322  0.00  0.00     0.198 C 
HETATM   13  C   UNK N   1      27.656  18.238   5.780  0.00  0.00     0.235 C 
HETATM   14  O   UNK N   1      28.189  18.515   7.075  0.00  0.00    -0.275 OA
HETATM   15  N   UNK N   1      27.851  19.791   7.304  0.00  0.00    -0.233 N 
HETATM   16  C   UNK N   1      27.042  20.314   6.395  0.00  0.00     0.265 C 
HETATM   17  H   UNK N   1      28.177  20.298   8.083  0.00  0.00     0.197 HD
HETATM   18  O   UNK N   1      26.627  21.458   6.463  0.00  0.00    -0.269 OA
ENDBRANCH  10  12
ENDBRANCH   9  10
ENDBRANCH   7   9
BRANCH   6  19
HETATM   19  C   UNK N   1      21.913  19.781   3.299  0.00  0.00     0.221 C 
BRANCH  19  20
HETATM   20  O   UNK N   1      22.070  19.983   1.924  0.00  0.00    -0.292 OA
BRANCH  20  21
HETATM   21  P   UNK N   1      20.583  20.732   1.420  0.00  0.00     0.391 P 
HETATM   22  O   UNK N   1      21.358  20.690   0.076  0.00  0.00    -0.632 OA
BRANCH  21  23
HETATM   23  O   UNK N   1      20.508  22.393   0.926  0.00  0.00    -0.307 OA
HETATM   24  H   UNK N   1      21.168  22.913   0.441  0.00  0.00     0.222 HD
ENDBRANCH  21  23
BRANCH  21  25
HETATM   25  O   UNK N   1      21.453  21.764   2.513  0.00  0.00    -0.307 OA
HETATM   26  H   UNK N   1      21.272  22.711   2.627  0.00  0.00     0.222 HD
ENDBRANCH  21  25
ENDBRANCH  20  21
ENDBRANCH  19  20
ENDBRANCH   6  19
BRANCH   8  27
HETATM   27  O   UNK N   1      24.938  16.152   4.697  0.00  0.00    -0.358 OA
HETATM   28  H   UNK N   1      25.637  16.762   4.830  0.00  0.00     0.217 HD
ENDBRANCH   8  27
TORSDOF 9
ENDMDL
