MODEL 1
REMARK VINA RESULT:      -7.8      0.000      0.000
REMARK  9 active torsions:
REMARK  status: ('A' for Active; 'I' for Inactive)
REMARK    1  A    between atoms: C_9  and  C_6 
REMARK    2  A    between atoms: C_14  and  C_6 
REMARK    3  A    between atoms: C_16  and  C_7 
REMARK    4  A    between atoms: C_9  and  C_8 
REMARK    5  A    between atoms: C_9  and  C_18 
REMARK    6  A    between atoms: C_17  and  C_10 
REMARK    7  A    between atoms: O_28  and  C_15 
REMARK    8  A    between atoms: N_22  and  C_16 
REMARK    9  A    between atoms: O_31  and  C_18 
ROOT
HETATM    1  C   UNK N   1      35.090  14.595  10.785  0.00  0.00     0.026 A 
HETATM    2  C   UNK N   1      36.326  14.734   8.733  0.00  0.00     0.030 A 
HETATM    3  C   UNK N   1      35.160  15.013   9.463  0.00  0.00    -0.041 A 
HETATM    4  C   UNK N   1      36.128  13.914  11.408  0.00  0.00     0.043 A 
HETATM    5  C   UNK N   1      37.407  14.081   9.344  0.00  0.00     0.045 A 
HETATM    6  C   UNK N   1      37.312  13.657  10.686  0.00  0.00     0.097 A 
HETATM    7 Br   UNK N   1      38.989  13.753   8.321  0.00  0.00    -0.048 Br
ENDROOT
BRANCH   4   8
HETATM    8  C   UNK N   1      35.876  13.478  12.792  0.00  0.00     0.119 A 
HETATM    9  N   UNK N   1      35.356  12.250  13.057  0.00  0.00    -0.340 N 
HETATM   10  C   UNK N   1      35.284  12.207  14.385  0.00  0.00     0.060 A 
ATOM     11  HN  UNK N   1      35.085  11.527  12.391  1.00  0.00     0.167 HD
HETATM   12  C   UNK N   1      34.814  11.162  15.168  0.00  0.00     0.033 A 
HETATM   13  C   UNK N   1      35.745  13.372  14.912  0.00  0.00     0.061 A 
HETATM   14  C   UNK N   1      34.817  11.350  16.558  0.00  0.00     0.017 A 
HETATM   15  C   UNK N   1      35.285  12.563  17.125  0.00  0.00     0.009 A 
HETATM   16  C   UNK N   1      35.764  13.598  16.283  0.00  0.00     0.047 A 
HETATM   17  N   UNK N   1      36.132  14.196  13.917  0.00  0.00    -0.340 N 
HETATM   18  H   UNK N   1      36.511  15.102  13.989  0.00  0.00     0.167 HD
BRANCH  15  19
HETATM   19  C   UNK N   1      35.256  12.746  18.590  0.00  0.00     0.102 C 
HETATM   20  N   UNK N   1      35.266  13.924  19.097  0.00  0.00    -0.385 N 
HETATM   21  H   UNK N   1      35.193  14.042  20.072  0.00  0.00     0.157 HD
ATOM     22  HN  UNK N   1      35.350  14.740  18.490  1.00  0.00     0.157 HD
BRANCH  19  23
HETATM   23  N   UNK N   1      35.244  11.622  19.447  0.00  0.00    -0.385 N 
HETATM   24  H   UNK N   1      34.399  11.157  19.642  0.00  0.00     0.157 HD
HETATM   25  H   UNK N   1      36.083  11.303  19.851  0.00  0.00     0.157 HD
ENDBRANCH  19  23
ENDBRANCH  15  19
ENDBRANCH   4   8
BRANCH   6  26
HETATM   26  O   UNK N   1      38.337  13.000  11.258  0.00  0.00    -0.358 OA
ATOM     27  HO  UNK N   1      38.230  12.109  11.568  1.00  0.00     0.217 HD
ENDBRANCH   6  26
BRANCH   3  28
HETATM   28  C   UNK N   1      33.936  15.626   8.807  0.00  0.00     0.126 C 
BRANCH  28  29
HETATM   29  C   UNK N   1      33.820  17.117   9.144  0.00  0.00     0.133 C 
BRANCH  29  30
HETATM   30  C   UNK N   1      34.518  17.952   8.106  0.00  0.00     0.173 C 
HETATM   31  O   UNK N   1      34.541  17.576   6.947  0.00  0.00    -0.648 OA
HETATM   32  O   UNK N   1      35.073  19.134   8.437  0.00  0.00    -0.648 OA
ENDBRANCH  29  30
ENDBRANCH  28  29
BRANCH  28  33
HETATM   33  C   UNK N   1      32.647  14.879   9.147  0.00  0.00     0.148 C 
HETATM   34  O   UNK N   1      32.321  13.878   8.526  0.00  0.00    -0.649 OA
BRANCH  33  35
HETATM   35  O   UNK N   1      31.844  15.332  10.131  0.00  0.00    -0.776 OA
HETATM   36  H   UNK N   1      31.834  15.137  11.047  0.00  0.00     0.167 HD
ENDBRANCH  33  35
ENDBRANCH  28  33
ENDBRANCH   3  28
TORSDOF 9
ENDMDL
MODEL 2
REMARK VINA RESULT:      -7.6      8.812     12.680
REMARK  9 active torsions:
REMARK  status: ('A' for Active; 'I' for Inactive)
REMARK    1  A    between atoms: C_9  and  C_6 
REMARK    2  A    between atoms: C_14  and  C_6 
REMARK    3  A    between atoms: C_16  and  C_7 
REMARK    4  A    between atoms: C_9  and  C_8 
REMARK    5  A    between atoms: C_9  and  C_18 
REMARK    6  A    between atoms: C_17  and  C_10 
REMARK    7  A    between atoms: O_28  and  C_15 
REMARK    8  A    between atoms: N_22  and  C_16 
REMARK    9  A    between atoms: O_31  and  C_18 
ROOT
HETATM    1  C   UNK N   1      29.668  17.510   6.313  0.00  0.00     0.026 A 
HETATM    2  C   UNK N   1      31.851  16.592   5.927  0.00  0.00     0.030 A 
HETATM    3  C   UNK N   1      30.877  17.056   6.824  0.00  0.00    -0.041 A 
HETATM    4  C   UNK N   1      29.390  17.518   4.952  0.00  0.00     0.043 A 
HETATM    5  C   UNK N   1      31.587  16.552   4.549  0.00  0.00     0.045 A 
HETATM    6  C   UNK N   1      30.355  17.026   4.051  0.00  0.00     0.097 A 
HETATM    7 Br   UNK N   1      32.932  15.879   3.368  0.00  0.00    -0.048 Br
ENDROOT
BRANCH   4   8
HETATM    8  C   UNK N   1      28.091  18.092   4.563  0.00  0.00     0.119 A 
HETATM    9  N   UNK N   1      28.019  19.254   3.860  0.00  0.00    -0.340 N 
HETATM   10  C   UNK N   1      26.714  19.446   3.683  0.00  0.00     0.060 A 
ATOM     11  HN  UNK N   1      28.788  19.843   3.542  1.00  0.00     0.167 HD
HETATM   12  C   UNK N   1      26.103  20.503   3.024  0.00  0.00     0.033 A 
HETATM   13  C   UNK N   1      26.014  18.435   4.259  0.00  0.00     0.061 A 
HETATM   14  C   UNK N   1      24.701  20.506   2.976  0.00  0.00     0.017 A 
HETATM   15  C   UNK N   1      23.953  19.463   3.580  0.00  0.00     0.009 A 
HETATM   16  C   UNK N   1      24.624  18.399   4.234  0.00  0.00     0.047 A 
HETATM   17  N   UNK N   1      26.869  17.557   4.822  0.00  0.00    -0.340 N 
HETATM   18  H   UNK N   1      26.658  16.724   5.304  0.00  0.00     0.167 HD
BRANCH  15  19
HETATM   19  C   UNK N   1      22.478  19.499   3.536  0.00  0.00     0.102 C 
HETATM   20  N   UNK N   1      21.872  20.319   2.758  0.00  0.00    -0.385 N 
HETATM   21  H   UNK N   1      20.890  20.303   2.692  0.00  0.00     0.157 HD
ATOM     22  HN  UNK N   1      22.408  20.989   2.207  1.00  0.00     0.157 HD
BRANCH  19  23
HETATM   23  N   UNK N   1      21.719  18.647   4.371  0.00  0.00    -0.385 N 
HETATM   24  H   UNK N   1      21.815  18.700   5.349  0.00  0.00     0.157 HD
HETATM   25  H   UNK N   1      21.094  17.999   3.973  0.00  0.00     0.157 HD
ENDBRANCH  19  23
ENDBRANCH  15  19
ENDBRANCH   4   8
BRANCH   6  26
HETATM   26  O   UNK N   1      30.120  17.020   2.726  0.00  0.00    -0.358 OA
ATOM     27  HO  UNK N   1      29.532  16.383   2.340  1.00  0.00     0.217 HD
ENDBRANCH   6  26
BRANCH   3  28
HETATM   28  C   UNK N   1      31.165  17.206   8.306  0.00  0.00     0.126 C 
BRANCH  28  29
HETATM   29  C   UNK N   1      30.214  18.220   8.953  0.00  0.00     0.133 C 
BRANCH  29  30
HETATM   30  C   UNK N   1      29.113  17.517   9.696  0.00  0.00     0.173 C 
HETATM   31  O   UNK N   1      29.393  16.711  10.565  0.00  0.00    -0.648 OA
HETATM   32  O   UNK N   1      27.822  17.807   9.444  0.00  0.00    -0.648 OA
ENDBRANCH  29  30
ENDBRANCH  28  29
BRANCH  28  33
HETATM   33  C   UNK N   1      32.625  17.556   8.592  0.00  0.00     0.148 C 
HETATM   34  O   UNK N   1      33.113  18.596   8.176  0.00  0.00    -0.649 OA
BRANCH  33  35
HETATM   35  O   UNK N   1      33.398  16.706   9.298  0.00  0.00    -0.776 OA
HETATM   36  H   UNK N   1      33.631  15.814   9.132  0.00  0.00     0.167 HD
ENDBRANCH  33  35
ENDBRANCH  28  33
ENDBRANCH   3  28
TORSDOF 9
ENDMDL
MODEL 3
REMARK VINA RESULT:      -7.6      9.525     13.301
REMARK  9 active torsions:
REMARK  status: ('A' for Active; 'I' for Inactive)
REMARK    1  A    between atoms: C_9  and  C_6 
REMARK    2  A    between atoms: C_14  and  C_6 
REMARK    3  A    between atoms: C_16  and  C_7 
REMARK    4  A    between atoms: C_9  and  C_8 
REMARK    5  A    between atoms: C_9  and  C_18 
REMARK    6  A    between atoms: C_17  and  C_10 
REMARK    7  A    between atoms: O_28  and  C_15 
REMARK    8  A    between atoms: N_22  and  C_16 
REMARK    9  A    between atoms: O_31  and  C_18 
ROOT
HETATM    1  C   UNK N   1      29.327  17.819   5.199  0.00  0.00     0.026 A 
HETATM    2  C   UNK N   1      30.592  17.275   7.164  0.00  0.00     0.030 A 
HETATM    3  C   UNK N   1      30.481  17.294   5.766  0.00  0.00    -0.041 A 
HETATM    4  C   UNK N   1      28.284  18.324   5.965  0.00  0.00     0.043 A 
HETATM    5  C   UNK N   1      29.572  17.811   7.965  0.00  0.00     0.045 A 
HETATM    6  C   UNK N   1      28.404  18.332   7.369  0.00  0.00     0.097 A 
HETATM    7 Br   UNK N   1      29.781  17.795   9.865  0.00  0.00    -0.048 Br
ENDROOT
BRANCH   4   8
HETATM    8  C   UNK N   1      27.100  18.783   5.219  0.00  0.00     0.119 A 
HETATM    9  N   UNK N   1      27.218  19.663   4.188  0.00  0.00    -0.340 N 
HETATM   10  C   UNK N   1      25.969  19.829   3.758  0.00  0.00     0.060 A 
ATOM     11  HN  UNK N   1      28.068  20.094   3.826  1.00  0.00     0.167 HD
HETATM   12  C   UNK N   1      25.540  20.639   2.717  0.00  0.00     0.033 A 
HETATM   13  C   UNK N   1      25.118  19.077   4.504  0.00  0.00     0.061 A 
HETATM   14  C   UNK N   1      24.163  20.670   2.453  0.00  0.00     0.017 A 
HETATM   15  C   UNK N   1      23.259  19.899   3.227  0.00  0.00     0.009 A 
HETATM   16  C   UNK N   1      23.747  19.078   4.275  0.00  0.00     0.047 A 
HETATM   17  N   UNK N   1      25.815  18.398   5.437  0.00  0.00    -0.340 N 
HETATM   18  H   UNK N   1      25.475  17.770   6.116  0.00  0.00     0.167 HD
BRANCH  15  19
HETATM   19  C   UNK N   1      21.811  19.965   2.945  0.00  0.00     0.102 C 
HETATM   20  N   UNK N   1      21.262  21.082   2.633  0.00  0.00    -0.385 N 
HETATM   21  H   UNK N   1      20.307  21.112   2.393  0.00  0.00     0.157 HD
ATOM     22  HN  UNK N   1      21.814  21.939   2.633  1.00  0.00     0.157 HD
BRANCH  19  23
HETATM   23  N   UNK N   1      21.013  18.803   3.042  0.00  0.00    -0.385 N 
HETATM   24  H   UNK N   1      21.358  17.938   2.724  0.00  0.00     0.157 HD
HETATM   25  H   UNK N   1      20.109  18.859   3.428  0.00  0.00     0.157 HD
ENDBRANCH  19  23
ENDBRANCH  15  19
ENDBRANCH   4   8
BRANCH   6  26
HETATM   26  O   UNK N   1      27.412  18.813   8.141  0.00  0.00    -0.358 OA
ATOM     27  HO  UNK N   1      27.604  19.255   8.959  1.00  0.00     0.217 HD
ENDBRANCH   6  26
BRANCH   3  28
HETATM   28  C   UNK N   1      31.517  16.634   4.875  0.00  0.00     0.126 C 
BRANCH  28  29
HETATM   29  C   UNK N   1      32.773  17.505   4.750  0.00  0.00     0.133 C 
BRANCH  29  30
HETATM   30  C   UNK N   1      33.810  17.089   5.756  0.00  0.00     0.173 C 
HETATM   31  O   UNK N   1      34.393  17.939   6.406  0.00  0.00    -0.648 OA
HETATM   32  O   UNK N   1      34.063  15.785   5.980  0.00  0.00    -0.648 OA
ENDBRANCH  29  30
ENDBRANCH  28  29
BRANCH  28  33
HETATM   33  C   UNK N   1      30.964  16.260   3.501  0.00  0.00     0.148 C 
HETATM   34  O   UNK N   1      30.329  15.228   3.340  0.00  0.00    -0.649 OA
BRANCH  33  35
HETATM   35  O   UNK N   1      31.187  17.064   2.441  0.00  0.00    -0.776 OA
HETATM   36  H   UNK N   1      30.661  17.745   2.072  0.00  0.00     0.167 HD
ENDBRANCH  33  35
ENDBRANCH  28  33
ENDBRANCH   3  28
TORSDOF 9
ENDMDL
MODEL 4
REMARK VINA RESULT:      -7.4      8.529     12.288
REMARK  9 active torsions:
REMARK  status: ('A' for Active; 'I' for Inactive)
REMARK    1  A    between atoms: C_9  and  C_6 
REMARK    2  A    between atoms: C_14  and  C_6 
REMARK    3  A    between atoms: C_16  and  C_7 
REMARK    4  A    between atoms: C_9  and  C_8 
REMARK    5  A    between atoms: C_9  and  C_18 
REMARK    6  A    between atoms: C_17  and  C_10 
REMARK    7  A    between atoms: O_28  and  C_15 
REMARK    8  A    between atoms: N_22  and  C_16 
REMARK    9  A    between atoms: O_31  and  C_18 
ROOT
HETATM    1  C   UNK N   1      30.383  17.556   5.789  0.00  0.00     0.026 A 
HETATM    2  C   UNK N   1      32.296  16.203   5.274  0.00  0.00     0.030 A 
HETATM    3  C   UNK N   1      31.653  17.109   6.130  0.00  0.00    -0.041 A 
HETATM    4  C   UNK N   1      29.731  17.140   4.635  0.00  0.00     0.043 A 
HETATM    5  C   UNK N   1      31.649  15.734   4.120  0.00  0.00     0.045 A 
HETATM    6  C   UNK N   1      30.363  16.208   3.788  0.00  0.00     0.097 A 
HETATM    7 Br   UNK N   1      32.551  14.473   3.000  0.00  0.00    -0.048 Br
ENDROOT
BRANCH   4   8
HETATM    8  C   UNK N   1      28.418  17.756   4.378  0.00  0.00     0.119 A 
HETATM    9  N   UNK N   1      28.317  19.055   3.986  0.00  0.00    -0.340 N 
HETATM   10  C   UNK N   1      27.009  19.249   3.840  0.00  0.00     0.060 A 
ATOM     11  HN  UNK N   1      29.071  19.725   3.838  1.00  0.00     0.167 HD
HETATM   12  C   UNK N   1      26.371  20.419   3.455  0.00  0.00     0.033 A 
HETATM   13  C   UNK N   1      26.335  18.107   4.134  0.00  0.00     0.061 A 
HETATM   14  C   UNK N   1      24.971  20.395   3.385  0.00  0.00     0.017 A 
HETATM   15  C   UNK N   1      24.249  19.214   3.698  0.00  0.00     0.009 A 
HETATM   16  C   UNK N   1      24.947  18.040   4.078  0.00  0.00     0.047 A 
HETATM   17  N   UNK N   1      27.211  17.140   4.475  0.00  0.00    -0.340 N 
HETATM   18  H   UNK N   1      27.022  16.208   4.732  0.00  0.00     0.167 HD
BRANCH  15  19
HETATM   19  C   UNK N   1      22.774  19.219   3.639  0.00  0.00     0.102 C 
HETATM   20  N   UNK N   1      22.158  20.054   2.885  0.00  0.00    -0.385 N 
HETATM   21  H   UNK N   1      21.177  20.018   2.808  0.00  0.00     0.157 HD
ATOM     22  HN  UNK N   1      22.685  20.756   2.365  1.00  0.00     0.157 HD
BRANCH  19  23
HETATM   23  N   UNK N   1      22.027  18.320   4.433  0.00  0.00    -0.385 N 
HETATM   24  H   UNK N   1      22.463  17.825   5.164  0.00  0.00     0.157 HD
HETATM   25  H   UNK N   1      21.068  18.189   4.256  0.00  0.00     0.157 HD
ENDBRANCH  19  23
ENDBRANCH  15  19
ENDBRANCH   4   8
BRANCH   6  26
HETATM   26  O   UNK N   1      29.760  15.784   2.662  0.00  0.00    -0.358 OA
ATOM     27  HO  UNK N   1      29.237  14.992   2.660  1.00  0.00     0.217 HD
ENDBRANCH   6  26
BRANCH   3  28
HETATM   28  C   UNK N   1      32.361  17.711   7.330  0.00  0.00     0.126 C 
BRANCH  28  29
HETATM   29  C   UNK N   1      33.792  17.175   7.452  0.00  0.00     0.133 C 
BRANCH  29  30
HETATM   30  C   UNK N   1      34.542  17.903   8.531  0.00  0.00     0.173 C 
HETATM   31  O   UNK N   1      34.744  17.354   9.600  0.00  0.00    -0.648 OA
HETATM   32  O   UNK N   1      35.035  19.138   8.310  0.00  0.00    -0.648 OA
ENDBRANCH  29  30
ENDBRANCH  28  29
BRANCH  28  33
HETATM   33  C   UNK N   1      31.584  17.519   8.632  0.00  0.00     0.148 C 
HETATM   34  O   UNK N   1      30.871  18.408   9.072  0.00  0.00    -0.649 OA
BRANCH  33  35
HETATM   35  O   UNK N   1      31.694  16.365   9.320  0.00  0.00    -0.776 OA
HETATM   36  H   UNK N   1      31.174  16.020  10.018  0.00  0.00     0.167 HD
ENDBRANCH  33  35
ENDBRANCH  28  33
ENDBRANCH   3  28
TORSDOF 9
ENDMDL
MODEL 5
REMARK VINA RESULT:      -7.3      8.301     11.276
REMARK  9 active torsions:
REMARK  status: ('A' for Active; 'I' for Inactive)
REMARK    1  A    between atoms: C_9  and  C_6 
REMARK    2  A    between atoms: C_14  and  C_6 
REMARK    3  A    between atoms: C_16  and  C_7 
REMARK    4  A    between atoms: C_9  and  C_8 
REMARK    5  A    between atoms: C_9  and  C_18 
REMARK    6  A    between atoms: C_17  and  C_10 
REMARK    7  A    between atoms: O_28  and  C_15 
REMARK    8  A    between atoms: N_22  and  C_16 
REMARK    9  A    between atoms: O_31  and  C_18 
ROOT
HETATM    1  C   UNK N   1      27.609  18.271   4.566  0.00  0.00     0.026 A 
HETATM    2  C   UNK N   1      25.884  17.266   3.236  0.00  0.00     0.030 A 
HETATM    3  C   UNK N   1      26.340  18.344   4.009  0.00  0.00    -0.041 A 
HETATM    4  C   UNK N   1      28.440  17.172   4.387  0.00  0.00     0.043 A 
HETATM    5  C   UNK N   1      26.713  16.158   3.004  0.00  0.00     0.045 A 
HETATM    6  C   UNK N   1      27.996  16.099   3.587  0.00  0.00     0.097 A 
HETATM    7 Br   UNK N   1      26.062  14.726   1.916  0.00  0.00    -0.048 Br
ENDROOT
BRANCH   4   8
HETATM    8  C   UNK N   1      29.729  17.214   5.097  0.00  0.00     0.119 A 
HETATM    9  N   UNK N   1      30.907  17.162   4.419  0.00  0.00    -0.340 N 
HETATM   10  C   UNK N   1      31.834  17.237   5.370  0.00  0.00     0.060 A 
ATOM     11  HN  UNK N   1      31.046  17.085   3.412  1.00  0.00     0.167 HD
HETATM   12  C   UNK N   1      33.211  17.221   5.204  0.00  0.00     0.033 A 
HETATM   13  C   UNK N   1      31.240  17.330   6.589  0.00  0.00     0.061 A 
HETATM   14  C   UNK N   1      33.998  17.294   6.362  0.00  0.00     0.017 A 
HETATM   15  C   UNK N   1      33.397  17.382   7.644  0.00  0.00     0.009 A 
HETATM   16  C   UNK N   1      31.984  17.405   7.761  0.00  0.00     0.047 A 
HETATM   17  N   UNK N   1      29.900  17.322   6.441  0.00  0.00    -0.340 N 
HETATM   18  H   UNK N   1      29.209  17.383   7.141  0.00  0.00     0.167 HD
BRANCH  15  19
HETATM   19  C   UNK N   1      34.246  17.436   8.850  0.00  0.00     0.102 C 
HETATM   20  N   UNK N   1      35.121  18.364   8.986  0.00  0.00    -0.385 N 
HETATM   21  H   UNK N   1      35.648  18.428   9.816  0.00  0.00     0.157 HD
ATOM     22  HN  UNK N   1      35.272  19.037   8.235  1.00  0.00     0.157 HD
BRANCH  19  23
HETATM   23  N   UNK N   1      34.120  16.449   9.854  0.00  0.00    -0.385 N 
HETATM   24  H   UNK N   1      34.772  15.713   9.909  0.00  0.00     0.157 HD
HETATM   25  H   UNK N   1      33.380  16.498  10.501  0.00  0.00     0.157 HD
ENDBRANCH  19  23
ENDBRANCH  15  19
ENDBRANCH   4   8
BRANCH   6  26
HETATM   26  O   UNK N   1      28.774  15.019   3.392  0.00  0.00    -0.358 OA
ATOM     27  HO  UNK N   1      29.394  14.741   4.055  1.00  0.00     0.217 HD
ENDBRANCH   6  26
BRANCH   3  28
HETATM   28  C   UNK N   1      25.435  19.511   4.362  0.00  0.00     0.126 C 
BRANCH  28  29
HETATM   29  C   UNK N   1      24.991  20.264   3.102  0.00  0.00     0.133 C 
BRANCH  29  30
HETATM   30  C   UNK N   1      23.497  20.427   3.080  0.00  0.00     0.173 C 
HETATM   31  O   UNK N   1      23.012  21.503   2.779  0.00  0.00    -0.648 OA
HETATM   32  O   UNK N   1      22.689  19.380   3.341  0.00  0.00    -0.648 OA
ENDBRANCH  29  30
ENDBRANCH  28  29
BRANCH  28  33
HETATM   33  C   UNK N   1      26.065  20.460   5.381  0.00  0.00     0.148 C 
HETATM   34  O   UNK N   1      26.781  21.381   5.020  0.00  0.00    -0.649 OA
BRANCH  33  35
HETATM   35  O   UNK N   1      25.846  20.277   6.699  0.00  0.00    -0.776 OA
HETATM   36  H   UNK N   1      26.157  20.757   7.440  0.00  0.00     0.167 HD
ENDBRANCH  33  35
ENDBRANCH  28  33
ENDBRANCH   3  28
TORSDOF 9
ENDMDL
MODEL 6
REMARK VINA RESULT:      -7.3      2.036      3.366
REMARK  9 active torsions:
REMARK  status: ('A' for Active; 'I' for Inactive)
REMARK    1  A    between atoms: C_9  and  C_6 
REMARK    2  A    between atoms: C_14  and  C_6 
REMARK    3  A    between atoms: C_16  and  C_7 
REMARK    4  A    between atoms: C_9  and  C_8 
REMARK    5  A    between atoms: C_9  and  C_18 
REMARK    6  A    between atoms: C_17  and  C_10 
REMARK    7  A    between atoms: O_28  and  C_15 
REMARK    8  A    between atoms: N_22  and  C_16 
REMARK    9  A    between atoms: O_31  and  C_18 
ROOT
HETATM    1  C   UNK N   1      35.310  13.641  12.461  0.00  0.00     0.026 A 
HETATM    2  C   UNK N   1      35.645  12.790  10.243  0.00  0.00     0.030 A 
HETATM    3  C   UNK N   1      35.286  13.851  11.089  0.00  0.00    -0.041 A 
HETATM    4  C   UNK N   1      35.676  12.425  13.023  0.00  0.00     0.043 A 
HETATM    5  C   UNK N   1      36.056  11.561  10.780  0.00  0.00     0.045 A 
HETATM    6  C   UNK N   1      36.065  11.367  12.177  0.00  0.00     0.097 A 
HETATM    7 Br   UNK N   1      36.568  10.155   9.590  0.00  0.00    -0.048 Br
ENDROOT
BRANCH   4   8
HETATM    8  C   UNK N   1      35.587  12.340  14.491  0.00  0.00     0.119 A 
HETATM    9  N   UNK N   1      35.395  13.453  15.248  0.00  0.00    -0.340 N 
HETATM   10  C   UNK N   1      35.353  12.993  16.496  0.00  0.00     0.060 A 
ATOM     11  HN  UNK N   1      35.302  14.417  14.932  1.00  0.00     0.167 HD
HETATM   12  C   UNK N   1      35.179  13.732  17.657  0.00  0.00     0.033 A 
HETATM   13  C   UNK N   1      35.516  11.645  16.500  0.00  0.00     0.061 A 
HETATM   14  C   UNK N   1      35.186  13.031  18.872  0.00  0.00     0.017 A 
HETATM   15  C   UNK N   1      35.365  11.623  18.896  0.00  0.00     0.009 A 
HETATM   16  C   UNK N   1      35.529  10.912  17.681  0.00  0.00     0.047 A 
HETATM   17  N   UNK N   1      35.662  11.204  15.234  0.00  0.00    -0.340 N 
HETATM   18  H   UNK N   1      35.791  10.279  14.921  0.00  0.00     0.167 HD
BRANCH  15  19
HETATM   19  C   UNK N   1      35.391  10.910  20.188  0.00  0.00     0.102 C 
HETATM   20  N   UNK N   1      34.408  10.162  20.536  0.00  0.00    -0.385 N 
HETATM   21  H   UNK N   1      34.454   9.646  21.374  0.00  0.00     0.157 HD
ATOM     22  HN  UNK N   1      33.579  10.102  19.946  1.00  0.00     0.157 HD
BRANCH  19  23
HETATM   23  N   UNK N   1      36.489  11.065  21.064  0.00  0.00    -0.385 N 
HETATM   24  H   UNK N   1      37.146  10.339  21.167  0.00  0.00     0.157 HD
HETATM   25  H   UNK N   1      36.598  11.901  21.573  0.00  0.00     0.157 HD
ENDBRANCH  19  23
ENDBRANCH  15  19
ENDBRANCH   4   8
BRANCH   6  26
HETATM   26  O   UNK N   1      36.425  10.175  12.688  0.00  0.00    -0.358 OA
ATOM     27  HO  UNK N   1      35.781   9.605  13.090  1.00  0.00     0.217 HD
ENDBRANCH   6  26
BRANCH   3  28
HETATM   28  C   UNK N   1      34.743  15.158  10.541  0.00  0.00     0.126 C 
BRANCH  28  29
HETATM   29  C   UNK N   1      34.207  14.978   9.116  0.00  0.00     0.133 C 
BRANCH  29  30
HETATM   30  C   UNK N   1      32.752  14.602   9.140  0.00  0.00     0.173 C 
HETATM   31  O   UNK N   1      31.921  15.427   9.477  0.00  0.00    -0.648 OA
HETATM   32  O   UNK N   1      32.354  13.376   8.743  0.00  0.00    -0.648 OA
ENDBRANCH  29  30
ENDBRANCH  28  29
BRANCH  28  33
HETATM   33  C   UNK N   1      35.760  16.296  10.611  0.00  0.00     0.148 C 
HETATM   34  O   UNK N   1      35.419  17.453  10.418  0.00  0.00    -0.649 OA
BRANCH  33  35
HETATM   35  O   UNK N   1      37.056  16.029  10.872  0.00  0.00    -0.776 OA
HETATM   36  H   UNK N   1      37.455  15.611  11.608  0.00  0.00     0.167 HD
ENDBRANCH  33  35
ENDBRANCH  28  33
ENDBRANCH   3  28
TORSDOF 9
ENDMDL
MODEL 7
REMARK VINA RESULT:      -7.1      9.194     12.139
REMARK  9 active torsions:
REMARK  status: ('A' for Active; 'I' for Inactive)
REMARK    1  A    between atoms: C_9  and  C_6 
REMARK    2  A    between atoms: C_14  and  C_6 
REMARK    3  A    between atoms: C_16  and  C_7 
REMARK    4  A    between atoms: C_9  and  C_8 
REMARK    5  A    between atoms: C_9  and  C_18 
REMARK    6  A    between atoms: C_17  and  C_10 
REMARK    7  A    between atoms: O_28  and  C_15 
REMARK    8  A    between atoms: N_22  and  C_16 
REMARK    9  A    between atoms: O_31  and  C_18 
ROOT
HETATM    1  C   UNK N   1      26.046  18.091   4.687  0.00  0.00     0.026 A 
HETATM    2  C   UNK N   1      24.726  16.857   3.109  0.00  0.00     0.030 A 
HETATM    3  C   UNK N   1      24.911  18.006   3.893  0.00  0.00    -0.041 A 
HETATM    4  C   UNK N   1      27.001  17.083   4.732  0.00  0.00     0.043 A 
HETATM    5  C   UNK N   1      25.691  15.838   3.103  0.00  0.00     0.045 A 
HETATM    6  C   UNK N   1      26.834  15.941   3.924  0.00  0.00     0.097 A 
HETATM    7 Br   UNK N   1      25.414  14.307   1.992  0.00  0.00    -0.048 Br
ENDROOT
BRANCH   4   8
HETATM    8  C   UNK N   1      28.115  17.291   5.673  0.00  0.00     0.119 A 
HETATM    9  N   UNK N   1      27.931  17.967   6.840  0.00  0.00    -0.340 N 
HETATM   10  C   UNK N   1      29.127  17.942   7.422  0.00  0.00     0.060 A 
ATOM     11  HN  UNK N   1      27.073  18.392   7.189  1.00  0.00     0.167 HD
HETATM   12  C   UNK N   1      29.479  18.501   8.641  0.00  0.00     0.033 A 
HETATM   13  C   UNK N   1      30.012  17.275   6.635  0.00  0.00     0.061 A 
HETATM   14  C   UNK N   1      30.815  18.365   9.049  0.00  0.00     0.017 A 
HETATM   15  C   UNK N   1      31.755  17.680   8.236  0.00  0.00     0.009 A 
HETATM   16  C   UNK N   1      31.344  17.118   7.001  0.00  0.00     0.047 A 
HETATM   17  N   UNK N   1      29.390  16.847   5.518  0.00  0.00    -0.340 N 
HETATM   18  H   UNK N   1      29.768  16.332   4.768  0.00  0.00     0.167 HD
BRANCH  15  19
HETATM   19  C   UNK N   1      33.160  17.569   8.675  0.00  0.00     0.102 C 
HETATM   20  N   UNK N   1      33.525  16.608   9.442  0.00  0.00    -0.385 N 
HETATM   21  H   UNK N   1      34.474  16.507   9.689  0.00  0.00     0.157 HD
ATOM     22  HN  UNK N   1      32.834  15.947   9.796  1.00  0.00     0.157 HD
BRANCH  19  23
HETATM   23  N   UNK N   1      34.109  18.537   8.276  0.00  0.00    -0.385 N 
HETATM   24  H   UNK N   1      35.065  18.400   8.466  0.00  0.00     0.157 HD
HETATM   25  H   UNK N   1      33.814  19.350   7.806  0.00  0.00     0.157 HD
ENDBRANCH  19  23
ENDBRANCH  15  19
ENDBRANCH   4   8
BRANCH   6  26
HETATM   26  O   UNK N   1      27.739  14.946   3.942  0.00  0.00    -0.358 OA
ATOM     27  HO  UNK N   1      27.612  14.184   4.494  1.00  0.00     0.217 HD
ENDBRANCH   6  26
BRANCH   3  28
HETATM   28  C   UNK N   1      23.842  19.078   4.000  0.00  0.00     0.126 C 
BRANCH  28  29
HETATM   29  C   UNK N   1      22.446  18.490   3.762  0.00  0.00     0.133 C 
BRANCH  29  30
HETATM   30  C   UNK N   1      21.445  19.101   4.702  0.00  0.00     0.173 C 
HETATM   31  O   UNK N   1      20.694  19.973   4.300  0.00  0.00    -0.648 OA
HETATM   32  O   UNK N   1      21.336  18.658   5.970  0.00  0.00    -0.648 OA
ENDBRANCH  29  30
ENDBRANCH  28  29
BRANCH  28  33
HETATM   33  C   UNK N   1      24.105  20.269   3.080  0.00  0.00     0.148 C 
HETATM   34  O   UNK N   1      25.130  20.334   2.418  0.00  0.00    -0.649 OA
BRANCH  33  35
HETATM   35  O   UNK N   1      23.209  21.274   3.002  0.00  0.00    -0.776 OA
HETATM   36  H   UNK N   1      23.224  22.133   3.375  0.00  0.00     0.167 HD
ENDBRANCH  33  35
ENDBRANCH  28  33
ENDBRANCH   3  28
TORSDOF 9
ENDMDL
MODEL 8
REMARK VINA RESULT:      -7.0      9.621     13.537
REMARK  9 active torsions:
REMARK  status: ('A' for Active; 'I' for Inactive)
REMARK    1  A    between atoms: C_9  and  C_6 
REMARK    2  A    between atoms: C_14  and  C_6 
REMARK    3  A    between atoms: C_16  and  C_7 
REMARK    4  A    between atoms: C_9  and  C_8 
REMARK    5  A    between atoms: C_9  and  C_18 
REMARK    6  A    between atoms: C_17  and  C_10 
REMARK    7  A    between atoms: O_28  and  C_15 
REMARK    8  A    between atoms: N_22  and  C_16 
REMARK    9  A    between atoms: O_31  and  C_18 
ROOT
HETATM    1  C   UNK N   1      28.974  17.715   5.368  0.00  0.00     0.026 A 
HETATM    2  C   UNK N   1      30.317  17.408   7.332  0.00  0.00     0.030 A 
HETATM    3  C   UNK N   1      30.123  17.206   5.957  0.00  0.00    -0.041 A 
HETATM    4  C   UNK N   1      28.014  18.414   6.088  0.00  0.00     0.043 A 
HETATM    5  C   UNK N   1      29.385  18.143   8.081  0.00  0.00     0.045 A 
HETATM    6  C   UNK N   1      28.220  18.644   7.463  0.00  0.00     0.097 A 
HETATM    7 Br   UNK N   1      29.708  18.422   9.944  0.00  0.00    -0.048 Br
ENDROOT
BRANCH   4   8
HETATM    8  C   UNK N   1      26.819  18.832   5.335  0.00  0.00     0.119 A 
HETATM    9  N   UNK N   1      26.912  19.719   4.308  0.00  0.00    -0.340 N 
HETATM   10  C   UNK N   1      25.661  19.841   3.870  0.00  0.00     0.060 A 
ATOM     11  HN  UNK N   1      27.748  20.183   3.955  1.00  0.00     0.167 HD
HETATM   12  C   UNK N   1      25.210  20.638   2.828  0.00  0.00     0.033 A 
HETATM   13  C   UNK N   1      24.834  19.054   4.606  0.00  0.00     0.061 A 
HETATM   14  C   UNK N   1      23.835  20.619   2.554  0.00  0.00     0.017 A 
HETATM   15  C   UNK N   1      22.954  19.811   3.318  0.00  0.00     0.009 A 
HETATM   16  C   UNK N   1      23.465  19.006   4.367  0.00  0.00     0.047 A 
HETATM   17  N   UNK N   1      25.548  18.398   5.543  0.00  0.00    -0.340 N 
HETATM   18  H   UNK N   1      25.226  17.756   6.216  0.00  0.00     0.167 HD
BRANCH  15  19
HETATM   19  C   UNK N   1      21.507  19.825   3.025  0.00  0.00     0.102 C 
HETATM   20  N   UNK N   1      20.820  18.744   3.101  0.00  0.00    -0.385 N 
HETATM   21  H   UNK N   1      19.846  18.768   2.958  0.00  0.00     0.157 HD
ATOM     22  HN  UNK N   1      21.282  17.860   3.311  1.00  0.00     0.157 HD
BRANCH  19  23
HETATM   23  N   UNK N   1      20.871  21.025   2.633  0.00  0.00    -0.385 N 
HETATM   24  H   UNK N   1      20.891  21.310   1.691  0.00  0.00     0.157 HD
HETATM   25  H   UNK N   1      20.408  21.577   3.303  0.00  0.00     0.157 HD
ENDBRANCH  19  23
ENDBRANCH  15  19
ENDBRANCH   4   8
BRANCH   6  26
HETATM   26  O   UNK N   1      27.310  19.318   8.192  0.00  0.00    -0.358 OA
ATOM     27  HO  UNK N   1      26.689  18.856   8.741  1.00  0.00     0.217 HD
ENDBRANCH   6  26
BRANCH   3  28
HETATM   28  C   UNK N   1      31.058  16.332   5.141  0.00  0.00     0.126 C 
BRANCH  28  29
HETATM   29  C   UNK N   1      31.493  15.096   5.937  0.00  0.00     0.133 C 
BRANCH  29  30
HETATM   30  C   UNK N   1      31.014  13.838   5.268  0.00  0.00     0.173 C 
HETATM   31  O   UNK N   1      31.476  12.763   5.606  0.00  0.00    -0.648 OA
HETATM   32  O   UNK N   1      30.041  13.885   4.336  0.00  0.00    -0.648 OA
ENDBRANCH  29  30
ENDBRANCH  28  29
BRANCH  28  33
HETATM   33  C   UNK N   1      32.266  17.099   4.605  0.00  0.00     0.148 C 
HETATM   34  O   UNK N   1      33.393  16.852   5.006  0.00  0.00    -0.649 OA
BRANCH  33  35
HETATM   35  O   UNK N   1      32.095  18.075   3.689  0.00  0.00    -0.776 OA
HETATM   36  H   UNK N   1      32.510  18.910   3.605  0.00  0.00     0.167 HD
ENDBRANCH  33  35
ENDBRANCH  28  33
ENDBRANCH   3  28
TORSDOF 9
ENDMDL
MODEL 9
REMARK VINA RESULT:      -7.0     11.650     14.799
REMARK  9 active torsions:
REMARK  status: ('A' for Active; 'I' for Inactive)
REMARK    1  A    between atoms: C_9  and  C_6 
REMARK    2  A    between atoms: C_14  and  C_6 
REMARK    3  A    between atoms: C_16  and  C_7 
REMARK    4  A    between atoms: C_9  and  C_8 
REMARK    5  A    between atoms: C_9  and  C_18 
REMARK    6  A    between atoms: C_17  and  C_10 
REMARK    7  A    between atoms: O_28  and  C_15 
REMARK    8  A    between atoms: N_22  and  C_16 
REMARK    9  A    between atoms: O_31  and  C_18 
ROOT
HETATM    1  C   UNK N   1      23.188  17.471   3.940  0.00  0.00     0.026 A 
HETATM    2  C   UNK N   1      21.028  16.794   4.735  0.00  0.00     0.030 A 
HETATM    3  C   UNK N   1      21.806  17.513   3.815  0.00  0.00    -0.041 A 
HETATM    4  C   UNK N   1      23.825  16.745   4.939  0.00  0.00     0.043 A 
HETATM    5  C   UNK N   1      21.641  16.021   5.733  0.00  0.00     0.045 A 
HETATM    6  C   UNK N   1      23.047  15.999   5.847  0.00  0.00     0.097 A 
HETATM    7 Br   UNK N   1      20.542  15.031   6.944  0.00  0.00    -0.048 Br
ENDROOT
BRANCH   4   8
HETATM    8  C   UNK N   1      25.293  16.854   4.980  0.00  0.00     0.119 A 
HETATM    9  N   UNK N   1      25.955  16.972   6.162  0.00  0.00    -0.340 N 
HETATM   10  C   UNK N   1      27.238  17.030   5.812  0.00  0.00     0.060 A 
ATOM     11  HN  UNK N   1      25.559  17.007   7.101  1.00  0.00     0.167 HD
HETATM   12  C   UNK N   1      28.333  17.158   6.654  0.00  0.00     0.033 A 
HETATM   13  C   UNK N   1      27.353  16.951   4.461  0.00  0.00     0.061 A 
HETATM   14  C   UNK N   1      29.599  17.216   6.055  0.00  0.00     0.017 A 
HETATM   15  C   UNK N   1      29.739  17.145   4.645  0.00  0.00     0.009 A 
HETATM   16  C   UNK N   1      28.589  17.005   3.827  0.00  0.00     0.047 A 
HETATM   17  N   UNK N   1      26.129  16.834   3.909  0.00  0.00    -0.340 N 
HETATM   18  H   UNK N   1      25.895  16.751   2.955  0.00  0.00     0.167 HD
BRANCH  15  19
HETATM   19  C   UNK N   1      31.081  17.231   4.036  0.00  0.00     0.102 C 
HETATM   20  N   UNK N   1      31.226  17.117   2.766  0.00  0.00    -0.385 N 
HETATM   21  H   UNK N   1      32.116  17.229   2.360  0.00  0.00     0.157 HD
ATOM     22  HN  UNK N   1      30.419  16.910   2.178  1.00  0.00     0.157 HD
BRANCH  19  23
HETATM   23  N   UNK N   1      32.222  17.414   4.851  0.00  0.00    -0.385 N 
HETATM   24  H   UNK N   1      32.588  18.317   4.994  0.00  0.00     0.157 HD
HETATM   25  H   UNK N   1      32.651  16.637   5.276  0.00  0.00     0.157 HD
ENDBRANCH  19  23
ENDBRANCH  15  19
ENDBRANCH   4   8
BRANCH   6  26
HETATM   26  O   UNK N   1      23.630  15.285   6.827  0.00  0.00    -0.358 OA
ATOM     27  HO  UNK N   1      23.459  15.483   7.740  1.00  0.00     0.217 HD
ENDBRANCH   6  26
BRANCH   3  28
HETATM   28  C   UNK N   1      21.176  18.437   2.788  0.00  0.00     0.126 C 
BRANCH  28  29
HETATM   29  C   UNK N   1      20.873  19.811   3.397  0.00  0.00     0.133 C 
BRANCH  29  30
HETATM   30  C   UNK N   1      21.454  20.907   2.548  0.00  0.00     0.173 C 
HETATM   31  O   UNK N   1      22.537  21.383   2.836  0.00  0.00    -0.648 OA
HETATM   32  O   UNK N   1      20.810  21.332   1.442  0.00  0.00    -0.648 OA
ENDBRANCH  29  30
ENDBRANCH  28  29
BRANCH  28  33
HETATM   33  C   UNK N   1      19.933  17.834   2.135  0.00  0.00     0.148 C 
HETATM   34  O   UNK N   1      20.023  16.871   1.388  0.00  0.00    -0.649 OA
BRANCH  33  35
HETATM   35  O   UNK N   1      18.719  18.374   2.367  0.00  0.00    -0.776 OA
HETATM   36  H   UNK N   1      18.481  19.208   2.719  0.00  0.00     0.167 HD
ENDBRANCH  33  35
ENDBRANCH  28  33
ENDBRANCH   3  28
TORSDOF 9
ENDMDL
