MODEL 1
REMARK VINA RESULT:      -5.1      0.000      0.000
REMARK  6 active torsions:
REMARK  status: ('A' for Active; 'I' for Inactive)
REMARK    1  A    between atoms: C_2  and  C_4 
REMARK    2  A    between atoms: C_4  and  N_5 
REMARK    3  A    between atoms: C_4  and  C_6 
REMARK    4  A    between atoms: C_6  and  O_7 
REMARK    5  A    between atoms: O_7  and  C_8 
REMARK    6  A    between atoms: C_8  and  C_9 
ROOT
HETATM    1  C   UNK N   1      29.393  24.737  -3.606  0.00  0.00     0.200 C 
ENDROOT
BRANCH   1   2
HETATM    2  C   UNK N   1      30.718  24.001  -3.623  0.00  0.00     0.168 C 
BRANCH   2   3
HETATM    3  C   UNK N   1      30.673  22.817  -2.691  0.00  0.00     0.147 C 
HETATM    4  C   UNK N   1      30.808  21.418  -3.205  0.00  0.00     0.093 C 
HETATM    5  O   UNK N   1      30.530  22.996  -1.492  0.00  0.00    -0.296 OA
ENDBRANCH   2   3
BRANCH   2   6
HETATM    6  N   UNK N   1      31.006  23.587  -4.987  0.00  0.00    -0.418 N 
HETATM    7  H   UNK N   1      30.554  24.025  -5.789  0.00  0.00     0.150 HD
HETATM    8  H   UNK N   1      31.678  22.836  -5.146  0.00  0.00     0.150 HD
ENDBRANCH   2   6
ENDBRANCH   1   2
BRANCH   1   9
HETATM    9  O   UNK N   1      28.354  23.891  -4.009  0.00  0.00    -0.384 OA
BRANCH   9  10
HETATM   10  C   UNK N   1      27.253  24.312  -3.255  0.00  0.00     0.206 C 
BRANCH  10  11
HETATM   11  C   UNK N   1      26.505  25.412  -3.942  0.00  0.00    -0.035 A 
HETATM   12  C   UNK N   1      26.375  26.659  -3.324  0.00  0.00     0.009 A 
HETATM   13  C   UNK N   1      25.641  27.677  -3.944  0.00  0.00     0.001 A 
HETATM   14  C   UNK N   1      25.038  27.448  -5.185  0.00  0.00     0.000 A 
HETATM   15  C   UNK N   1      25.167  26.203  -5.806  0.00  0.00     0.001 A 
HETATM   16  C   UNK N   1      25.894  25.185  -5.183  0.00  0.00     0.009 A 
ENDBRANCH  10  11
ENDBRANCH   9  10
ENDBRANCH   1   9
TORSDOF 6
ENDMDL
MODEL 2
REMARK VINA RESULT:      -5.1     19.242     22.482
REMARK  6 active torsions:
REMARK  status: ('A' for Active; 'I' for Inactive)
REMARK    1  A    between atoms: C_2  and  C_4 
REMARK    2  A    between atoms: C_4  and  N_5 
REMARK    3  A    between atoms: C_4  and  C_6 
REMARK    4  A    between atoms: C_6  and  O_7 
REMARK    5  A    between atoms: O_7  and  C_8 
REMARK    6  A    between atoms: C_8  and  C_9 
ROOT
HETATM    1  C   UNK N   1      35.305  14.029  11.747  0.00  0.00     0.200 C 
ENDROOT
BRANCH   1   2
HETATM    2  C   UNK N   1      34.548  15.296  11.397  0.00  0.00     0.168 C 
BRANCH   2   3
HETATM    3  C   UNK N   1      35.401  16.197  10.540  0.00  0.00     0.147 C 
HETATM    4  C   UNK N   1      34.809  16.987   9.415  0.00  0.00     0.093 C 
HETATM    5  O   UNK N   1      36.596  16.293  10.768  0.00  0.00    -0.296 OA
ENDBRANCH   2   3
BRANCH   2   6
HETATM    6  N   UNK N   1      33.317  14.931  10.715  0.00  0.00    -0.418 N 
HETATM    7  H   UNK N   1      33.095  15.280   9.782  0.00  0.00     0.150 HD
HETATM    8  H   UNK N   1      32.656  14.309  11.182  0.00  0.00     0.150 HD
ENDBRANCH   2   6
ENDBRANCH   1   2
BRANCH   1   9
HETATM    9  O   UNK N   1      34.854  13.506  12.964  0.00  0.00    -0.384 OA
BRANCH   9  10
HETATM   10  C   UNK N   1      35.848  13.859  13.883  0.00  0.00     0.206 C 
BRANCH  10  11
HETATM   11  C   UNK N   1      35.865  12.931  15.058  0.00  0.00    -0.035 A 
HETATM   12  C   UNK N   1      36.554  11.717  14.978  0.00  0.00     0.009 A 
HETATM   13  C   UNK N   1      36.537  10.828  16.059  0.00  0.00     0.001 A 
HETATM   14  C   UNK N   1      35.834  11.155  17.222  0.00  0.00     0.000 A 
HETATM   15  C   UNK N   1      35.145  12.368  17.306  0.00  0.00     0.001 A 
HETATM   16  C   UNK N   1      35.156  13.252  16.223  0.00  0.00     0.009 A 
ENDBRANCH  10  11
ENDBRANCH   9  10
ENDBRANCH   1   9
TORSDOF 6
ENDMDL
MODEL 3
REMARK VINA RESULT:      -5.0     20.473     23.541
REMARK  6 active torsions:
REMARK  status: ('A' for Active; 'I' for Inactive)
REMARK    1  A    between atoms: C_2  and  C_4 
REMARK    2  A    between atoms: C_4  and  N_5 
REMARK    3  A    between atoms: C_4  and  C_6 
REMARK    4  A    between atoms: C_6  and  O_7 
REMARK    5  A    between atoms: O_7  and  C_8 
REMARK    6  A    between atoms: C_8  and  C_9 
ROOT
HETATM    1  C   UNK N   1      35.941  13.864  13.291  0.00  0.00     0.200 C 
ENDROOT
BRANCH   1   2
HETATM    2  C   UNK N   1      35.276  14.500  12.086  0.00  0.00     0.168 C 
BRANCH   2   3
HETATM    3  C   UNK N   1      36.316  15.005  11.118  0.00  0.00     0.147 C 
HETATM    4  C   UNK N   1      37.181  14.061  10.345  0.00  0.00     0.093 C 
HETATM    5  O   UNK N   1      36.454  16.207  10.953  0.00  0.00    -0.296 OA
ENDBRANCH   2   3
BRANCH   2   6
HETATM    6  N   UNK N   1      34.407  13.517  11.458  0.00  0.00    -0.418 N 
HETATM    7  H   UNK N   1      33.766  12.939  12.003  0.00  0.00     0.150 HD
HETATM    8  H   UNK N   1      34.438  13.402  10.445  0.00  0.00     0.150 HD
ENDBRANCH   2   6
ENDBRANCH   1   2
BRANCH   1   9
HETATM    9  O   UNK N   1      34.989  13.539  14.264  0.00  0.00    -0.384 OA
BRANCH   9  10
HETATM   10  C   UNK N   1      35.438  12.324  14.794  0.00  0.00     0.206 C 
BRANCH  10  11
HETATM   11  C   UNK N   1      35.427  12.340  16.291  0.00  0.00    -0.035 A 
HETATM   12  C   UNK N   1      35.611  11.151  17.003  0.00  0.00     0.009 A 
HETATM   13  C   UNK N   1      35.560  11.155  18.401  0.00  0.00     0.001 A 
HETATM   14  C   UNK N   1      35.327  12.350  19.089  0.00  0.00     0.000 A 
HETATM   15  C   UNK N   1      35.144  13.540  18.381  0.00  0.00     0.001 A 
HETATM   16  C   UNK N   1      35.187  13.534  16.984  0.00  0.00     0.009 A 
ENDBRANCH  10  11
ENDBRANCH   9  10
ENDBRANCH   1   9
TORSDOF 6
ENDMDL
MODEL 4
REMARK VINA RESULT:      -5.0     21.004     24.008
REMARK  6 active torsions:
REMARK  status: ('A' for Active; 'I' for Inactive)
REMARK    1  A    between atoms: C_2  and  C_4 
REMARK    2  A    between atoms: C_4  and  N_5 
REMARK    3  A    between atoms: C_4  and  C_6 
REMARK    4  A    between atoms: C_6  and  O_7 
REMARK    5  A    between atoms: O_7  and  C_8 
REMARK    6  A    between atoms: C_8  and  C_9 
ROOT
HETATM    1  C   UNK N   1      35.684  12.764  13.269  0.00  0.00     0.200 C 
ENDROOT
BRANCH   1   2
HETATM    2  C   UNK N   1      36.379  14.032  12.813  0.00  0.00     0.168 C 
BRANCH   2   3
HETATM    3  C   UNK N   1      35.480  14.824  11.899  0.00  0.00     0.147 C 
HETATM    4  C   UNK N   1      35.996  15.996  11.125  0.00  0.00     0.093 C 
HETATM    5  O   UNK N   1      34.308  14.504  11.778  0.00  0.00    -0.296 OA
ENDBRANCH   2   3
BRANCH   2   6
HETATM    6  N   UNK N   1      36.752  14.807  13.986  0.00  0.00    -0.418 N 
HETATM    7  H   UNK N   1      36.960  15.805  13.928  0.00  0.00     0.150 HD
HETATM    8  H   UNK N   1      36.809  14.341  14.892  0.00  0.00     0.150 HD
ENDBRANCH   2   6
ENDBRANCH   1   2
BRANCH   1   9
HETATM    9  O   UNK N   1      36.180  12.348  14.510  0.00  0.00    -0.384 OA
BRANCH   9  10
HETATM   10  C   UNK N   1      35.065  11.817  15.168  0.00  0.00     0.206 C 
BRANCH  10  11
HETATM   11  C   UNK N   1      35.123  12.074  16.642  0.00  0.00    -0.035 A 
HETATM   12  C   UNK N   1      35.063  13.385  17.125  0.00  0.00     0.009 A 
HETATM   13  C   UNK N   1      35.159  13.631  18.499  0.00  0.00     0.001 A 
HETATM   14  C   UNK N   1      35.313  12.566  19.392  0.00  0.00     0.000 A 
HETATM   15  C   UNK N   1      35.372  11.255  18.913  0.00  0.00     0.001 A 
HETATM   16  C   UNK N   1      35.283  11.009  17.539  0.00  0.00     0.009 A 
ENDBRANCH  10  11
ENDBRANCH   9  10
ENDBRANCH   1   9
TORSDOF 6
ENDMDL
MODEL 5
REMARK VINA RESULT:      -5.0     14.233     15.244
REMARK  6 active torsions:
REMARK  status: ('A' for Active; 'I' for Inactive)
REMARK    1  A    between atoms: C_2  and  C_4 
REMARK    2  A    between atoms: C_4  and  N_5 
REMARK    3  A    between atoms: C_4  and  C_6 
REMARK    4  A    between atoms: C_6  and  O_7 
REMARK    5  A    between atoms: O_7  and  C_8 
REMARK    6  A    between atoms: C_8  and  C_9 
ROOT
HETATM    1  C   UNK N   1      33.581  15.682   7.678  0.00  0.00     0.200 C 
ENDROOT
BRANCH   1   2
HETATM    2  C   UNK N   1      34.259  15.837   9.026  0.00  0.00     0.168 C 
BRANCH   2   3
HETATM    3  C   UNK N   1      34.770  17.245   9.197  0.00  0.00     0.147 C 
HETATM    4  C   UNK N   1      34.463  18.311   8.193  0.00  0.00     0.093 C 
HETATM    5  O   UNK N   1      35.442  17.529  10.176  0.00  0.00    -0.296 OA
ENDBRANCH   2   3
BRANCH   2   6
HETATM    6  N   UNK N   1      33.307  15.493  10.070  0.00  0.00    -0.418 N 
HETATM    7  H   UNK N   1      33.380  14.624  10.600  0.00  0.00     0.150 HD
HETATM    8  H   UNK N   1      32.544  16.137  10.278  0.00  0.00     0.150 HD
ENDBRANCH   2   6
ENDBRANCH   1   2
BRANCH   1   9
HETATM    9  O   UNK N   1      32.217  15.412   7.840  0.00  0.00    -0.384 OA
BRANCH   9  10
HETATM   10  C   UNK N   1      31.582  16.298   6.964  0.00  0.00     0.206 C 
BRANCH  10  11
HETATM   11  C   UNK N   1      30.502  17.073   7.654  0.00  0.00    -0.035 A 
HETATM   12  C   UNK N   1      29.205  17.079   7.131  0.00  0.00     0.009 A 
HETATM   13  C   UNK N   1      28.204  17.836   7.750  0.00  0.00     0.001 A 
HETATM   14  C   UNK N   1      28.497  18.584   8.893  0.00  0.00     0.000 A 
HETATM   15  C   UNK N   1      29.792  18.579   9.419  0.00  0.00     0.001 A 
HETATM   16  C   UNK N   1      30.795  17.830   8.797  0.00  0.00     0.009 A 
ENDBRANCH  10  11
ENDBRANCH   9  10
ENDBRANCH   1   9
TORSDOF 6
ENDMDL
MODEL 6
REMARK VINA RESULT:      -4.9      0.827      1.535
REMARK  6 active torsions:
REMARK  status: ('A' for Active; 'I' for Inactive)
REMARK    1  A    between atoms: C_2  and  C_4 
REMARK    2  A    between atoms: C_4  and  N_5 
REMARK    3  A    between atoms: C_4  and  C_6 
REMARK    4  A    between atoms: C_6  and  O_7 
REMARK    5  A    between atoms: O_7  and  C_8 
REMARK    6  A    between atoms: C_8  and  C_9 
ROOT
HETATM    1  C   UNK N   1      29.623  24.199  -3.841  0.00  0.00     0.200 C 
ENDROOT
BRANCH   1   2
HETATM    2  C   UNK N   1      30.499  22.995  -4.127  0.00  0.00     0.168 C 
BRANCH   2   3
HETATM    3  C   UNK N   1      31.189  22.537  -2.868  0.00  0.00     0.147 C 
HETATM    4  C   UNK N   1      32.290  21.525  -2.909  0.00  0.00     0.093 C 
HETATM    5  O   UNK N   1      30.851  23.001  -1.791  0.00  0.00    -0.296 OA
ENDBRANCH   2   3
BRANCH   2   6
HETATM    6  N   UNK N   1      29.672  21.939  -4.689  0.00  0.00    -0.418 N 
HETATM    7  H   UNK N   1      28.901  22.140  -5.326  0.00  0.00     0.150 HD
HETATM    8  H   UNK N   1      29.869  20.969  -4.439  0.00  0.00     0.150 HD
ENDBRANCH   2   6
ENDBRANCH   1   2
BRANCH   1   9
HETATM    9  O   UNK N   1      28.315  23.974  -4.284  0.00  0.00    -0.384 OA
BRANCH   9  10
HETATM   10  C   UNK N   1      27.510  24.575  -3.310  0.00  0.00     0.206 C 
BRANCH  10  11
HETATM   11  C   UNK N   1      26.590  25.593  -3.909  0.00  0.00    -0.035 A 
HETATM   12  C   UNK N   1      25.901  25.301  -5.090  0.00  0.00     0.009 A 
HETATM   13  C   UNK N   1      25.073  26.265  -5.675  0.00  0.00     0.001 A 
HETATM   14  C   UNK N   1      24.930  27.521  -5.078  0.00  0.00     0.000 A 
HETATM   15  C   UNK N   1      25.616  27.816  -3.897  0.00  0.00     0.001 A 
HETATM   16  C   UNK N   1      26.450  26.856  -3.316  0.00  0.00     0.009 A 
ENDBRANCH  10  11
ENDBRANCH   9  10
ENDBRANCH   1   9
TORSDOF 6
ENDMDL
MODEL 7
REMARK VINA RESULT:      -4.9     12.836     15.254
REMARK  6 active torsions:
REMARK  status: ('A' for Active; 'I' for Inactive)
REMARK    1  A    between atoms: C_2  and  C_4 
REMARK    2  A    between atoms: C_4  and  N_5 
REMARK    3  A    between atoms: C_4  and  C_6 
REMARK    4  A    between atoms: C_6  and  O_7 
REMARK    5  A    between atoms: O_7  and  C_8 
REMARK    6  A    between atoms: C_8  and  C_9 
ROOT
HETATM    1  C   UNK N   1      34.116  17.748   8.475  0.00  0.00     0.200 C 
ENDROOT
BRANCH   1   2
HETATM    2  C   UNK N   1      34.332  16.414   9.162  0.00  0.00     0.168 C 
BRANCH   2   3
HETATM    3  C   UNK N   1      35.240  16.578  10.354  0.00  0.00     0.147 C 
HETATM    4  C   UNK N   1      35.322  15.531  11.420  0.00  0.00     0.093 C 
HETATM    5  O   UNK N   1      35.931  17.580  10.453  0.00  0.00    -0.296 OA
ENDBRANCH   2   3
BRANCH   2   6
HETATM    6  N   UNK N   1      33.039  15.877   9.556  0.00  0.00    -0.418 N 
HETATM    7  H   UNK N   1      32.782  15.757  10.537  0.00  0.00     0.150 HD
HETATM    8  H   UNK N   1      32.370  15.612   8.833  0.00  0.00     0.150 HD
ENDBRANCH   2   6
ENDBRANCH   1   2
BRANCH   1   9
HETATM    9  O   UNK N   1      34.542  17.691   7.143  0.00  0.00    -0.384 OA
BRANCH   9  10
HETATM   10  C   UNK N   1      33.360  17.779   6.398  0.00  0.00     0.206 C 
BRANCH  10  11
HETATM   11  C   UNK N   1      33.427  16.938   5.161  0.00  0.00    -0.035 A 
HETATM   12  C   UNK N   1      32.775  17.356   3.997  0.00  0.00     0.009 A 
HETATM   13  C   UNK N   1      32.801  16.552   2.852  0.00  0.00     0.001 A 
HETATM   14  C   UNK N   1      33.481  15.331   2.869  0.00  0.00     0.000 A 
HETATM   15  C   UNK N   1      34.135  14.910   4.030  0.00  0.00     0.001 A 
HETATM   16  C   UNK N   1      34.103  15.710   5.176  0.00  0.00     0.009 A 
ENDBRANCH  10  11
ENDBRANCH   9  10
ENDBRANCH   1   9
TORSDOF 6
ENDMDL
MODEL 8
REMARK VINA RESULT:      -4.9     11.073     13.991
REMARK  6 active torsions:
REMARK  status: ('A' for Active; 'I' for Inactive)
REMARK    1  A    between atoms: C_2  and  C_4 
REMARK    2  A    between atoms: C_4  and  N_5 
REMARK    3  A    between atoms: C_4  and  C_6 
REMARK    4  A    between atoms: C_6  and  O_7 
REMARK    5  A    between atoms: O_7  and  C_8 
REMARK    6  A    between atoms: C_8  and  C_9 
ROOT
HETATM    1  C   UNK N   1      28.385  18.176   6.524  0.00  0.00     0.200 C 
ENDROOT
BRANCH   1   2
HETATM    2  C   UNK N   1      28.130  19.376   7.416  0.00  0.00     0.168 C 
BRANCH   2   3
HETATM    3  C   UNK N   1      27.259  20.381   6.708  0.00  0.00     0.147 C 
HETATM    4  C   UNK N   1      27.372  20.605   5.232  0.00  0.00     0.093 C 
HETATM    5  O   UNK N   1      26.438  21.024   7.343  0.00  0.00    -0.296 OA
ENDBRANCH   2   3
BRANCH   2   6
HETATM    6  N   UNK N   1      27.509  18.918   8.649  0.00  0.00    -0.418 N 
HETATM    7  H   UNK N   1      28.037  18.831   9.518  0.00  0.00     0.150 HD
HETATM    8  H   UNK N   1      26.518  18.675   8.645  0.00  0.00     0.150 HD
ENDBRANCH   2   6
ENDBRANCH   1   2
BRANCH   1   9
HETATM    9  O   UNK N   1      28.944  17.125   7.259  0.00  0.00    -0.384 OA
BRANCH   9  10
HETATM   10  C   UNK N   1      29.897  16.569   6.398  0.00  0.00     0.206 C 
BRANCH  10  11
HETATM   11  C   UNK N   1      31.276  17.055   6.719  0.00  0.00    -0.035 A 
HETATM   12  C   UNK N   1      32.246  17.114   5.714  0.00  0.00     0.009 A 
HETATM   13  C   UNK N   1      33.548  17.528   6.019  0.00  0.00     0.001 A 
HETATM   14  C   UNK N   1      33.880  17.886   7.329  0.00  0.00     0.000 A 
HETATM   15  C   UNK N   1      32.912  17.829   8.336  0.00  0.00     0.001 A 
HETATM   16  C   UNK N   1      31.614  17.408   8.032  0.00  0.00     0.009 A 
ENDBRANCH  10  11
ENDBRANCH   9  10
ENDBRANCH   1   9
TORSDOF 6
ENDMDL
MODEL 9
REMARK VINA RESULT:      -4.8     12.224     13.861
REMARK  6 active torsions:
REMARK  status: ('A' for Active; 'I' for Inactive)
REMARK    1  A    between atoms: C_2  and  C_4 
REMARK    2  A    between atoms: C_4  and  N_5 
REMARK    3  A    between atoms: C_4  and  C_6 
REMARK    4  A    between atoms: C_6  and  O_7 
REMARK    5  A    between atoms: O_7  and  C_8 
REMARK    6  A    between atoms: C_8  and  C_9 
ROOT
HETATM    1  C   UNK N   1      32.439  16.361   8.672  0.00  0.00     0.200 C 
ENDROOT
BRANCH   1   2
HETATM    2  C   UNK N   1      33.925  16.648   8.570  0.00  0.00     0.168 C 
BRANCH   2   3
HETATM    3  C   UNK N   1      34.195  17.619   7.449  0.00  0.00     0.147 C 
HETATM    4  C   UNK N   1      33.726  17.348   6.054  0.00  0.00     0.093 C 
HETATM    5  O   UNK N   1      34.803  18.653   7.679  0.00  0.00    -0.296 OA
ENDBRANCH   2   3
BRANCH   2   6
HETATM    6  N   UNK N   1      34.388  17.173   9.844  0.00  0.00    -0.418 N 
HETATM    7  H   UNK N   1      34.249  18.149  10.107  0.00  0.00     0.150 HD
HETATM    8  H   UNK N   1      34.867  16.548  10.494  0.00  0.00     0.150 HD
ENDBRANCH   2   6
ENDBRANCH   1   2
BRANCH   1   9
HETATM    9  O   UNK N   1      31.704  17.551   8.647  0.00  0.00    -0.384 OA
BRANCH   9  10
HETATM   10  C   UNK N   1      30.369  17.133   8.634  0.00  0.00     0.206 C 
BRANCH  10  11
HETATM   11  C   UNK N   1      29.612  17.751   7.499  0.00  0.00    -0.035 A 
HETATM   12  C   UNK N   1      28.602  18.683   7.759  0.00  0.00     0.009 A 
HETATM   13  C   UNK N   1      27.865  19.231   6.703  0.00  0.00     0.001 A 
HETATM   14  C   UNK N   1      28.138  18.849   5.386  0.00  0.00     0.000 A 
HETATM   15  C   UNK N   1      29.148  17.920   5.123  0.00  0.00     0.001 A 
HETATM   16  C   UNK N   1      29.879  17.367   6.178  0.00  0.00     0.009 A 
ENDBRANCH  10  11
ENDBRANCH   9  10
ENDBRANCH   1   9
TORSDOF 6
ENDMDL
