MODEL 1
REMARK VINA RESULT:      -5.7      0.000      0.000
REMARK  9 active torsions:
REMARK  status: ('A' for Active; 'I' for Inactive)
REMARK    1  A    between atoms: C_2  and  O_1 
REMARK    2  A    between atoms: C_4  and  C_5 
REMARK    3  A    between atoms: C_5  and  O_6 
REMARK    4  A    between atoms: O_6  and  P_7 
REMARK    5  A    between atoms: P_7  and  O_8 
REMARK    6  A    between atoms: P_7  and  O_9 
REMARK    7  A    between atoms: C_11  and  O_12 
REMARK    8  A    between atoms: C_13  and  O_14 
REMARK    9  A    between atoms: C_15  and  O_16 
ROOT
HETATM    1  C   UNK N   1      36.943  14.926  10.311  0.00  0.00     0.288 C 
HETATM    2  O   UNK N   1      36.442  16.213  10.602  0.00  0.00    -0.349 OA
HETATM    3  C   UNK N   1      35.023  16.221  10.461  0.00  0.00     0.180 C 
HETATM    4  C   UNK N   1      34.314  14.876  10.743  0.00  0.00     0.180 C 
HETATM    5  C   UNK N   1      35.094  14.181  11.855  0.00  0.00     0.183 C 
HETATM    6  C   UNK N   1      36.551  13.929  11.414  0.00  0.00     0.204 C 
ENDROOT
BRANCH   3   7
HETATM    7  C   UNK N   1      34.585  16.851   9.146  0.00  0.00     0.215 C 
BRANCH   7   8
HETATM    8  O   UNK N   1      33.745  15.966   8.456  0.00  0.00    -0.294 OA
BRANCH   8   9
HETATM    9  P   UNK N   1      33.285  16.823   7.010  0.00  0.00     0.390 P 
HETATM   10  O   UNK N   1      33.213  17.972   8.053  0.00  0.00    -0.632 OA
BRANCH   9  11
HETATM   11  O   UNK N   1      34.288  18.034   6.275  0.00  0.00    -0.307 OA
HETATM   12  H   UNK N   1      35.195  17.859   5.979  0.00  0.00     0.222 HD
ENDBRANCH   9  11
BRANCH   9  13
HETATM   13  O   UNK N   1      34.939  16.304   6.903  0.00  0.00    -0.307 OA
HETATM   14  H   UNK N   1      35.538  16.276   6.141  0.00  0.00     0.222 HD
ENDBRANCH   9  13
ENDBRANCH   8   9
ENDBRANCH   7   8
ENDBRANCH   3   7
BRANCH   4  15
HETATM   15  O   UNK N   1      32.994  15.107  11.128  0.00  0.00    -0.390 OA
HETATM   16  H   UNK N   1      32.467  15.785  10.678  0.00  0.00     0.210 HD
ENDBRANCH   4  15
BRANCH   1  17
HETATM   17  O   UNK N   1      38.326  14.964  10.154  0.00  0.00    -0.369 OA
HETATM   18  H   UNK N   1      38.937  14.432  10.688  0.00  0.00     0.212 HD
ENDBRANCH   1  17
BRANCH   5  19
HETATM   19  O   UNK N   1      34.470  13.000  12.268  0.00  0.00    -0.390 OA
HETATM   20  H   UNK N   1      33.724  12.573  11.820  0.00  0.00     0.210 HD
ENDBRANCH   5  19
BRANCH   6  21
HETATM   21  O   UNK N   1      36.719  12.631  10.925  0.00  0.00    -0.388 OA
HETATM   22  H   UNK N   1      36.463  11.723  11.152  0.00  0.00     0.210 HD
ENDBRANCH   6  21
TORSDOF 9
ENDMDL
MODEL 2
REMARK VINA RESULT:      -5.6     14.682     16.920
REMARK  9 active torsions:
REMARK  status: ('A' for Active; 'I' for Inactive)
REMARK    1  A    between atoms: C_2  and  O_1 
REMARK    2  A    between atoms: C_4  and  C_5 
REMARK    3  A    between atoms: C_5  and  O_6 
REMARK    4  A    between atoms: O_6  and  P_7 
REMARK    5  A    between atoms: P_7  and  O_8 
REMARK    6  A    between atoms: P_7  and  O_9 
REMARK    7  A    between atoms: C_11  and  O_12 
REMARK    8  A    between atoms: C_13  and  O_14 
REMARK    9  A    between atoms: C_15  and  O_16 
ROOT
HETATM    1  C   UNK N   1      22.430  19.518   3.489  0.00  0.00     0.288 C 
HETATM    2  O   UNK N   1      22.155  18.158   3.229  0.00  0.00    -0.349 OA
HETATM    3  C   UNK N   1      20.745  17.952   3.185  0.00  0.00     0.180 C 
HETATM    4  C   UNK N   1      19.904  19.163   2.718  0.00  0.00     0.180 C 
HETATM    5  C   UNK N   1      20.729  19.904   1.669  0.00  0.00     0.183 C 
HETATM    6  C   UNK N   1      22.062  20.387   2.275  0.00  0.00     0.204 C 
ENDROOT
BRANCH   3   7
HETATM    7  C   UNK N   1      20.219  17.335   4.474  0.00  0.00     0.215 C 
BRANCH   7   8
HETATM    8  O   UNK N   1      19.009  16.675   4.221  0.00  0.00    -0.294 OA
BRANCH   8   9
HETATM    9  P   UNK N   1      19.118  15.183   5.114  0.00  0.00     0.390 P 
HETATM   10  O   UNK N   1      17.784  15.748   5.673  0.00  0.00    -0.632 OA
BRANCH   9  11
HETATM   11  O   UNK N   1      18.033  13.852   4.859  0.00  0.00    -0.307 OA
HETATM   12  H   UNK N   1      17.190  13.761   5.331  0.00  0.00     0.222 HD
ENDBRANCH   9  11
BRANCH   9  13
HETATM   13  O   UNK N   1      18.892  14.858   3.422  0.00  0.00    -0.307 OA
HETATM   14  H   UNK N   1      19.543  14.671   2.729  0.00  0.00     0.222 HD
ENDBRANCH   9  13
ENDBRANCH   8   9
ENDBRANCH   7   8
ENDBRANCH   3   7
BRANCH   4  15
HETATM   15  O   UNK N   1      18.695  18.723   2.183  0.00  0.00    -0.390 OA
HETATM   16  H   UNK N   1      17.864  18.891   2.653  0.00  0.00     0.210 HD
ENDBRANCH   4  15
BRANCH   1  17
HETATM   17  O   UNK N   1      23.771  19.689   3.827  0.00  0.00    -0.369 OA
HETATM   18  H   UNK N   1      24.065  20.222   4.583  0.00  0.00     0.212 HD
ENDBRANCH   1  17
BRANCH   5  19
HETATM   19  O   UNK N   1      20.013  20.959   1.094  0.00  0.00    -0.390 OA
HETATM   20  H   UNK N   1      20.286  21.889   1.098  0.00  0.00     0.210 HD
ENDBRANCH   5  19
BRANCH   6  21
HETATM   21  O   UNK N   1      21.982  21.720   2.688  0.00  0.00    -0.388 OA
HETATM   22  H   UNK N   1      21.741  22.230   3.477  0.00  0.00     0.210 HD
ENDBRANCH   6  21
TORSDOF 9
ENDMDL
MODEL 3
REMARK VINA RESULT:      -5.6      2.419      5.592
REMARK  9 active torsions:
REMARK  status: ('A' for Active; 'I' for Inactive)
REMARK    1  A    between atoms: C_2  and  O_1 
REMARK    2  A    between atoms: C_4  and  C_5 
REMARK    3  A    between atoms: C_5  and  O_6 
REMARK    4  A    between atoms: O_6  and  P_7 
REMARK    5  A    between atoms: P_7  and  O_8 
REMARK    6  A    between atoms: P_7  and  O_9 
REMARK    7  A    between atoms: C_11  and  O_12 
REMARK    8  A    between atoms: C_13  and  O_14 
REMARK    9  A    between atoms: C_15  and  O_16 
ROOT
HETATM    1  C   UNK N   1      33.179  16.094   7.405  0.00  0.00     0.288 C 
HETATM    2  O   UNK N   1      32.632  15.913   8.693  0.00  0.00    -0.349 OA
HETATM    3  C   UNK N   1      33.662  16.013   9.673  0.00  0.00     0.180 C 
HETATM    4  C   UNK N   1      34.851  16.929   9.304  0.00  0.00     0.180 C 
HETATM    5  C   UNK N   1      34.290  18.086   8.482  0.00  0.00     0.183 C 
HETATM    6  C   UNK N   1      33.612  17.556   7.201  0.00  0.00     0.204 C 
ENDROOT
BRANCH   3   7
HETATM    7  C   UNK N   1      34.108  14.646  10.173  0.00  0.00     0.215 C 
BRANCH   7   8
HETATM    8  O   UNK N   1      34.197  14.662  11.572  0.00  0.00    -0.294 OA
BRANCH   8   9
HETATM    9  P   UNK N   1      35.718  13.891  11.931  0.00  0.00     0.390 P 
HETATM   10  O   UNK N   1      36.029  15.347  12.374  0.00  0.00    -0.632 OA
BRANCH   9  11
HETATM   11  O   UNK N   1      36.293  13.654  13.552  0.00  0.00    -0.307 OA
HETATM   12  H   UNK N   1      36.166  12.826  14.041  0.00  0.00     0.222 HD
ENDBRANCH   9  11
BRANCH   9  13
HETATM   13  O   UNK N   1      34.469  13.273  12.969  0.00  0.00    -0.307 OA
HETATM   14  H   UNK N   1      33.602  13.644  13.193  0.00  0.00     0.222 HD
ENDBRANCH   9  13
ENDBRANCH   8   9
ENDBRANCH   7   8
ENDBRANCH   3   7
BRANCH   4  15
HETATM   15  O   UNK N   1      35.469  17.395  10.464  0.00  0.00    -0.390 OA
HETATM   16  H   UNK N   1      35.312  18.302  10.769  0.00  0.00     0.210 HD
ENDBRANCH   4  15
BRANCH   1  17
HETATM   17  O   UNK N   1      32.264  15.713   6.426  0.00  0.00    -0.369 OA
HETATM   18  H   UNK N   1      32.177  14.801   6.106  0.00  0.00     0.212 HD
ENDBRANCH   1  17
BRANCH   5  19
HETATM   19  O   UNK N   1      35.269  19.040   8.189  0.00  0.00    -0.390 OA
HETATM   20  H   UNK N   1      35.630  19.220   7.307  0.00  0.00     0.210 HD
ENDBRANCH   5  19
BRANCH   6  21
HETATM   21  O   UNK N   1      34.475  17.618   6.104  0.00  0.00    -0.388 OA
HETATM   22  H   UNK N   1      35.147  18.211   5.732  0.00  0.00     0.210 HD
ENDBRANCH   6  21
TORSDOF 9
ENDMDL
MODEL 4
REMARK VINA RESULT:      -5.6     12.011     13.617
REMARK  9 active torsions:
REMARK  status: ('A' for Active; 'I' for Inactive)
REMARK    1  A    between atoms: C_2  and  O_1 
REMARK    2  A    between atoms: C_4  and  C_5 
REMARK    3  A    between atoms: C_5  and  O_6 
REMARK    4  A    between atoms: O_6  and  P_7 
REMARK    5  A    between atoms: P_7  and  O_8 
REMARK    6  A    between atoms: P_7  and  O_9 
REMARK    7  A    between atoms: C_11  and  O_12 
REMARK    8  A    between atoms: C_13  and  O_14 
REMARK    9  A    between atoms: C_15  and  O_16 
ROOT
HETATM    1  C   UNK N   1      21.755  12.340  11.082  0.00  0.00     0.288 C 
HETATM    2  O   UNK N   1      21.709  11.973   9.720  0.00  0.00    -0.349 OA
HETATM    3  C   UNK N   1      22.670  12.726   8.984  0.00  0.00     0.180 C 
HETATM    4  C   UNK N   1      23.927  13.162   9.774  0.00  0.00     0.180 C 
HETATM    5  C   UNK N   1      24.240  12.049  10.769  0.00  0.00     0.183 C 
HETATM    6  C   UNK N   1      23.055  11.840  11.734  0.00  0.00     0.204 C 
ENDROOT
BRANCH   3   7
HETATM    7  C   UNK N   1      22.030  13.877   8.220  0.00  0.00     0.215 C 
BRANCH   7   8
HETATM    8  O   UNK N   1      20.635  13.790   8.320  0.00  0.00    -0.294 OA
BRANCH   8   9
HETATM    9  P   UNK N   1      20.131  15.346   8.920  0.00  0.00     0.390 P 
HETATM   10  O   UNK N   1      19.481  15.365   7.509  0.00  0.00    -0.632 OA
BRANCH   9  11
HETATM   11  O   UNK N   1      18.478  15.720   9.295  0.00  0.00    -0.307 OA
HETATM   12  H   UNK N   1      18.209  16.545   9.730  0.00  0.00     0.222 HD
ENDBRANCH   9  11
BRANCH   9  13
HETATM   13  O   UNK N   1      19.380  14.076   9.837  0.00  0.00    -0.307 OA
HETATM   14  H   UNK N   1      19.532  13.118   9.820  0.00  0.00     0.222 HD
ENDBRANCH   9  13
ENDBRANCH   8   9
ENDBRANCH   7   8
ENDBRANCH   3   7
BRANCH   4  15
HETATM   15  O   UNK N   1      24.992  13.362   8.897  0.00  0.00    -0.390 OA
HETATM   16  H   UNK N   1      24.929  13.061   7.977  0.00  0.00     0.210 HD
ENDBRANCH   4  15
BRANCH   1  17
HETATM   17  O   UNK N   1      20.644  11.845  11.760  0.00  0.00    -0.369 OA
HETATM   18  H   UNK N   1      20.618  11.727  12.723  0.00  0.00     0.212 HD
ENDBRANCH   1  17
BRANCH   5  19
HETATM   19  O   UNK N   1      25.431  12.290  11.462  0.00  0.00    -0.390 OA
HETATM   20  H   UNK N   1      25.509  12.395  12.422  0.00  0.00     0.210 HD
ENDBRANCH   5  19
BRANCH   6  21
HETATM   21  O   UNK N   1      23.247  12.528  12.935  0.00  0.00    -0.388 OA
HETATM   22  H   UNK N   1      23.159  12.377  13.889  0.00  0.00     0.210 HD
ENDBRANCH   6  21
TORSDOF 9
ENDMDL
MODEL 5
REMARK VINA RESULT:      -5.2      2.968      5.485
REMARK  9 active torsions:
REMARK  status: ('A' for Active; 'I' for Inactive)
REMARK    1  A    between atoms: C_2  and  O_1 
REMARK    2  A    between atoms: C_4  and  C_5 
REMARK    3  A    between atoms: C_5  and  O_6 
REMARK    4  A    between atoms: O_6  and  P_7 
REMARK    5  A    between atoms: P_7  and  O_8 
REMARK    6  A    between atoms: P_7  and  O_9 
REMARK    7  A    between atoms: C_11  and  O_12 
REMARK    8  A    between atoms: C_13  and  O_14 
REMARK    9  A    between atoms: C_15  and  O_16 
ROOT
HETATM    1  C   UNK N   1      35.226  16.643  10.416  0.00  0.00     0.288 C 
HETATM    2  O   UNK N   1      36.345  15.803  10.598  0.00  0.00    -0.349 OA
HETATM    3  C   UNK N   1      35.953  14.622  11.294  0.00  0.00     0.180 C 
HETATM    4  C   UNK N   1      34.492  14.167  11.073  0.00  0.00     0.180 C 
HETATM    5  C   UNK N   1      34.126  14.514   9.633  0.00  0.00     0.183 C 
HETATM    6  C   UNK N   1      34.250  16.033   9.397  0.00  0.00     0.204 C 
ENDROOT
BRANCH   3   7
HETATM    7  C   UNK N   1      36.334  14.677  12.767  0.00  0.00     0.215 C 
BRANCH   7   8
HETATM    8  O   UNK N   1      35.290  14.155  13.544  0.00  0.00    -0.294 OA
BRANCH   8   9
HETATM    9  P   UNK N   1      36.081  13.355  14.875  0.00  0.00     0.390 P 
HETATM   10  O   UNK N   1      36.282  12.300  13.753  0.00  0.00    -0.632 OA
BRANCH   9  11
HETATM   11  O   UNK N   1      37.797  13.097  14.933  0.00  0.00    -0.307 OA
HETATM   12  H   UNK N   1      38.398  13.390  14.230  0.00  0.00     0.222 HD
ENDBRANCH   9  11
BRANCH   9  13
HETATM   13  O   UNK N   1      36.958  14.785  14.425  0.00  0.00    -0.307 OA
HETATM   14  H   UNK N   1      37.680  14.902  13.789  0.00  0.00     0.222 HD
ENDBRANCH   9  13
ENDBRANCH   8   9
ENDBRANCH   7   8
ENDBRANCH   3   7
BRANCH   4  15
HETATM   15  O   UNK N   1      34.383  12.796  11.300  0.00  0.00    -0.390 OA
HETATM   16  H   UNK N   1      33.870  12.466  12.054  0.00  0.00     0.210 HD
ENDBRANCH   4  15
BRANCH   1  17
HETATM   17  O   UNK N   1      35.628  17.914  10.010  0.00  0.00    -0.369 OA
HETATM   18  H   UNK N   1      36.559  18.172   9.917  0.00  0.00     0.212 HD
ENDBRANCH   1  17
BRANCH   5  19
HETATM   19  O   UNK N   1      32.857  14.041   9.290  0.00  0.00    -0.390 OA
HETATM   20  H   UNK N   1      32.674  13.213   8.820  0.00  0.00     0.210 HD
ENDBRANCH   5  19
BRANCH   6  21
HETATM   21  O   UNK N   1      33.012  16.671   9.524  0.00  0.00    -0.388 OA
HETATM   22  H   UNK N   1      32.151  16.694   9.080  0.00  0.00     0.210 HD
ENDBRANCH   6  21
TORSDOF 9
ENDMDL
MODEL 6
REMARK VINA RESULT:      -5.1      3.444      5.602
REMARK  9 active torsions:
REMARK  status: ('A' for Active; 'I' for Inactive)
REMARK    1  A    between atoms: C_2  and  O_1 
REMARK    2  A    between atoms: C_4  and  C_5 
REMARK    3  A    between atoms: C_5  and  O_6 
REMARK    4  A    between atoms: O_6  and  P_7 
REMARK    5  A    between atoms: P_7  and  O_8 
REMARK    6  A    between atoms: P_7  and  O_9 
REMARK    7  A    between atoms: C_11  and  O_12 
REMARK    8  A    between atoms: C_13  and  O_14 
REMARK    9  A    between atoms: C_15  and  O_16 
ROOT
HETATM    1  C   UNK N   1      33.773  17.251   9.164  0.00  0.00     0.288 C 
HETATM    2  O   UNK N   1      32.961  16.100   9.076  0.00  0.00    -0.349 OA
HETATM    3  C   UNK N   1      31.872  16.347   8.190  0.00  0.00     0.180 C 
HETATM    4  C   UNK N   1      32.144  17.366   7.059  0.00  0.00     0.180 C 
HETATM    5  C   UNK N   1      33.604  17.203   6.649  0.00  0.00     0.183 C 
HETATM    6  C   UNK N   1      34.534  17.480   7.848  0.00  0.00     0.204 C 
ENDROOT
BRANCH   3   7
HETATM    7  C   UNK N   1      30.580  16.636   8.943  0.00  0.00     0.215 C 
BRANCH   7   8
HETATM    8  O   UNK N   1      29.649  17.220   8.073  0.00  0.00    -0.294 OA
BRANCH   8   9
HETATM    9  P   UNK N   1      28.289  17.628   9.084  0.00  0.00     0.390 P 
HETATM   10  O   UNK N   1      29.291  18.741   9.498  0.00  0.00    -0.632 OA
BRANCH   9  11
HETATM   11  O   UNK N   1      27.342  19.065   8.851  0.00  0.00    -0.307 OA
HETATM   12  H   UNK N   1      27.734  19.927   8.643  0.00  0.00     0.222 HD
ENDBRANCH   9  11
BRANCH   9  13
HETATM   13  O   UNK N   1      27.890  17.867   7.410  0.00  0.00    -0.307 OA
HETATM   14  H   UNK N   1      27.321  17.346   6.822  0.00  0.00     0.222 HD
ENDBRANCH   9  13
ENDBRANCH   8   9
ENDBRANCH   7   8
ENDBRANCH   3   7
BRANCH   4  15
HETATM   15  O   UNK N   1      31.292  17.119   5.983  0.00  0.00    -0.390 OA
HETATM   16  H   UNK N   1      30.349  16.954   6.136  0.00  0.00     0.210 HD
ENDBRANCH   4  15
BRANCH   1  17
HETATM   17  O   UNK N   1      34.662  17.141  10.231  0.00  0.00    -0.369 OA
HETATM   18  H   UNK N   1      34.726  16.351  10.791  0.00  0.00     0.212 HD
ENDBRANCH   1  17
BRANCH   5  19
HETATM   19  O   UNK N   1      33.929  18.002   5.550  0.00  0.00    -0.390 OA
HETATM   20  H   UNK N   1      34.687  18.605   5.498  0.00  0.00     0.210 HD
ENDBRANCH   5  19
BRANCH   6  21
HETATM   21  O   UNK N   1      35.011  18.794   7.830  0.00  0.00    -0.388 OA
HETATM   22  H   UNK N   1      35.535  19.391   8.386  0.00  0.00     0.210 HD
ENDBRANCH   6  21
TORSDOF 9
ENDMDL
MODEL 7
REMARK VINA RESULT:      -5.1      1.583      2.753
REMARK  9 active torsions:
REMARK  status: ('A' for Active; 'I' for Inactive)
REMARK    1  A    between atoms: C_2  and  O_1 
REMARK    2  A    between atoms: C_4  and  C_5 
REMARK    3  A    between atoms: C_5  and  O_6 
REMARK    4  A    between atoms: O_6  and  P_7 
REMARK    5  A    between atoms: P_7  and  O_8 
REMARK    6  A    between atoms: P_7  and  O_9 
REMARK    7  A    between atoms: C_11  and  O_12 
REMARK    8  A    between atoms: C_13  and  O_14 
REMARK    9  A    between atoms: C_15  and  O_16 
ROOT
HETATM    1  C   UNK N   1      34.410  13.125  10.355  0.00  0.00     0.288 C 
HETATM    2  O   UNK N   1      35.192  13.433   9.222  0.00  0.00    -0.349 OA
HETATM    3  C   UNK N   1      35.729  14.748   9.350  0.00  0.00     0.180 C 
HETATM    4  C   UNK N   1      35.982  15.231  10.797  0.00  0.00     0.180 C 
HETATM    5  C   UNK N   1      36.409  14.013  11.610  0.00  0.00     0.183 C 
HETATM    6  C   UNK N   1      35.301  12.940  11.595  0.00  0.00     0.204 C 
ENDROOT
BRANCH   3   7
HETATM    7  C   UNK N   1      34.955  15.762   8.519  0.00  0.00     0.215 C 
BRANCH   7   8
HETATM    8  O   UNK N   1      34.963  17.005   9.166  0.00  0.00    -0.294 OA
BRANCH   8   9
HETATM    9  P   UNK N   1      34.078  18.067   8.105  0.00  0.00     0.390 P 
HETATM   10  O   UNK N   1      34.687  17.080   7.071  0.00  0.00    -0.632 OA
BRANCH   9  11
HETATM   11  O   UNK N   1      32.669  17.558   7.226  0.00  0.00    -0.307 OA
HETATM   12  H   UNK N   1      31.836  18.055   7.233  0.00  0.00     0.222 HD
ENDBRANCH   9  11
BRANCH   9  13
HETATM   13  O   UNK N   1      32.983  17.173   9.115  0.00  0.00    -0.307 OA
HETATM   14  H   UNK N   1      33.109  16.336   9.587  0.00  0.00     0.222 HD
ENDBRANCH   9  13
ENDBRANCH   8   9
ENDBRANCH   7   8
ENDBRANCH   3   7
BRANCH   4  15
HETATM   15  O   UNK N   1      36.975  16.210  10.803  0.00  0.00    -0.390 OA
HETATM   16  H   UNK N   1      36.882  16.995  11.364  0.00  0.00     0.210 HD
ENDBRANCH   4  15
BRANCH   1  17
HETATM   17  O   UNK N   1      33.645  11.984  10.127  0.00  0.00    -0.369 OA
HETATM   18  H   UNK N   1      33.637  11.511   9.279  0.00  0.00     0.212 HD
ENDBRANCH   1  17
BRANCH   5  19
HETATM   19  O   UNK N   1      36.773  14.359  12.914  0.00  0.00    -0.390 OA
HETATM   20  H   UNK N   1      37.476  13.936  13.431  0.00  0.00     0.210 HD
ENDBRANCH   5  19
BRANCH   6  21
HETATM   21  O   UNK N   1      34.499  13.020  12.738  0.00  0.00    -0.388 OA
HETATM   22  H   UNK N   1      33.779  12.529  13.164  0.00  0.00     0.210 HD
ENDBRANCH   6  21
TORSDOF 9
ENDMDL
MODEL 8
REMARK VINA RESULT:      -5.1     13.861     16.305
REMARK  9 active torsions:
REMARK  status: ('A' for Active; 'I' for Inactive)
REMARK    1  A    between atoms: C_2  and  O_1 
REMARK    2  A    between atoms: C_4  and  C_5 
REMARK    3  A    between atoms: C_5  and  O_6 
REMARK    4  A    between atoms: O_6  and  P_7 
REMARK    5  A    between atoms: P_7  and  O_8 
REMARK    6  A    between atoms: P_7  and  O_9 
REMARK    7  A    between atoms: C_11  and  O_12 
REMARK    8  A    between atoms: C_13  and  O_14 
REMARK    9  A    between atoms: C_15  and  O_16 
ROOT
HETATM    1  C   UNK N   1      20.627  18.459   1.159  0.00  0.00     0.288 C 
HETATM    2  O   UNK N   1      19.725  17.919   2.101  0.00  0.00    -0.349 OA
HETATM    3  C   UNK N   1      20.241  18.095   3.418  0.00  0.00     0.180 C 
HETATM    4  C   UNK N   1      21.150  19.329   3.623  0.00  0.00     0.180 C 
HETATM    5  C   UNK N   1      20.612  20.438   2.723  0.00  0.00     0.183 C 
HETATM    6  C   UNK N   1      20.645  19.995   1.246  0.00  0.00     0.204 C 
ENDROOT
BRANCH   3   7
HETATM    7  C   UNK N   1      20.859  16.815   3.964  0.00  0.00     0.215 C 
BRANCH   7   8
HETATM    8  O   UNK N   1      20.760  16.802   5.361  0.00  0.00    -0.294 OA
BRANCH   8   9
HETATM    9  P   UNK N   1      22.207  15.997   5.905  0.00  0.00     0.390 P 
HETATM   10  O   UNK N   1      22.505  16.116   4.385  0.00  0.00    -0.632 OA
BRANCH   9  11
HETATM   11  O   UNK N   1      23.765  16.763   5.906  0.00  0.00    -0.307 OA
HETATM   12  H   UNK N   1      23.880  17.725   5.959  0.00  0.00     0.222 HD
ENDBRANCH   9  11
BRANCH   9  13
HETATM   13  O   UNK N   1      22.129  17.604   6.560  0.00  0.00    -0.307 OA
HETATM   14  H   UNK N   1      22.837  18.240   6.745  0.00  0.00     0.222 HD
ENDBRANCH   9  13
ENDBRANCH   8   9
ENDBRANCH   7   8
ENDBRANCH   3   7
BRANCH   4  15
HETATM   15  O   UNK N   1      21.127  19.718   4.962  0.00  0.00    -0.390 OA
HETATM   16  H   UNK N   1      21.790  19.375   5.580  0.00  0.00     0.210 HD
ENDBRANCH   4  15
BRANCH   1  17
HETATM   17  O   UNK N   1      20.296  18.045  -0.129  0.00  0.00    -0.369 OA
HETATM   18  H   UNK N   1      19.585  18.449  -0.651  0.00  0.00     0.212 HD
ENDBRANCH   1  17
BRANCH   5  19
HETATM   19  O   UNK N   1      21.295  21.642   2.915  0.00  0.00    -0.390 OA
HETATM   20  H   UNK N   1      20.935  22.427   3.354  0.00  0.00     0.210 HD
ENDBRANCH   5  19
BRANCH   6  21
HETATM   21  O   UNK N   1      21.790  20.466   0.597  0.00  0.00    -0.388 OA
HETATM   22  H   UNK N   1      22.303  21.285   0.518  0.00  0.00     0.210 HD
ENDBRANCH   6  21
TORSDOF 9
ENDMDL
MODEL 9
REMARK VINA RESULT:      -5.0      1.502      2.536
REMARK  9 active torsions:
REMARK  status: ('A' for Active; 'I' for Inactive)
REMARK    1  A    between atoms: C_2  and  O_1 
REMARK    2  A    between atoms: C_4  and  C_5 
REMARK    3  A    between atoms: C_5  and  O_6 
REMARK    4  A    between atoms: O_6  and  P_7 
REMARK    5  A    between atoms: P_7  and  O_8 
REMARK    6  A    between atoms: P_7  and  O_9 
REMARK    7  A    between atoms: C_11  and  O_12 
REMARK    8  A    between atoms: C_13  and  O_14 
REMARK    9  A    between atoms: C_15  and  O_16 
ROOT
HETATM    1  C   UNK N   1      35.622  14.148  12.512  0.00  0.00     0.288 C 
HETATM    2  O   UNK N   1      34.511  14.539  11.735  0.00  0.00    -0.349 OA
HETATM    3  C   UNK N   1      34.954  15.024  10.470  0.00  0.00     0.180 C 
HETATM    4  C   UNK N   1      36.272  14.411   9.942  0.00  0.00     0.180 C 
HETATM    5  C   UNK N   1      36.306  12.956  10.398  0.00  0.00     0.183 C 
HETATM    6  C   UNK N   1      36.263  12.874  11.938  0.00  0.00     0.204 C 
ENDROOT
BRANCH   3   7
HETATM    7  C   UNK N   1      34.949  16.545  10.409  0.00  0.00     0.215 C 
BRANCH   7   8
HETATM    8  O   UNK N   1      35.498  16.970   9.192  0.00  0.00    -0.294 OA
BRANCH   8   9
HETATM    9  P   UNK N   1      34.174  17.721   8.343  0.00  0.00     0.390 P 
HETATM   10  O   UNK N   1      35.169  18.911   8.422  0.00  0.00    -0.632 OA
BRANCH   9  11
HETATM   11  O   UNK N   1      34.278  18.208   6.679  0.00  0.00    -0.307 OA
HETATM   12  H   UNK N   1      33.963  19.069   6.361  0.00  0.00     0.222 HD
ENDBRANCH   9  11
BRANCH   9  13
HETATM   13  O   UNK N   1      34.898  16.485   7.359  0.00  0.00    -0.307 OA
HETATM   14  H   UNK N   1      35.043  16.453   6.401  0.00  0.00     0.222 HD
ENDBRANCH   9  13
ENDBRANCH   8   9
ENDBRANCH   7   8
ENDBRANCH   3   7
BRANCH   4  15
HETATM   15  O   UNK N   1      36.312  14.499   8.551  0.00  0.00    -0.390 OA
HETATM   16  H   UNK N   1      35.728  15.117   8.085  0.00  0.00     0.210 HD
ENDBRANCH   4  15
BRANCH   1  17
HETATM   17  O   UNK N   1      35.246  13.952  13.839  0.00  0.00    -0.369 OA
HETATM   18  H   UNK N   1      34.593  13.289  14.114  0.00  0.00     0.212 HD
ENDBRANCH   1  17
BRANCH   5  19
HETATM   19  O   UNK N   1      37.408  12.272   9.877  0.00  0.00    -0.390 OA
HETATM   20  H   UNK N   1      37.968  12.583   9.149  0.00  0.00     0.210 HD
ENDBRANCH   5  19
BRANCH   6  21
HETATM   21  O   UNK N   1      37.546  12.736  12.478  0.00  0.00    -0.388 OA
HETATM   22  H   UNK N   1      38.129  12.037  12.812  0.00  0.00     0.210 HD
ENDBRANCH   6  21
TORSDOF 9
ENDMDL
