REMARK  7 active torsions:
REMARK  status: ('A' for Active; 'I' for Inactive)
REMARK    1  A    between atoms: O_1  and  C_2 
REMARK    2  A    between atoms: C_2  and  C_3 
REMARK    3  A    between atoms: C_3  and  C_4 
REMARK    4  A    between atoms: C_4  and  C_5 
REMARK    5  A    between atoms: C_5  and  C_6 
REMARK    6  A    between atoms: C_6  and  C_7 
REMARK    7  A    between atoms: C_7  and  O_8 
ROOT
HETATM    1  C   UNK N   1       2.880   1.988  -0.000  0.00  0.00     0.002 C 
ENDROOT
BRANCH   1   2
HETATM    2  C   UNK N   1       1.778   0.956  -0.000  0.00  0.00     0.026 C 
BRANCH   2   3
HETATM    3  C   UNK N   1       0.440   1.658   0.000  0.00  0.00     0.164 C 
BRANCH   3   4
HETATM    4  O   UNK N   1      -0.577   0.708   0.000  0.00  0.00    -0.401 OA
HETATM    5  H   UNK N   1      -1.505   0.990   0.000  0.00  0.00     0.209 HD
ENDBRANCH   3   4
ENDBRANCH   2   3
ENDBRANCH   1   2
BRANCH   1   6
HETATM    6  C   UNK N   1       4.214   1.282  -0.000  0.00  0.00     0.002 C 
BRANCH   6   7
HETATM    7  C   UNK N   1       5.315   2.314  -0.000  0.00  0.00     0.026 C 
BRANCH   7   8
HETATM    8  C   UNK N   1       6.654   1.612   0.000  0.00  0.00     0.164 C 
BRANCH   8   9
HETATM    9  O   UNK N   1       7.670   2.563   0.000  0.00  0.00    -0.401 OA
HETATM   10  H   UNK N   1       8.598   2.280   0.000  0.00  0.00     0.209 HD
ENDBRANCH   8   9
ENDBRANCH   7   8
ENDBRANCH   6   7
ENDBRANCH   1   6
TORSDOF 7
