REMARK  11 active torsions:
REMARK  status: ('A' for Active; 'I' for Inactive)
REMARK    1  A    between atoms: O_1  and  C_2 
REMARK    2  A    between atoms: C_2  and  C_3 
REMARK    3  A    between atoms: C_3  and  C_4 
REMARK    4  A    between atoms: C_3  and  C_6 
REMARK    5  A    between atoms: C_3  and  N_8 
REMARK    6  A    between atoms: C_4  and  O_5 
REMARK    7  A    between atoms: C_6  and  O_7 
REMARK    8  A    between atoms: N_8  and  C_9 
REMARK    9  A    between atoms: C_9  and  C_10 
REMARK   10  A    between atoms: C_10  and  S_11 
REMARK   11  A    between atoms: S_11  and  O_12 
ROOT
HETATM    1  C   UNK N   1       2.088  -1.642  -0.095  0.00  0.00     0.089 C 
ENDROOT
BRANCH   1   2
HETATM    2  C   UNK N   1       1.081  -1.110  -1.120  0.00  0.00     0.199 C 
BRANCH   2   3
HETATM    3  O   UNK N   1      -0.163  -0.838  -0.544  0.00  0.00    -0.398 OA
HETATM    4  H   UNK N   1      -0.431   0.004  -0.145  0.00  0.00     0.209 HD
ENDBRANCH   2   3
ENDBRANCH   1   2
BRANCH   1   5
HETATM    5  C   UNK N   1       1.616  -3.007   0.439  0.00  0.00     0.199 C 
BRANCH   5   6
HETATM    6  O   UNK N   1       0.405  -2.912   1.127  0.00  0.00    -0.398 OA
HETATM    7  H   UNK N   1       0.042  -2.150   1.606  0.00  0.00     0.209 HD
ENDBRANCH   5   6
ENDBRANCH   1   5
BRANCH   1   8
HETATM    8  C   UNK N   1       2.239  -0.637   1.060  0.00  0.00     0.199 C 
BRANCH   8   9
HETATM    9  O   UNK N   1       2.740   0.582   0.596  0.00  0.00    -0.398 OA
HETATM   10  H   UNK N   1       3.647   0.704   0.273  0.00  0.00     0.209 HD
ENDBRANCH   8   9
ENDBRANCH   1   8
BRANCH   1  11
HETATM   11  N   UNK N   1       3.365  -1.809  -0.797  0.00  0.00    -0.406 N 
HETATM   12  H   UNK N   1       3.504  -1.602  -1.786  0.00  0.00     0.154 HD
BRANCH  11  13
HETATM   13  C   UNK N   1       4.412  -2.306   0.091  0.00  0.00     0.131 C 
BRANCH  13  14
HETATM   14  C   UNK N   1       5.747  -2.220  -0.620  0.00  0.00     0.174 C 
BRANCH  14  15
HETATM   15  S   UNK N   1       7.011  -1.625   0.537  0.00  0.00     0.095 S 
HETATM   16  O   UNK N   1       6.649  -0.544  -0.493  0.00  0.00    -0.601 OA
HETATM   17  O   UNK N   1       7.664  -2.687  -0.362  0.00  0.00    -0.601 OA
BRANCH  15  18
HETATM   18  O   UNK N   1       8.513  -0.875   0.182  0.00  0.00    -0.296 OA
HETATM   19  H   UNK N   1       9.305  -1.398  -0.018  0.00  0.00     0.232 HD
ENDBRANCH  15  18
ENDBRANCH  14  15
ENDBRANCH  13  14
ENDBRANCH  11  13
ENDBRANCH   1  11
TORSDOF 11
