MODEL 1
REMARK VINA RESULT:      -6.3      0.000      0.000
REMARK  12 active torsions:
REMARK  status: ('A' for Active; 'I' for Inactive)
REMARK    1  A    between atoms: C_4  and  C_2 
REMARK    2  A    between atoms: O_14  and  C_2 
REMARK    3  A    between atoms: C_5  and  C_3 
REMARK    4  A    between atoms: O_15  and  C_3 
REMARK    5  A    between atoms: C_6  and  O_16 
REMARK    6  A    between atoms: C_7  and  O_17 
REMARK    7  A    between atoms: C_8  and  O_18 
REMARK    8  A    between atoms: C_9  and  O_19 
REMARK    9  A    between atoms: C_10  and  O_20 
REMARK   10  A    between atoms: C_11  and  S_24 
REMARK   11  A    between atoms: C_12  and  O_21 
REMARK   12  A    between atoms: C_13  and  S_24 
ROOT
HETATM    1  S   UNK N   1      21.190  17.092   3.479  0.00  0.00    -0.122 SA
ENDROOT
BRANCH   1   2
HETATM    2  C   UNK N   1      21.149  16.173   5.092  0.00  0.00     0.136 C 
HETATM    3  C   UNK N   1      21.289  17.035   6.352  0.00  0.00     0.168 C 
HETATM    4  C   UNK N   1      21.412  16.143   7.606  0.00  0.00     0.179 C 
HETATM    5  C   UNK N   1      20.854  14.720   7.342  0.00  0.00     0.179 C 
HETATM    6  O   UNK N   1      19.662  14.784   6.591  0.00  0.00    -0.350 OA
HETATM    7  C   UNK N   1      19.880  15.274   5.254  0.00  0.00     0.276 C 
BRANCH   3   8
HETATM    8  O   UNK N   1      22.392  17.885   6.285  0.00  0.00    -0.392 OA
HETATM    9  H   UNK N   1      22.870  18.344   6.994  0.00  0.00     0.210 HD
ENDBRANCH   3   8
BRANCH   4  10
HETATM   10  O   UNK N   1      20.747  16.769   8.666  0.00  0.00    -0.390 OA
HETATM   11  H   UNK N   1      19.933  16.882   9.179  0.00  0.00     0.210 HD
ENDBRANCH   4  10
BRANCH   5  12
HETATM   12  C   UNK N   1      20.608  13.956   8.641  0.00  0.00     0.198 C 
BRANCH  12  13
HETATM   13  O   UNK N   1      19.473  14.444   9.293  0.00  0.00    -0.398 OA
HETATM   14  H   UNK N   1      19.374  15.050  10.043  0.00  0.00     0.209 HD
ENDBRANCH  12  13
ENDBRANCH   5  12
BRANCH   7  15
HETATM   15  O   UNK N   1      19.951  14.209   4.335  0.00  0.00    -0.365 OA
HETATM   16  C   UNK N   1      18.769  13.462   4.438  0.00  0.00     0.204 C 
ENDBRANCH   7  15
ENDBRANCH   1   2
BRANCH   1  17
HETATM   17  C   UNK N   1      20.852  18.850   3.975  0.00  0.00     0.215 C 
HETATM   18  C   UNK N   1      19.970  19.603   2.949  0.00  0.00     0.188 C 
HETATM   19  C   UNK N   1      20.763  19.874   1.661  0.00  0.00     0.181 C 
HETATM   20  C   UNK N   1      22.068  20.603   2.010  0.00  0.00     0.180 C 
HETATM   21  C   UNK N   1      22.821  19.760   3.051  0.00  0.00     0.178 C 
HETATM   22  O   UNK N   1      22.037  19.594   4.225  0.00  0.00    -0.363 OA
BRANCH  18  23
HETATM   23  O   UNK N   1      18.808  18.880   2.669  0.00  0.00    -0.389 OA
HETATM   24  H   UNK N   1      18.441  18.189   3.242  0.00  0.00     0.210 HD
ENDBRANCH  18  23
BRANCH  19  25
HETATM   25  O   UNK N   1      20.004  20.641   0.771  0.00  0.00    -0.390 OA
HETATM   26  H   UNK N   1      19.433  20.204   0.120  0.00  0.00     0.210 HD
ENDBRANCH  19  25
BRANCH  20  27
HETATM   27  O   UNK N   1      21.792  21.872   2.535  0.00  0.00    -0.390 OA
HETATM   28  H   UNK N   1      21.958  22.790   2.801  0.00  0.00     0.210 HD
ENDBRANCH  20  27
BRANCH  21  29
HETATM   29  C   UNK N   1      24.141  20.408   3.455  0.00  0.00     0.198 C 
BRANCH  29  30
HETATM   30  O   UNK N   1      24.751  21.010   2.354  0.00  0.00    -0.398 OA
HETATM   31  H   UNK N   1      25.566  21.516   2.208  0.00  0.00     0.209 HD
ENDBRANCH  29  30
ENDBRANCH  21  29
ENDBRANCH   1  17
TORSDOF 12
ENDMDL
MODEL 2
REMARK VINA RESULT:      -6.2     10.275     12.102
REMARK  12 active torsions:
REMARK  status: ('A' for Active; 'I' for Inactive)
REMARK    1  A    between atoms: C_4  and  C_2 
REMARK    2  A    between atoms: O_14  and  C_2 
REMARK    3  A    between atoms: C_5  and  C_3 
REMARK    4  A    between atoms: O_15  and  C_3 
REMARK    5  A    between atoms: C_6  and  O_16 
REMARK    6  A    between atoms: C_7  and  O_17 
REMARK    7  A    between atoms: C_8  and  O_18 
REMARK    8  A    between atoms: C_9  and  O_19 
REMARK    9  A    between atoms: C_10  and  O_20 
REMARK   10  A    between atoms: C_11  and  S_24 
REMARK   11  A    between atoms: C_12  and  O_21 
REMARK   12  A    between atoms: C_13  and  S_24 
ROOT
HETATM    1  S   UNK N   1      31.054  15.686   7.424  0.00  0.00    -0.122 SA
ENDROOT
BRANCH   1   2
HETATM    2  C   UNK N   1      32.656  15.582   8.357  0.00  0.00     0.136 C 
HETATM    3  C   UNK N   1      32.619  14.763   9.653  0.00  0.00     0.168 C 
HETATM    4  C   UNK N   1      33.955  14.897  10.415  0.00  0.00     0.179 C 
HETATM    5  C   UNK N   1      35.098  15.352   9.471  0.00  0.00     0.179 C 
HETATM    6  O   UNK N   1      35.016  14.687   8.231  0.00  0.00    -0.350 OA
HETATM    7  C   UNK N   1      33.842  15.061   7.484  0.00  0.00     0.276 C 
BRANCH   3   8
HETATM    8  O   UNK N   1      31.573  15.153  10.489  0.00  0.00    -0.392 OA
HETATM    9  H   UNK N   1      31.370  14.885  11.400  0.00  0.00     0.210 HD
ENDBRANCH   3   8
BRANCH   4  10
HETATM   10  O   UNK N   1      34.246  13.671  11.024  0.00  0.00    -0.390 OA
HETATM   11  H   UNK N   1      34.747  13.179  11.692  0.00  0.00     0.210 HD
ENDBRANCH   4  10
BRANCH   5  12
HETATM   12  C   UNK N   1      36.474  15.121  10.093  0.00  0.00     0.198 C 
BRANCH  12  13
HETATM   13  O   UNK N   1      36.850  16.212  10.879  0.00  0.00    -0.398 OA
HETATM   14  H   UNK N   1      36.429  17.073  11.027  0.00  0.00     0.209 HD
ENDBRANCH  12  13
ENDBRANCH   5  12
BRANCH   7  15
HETATM   15  O   UNK N   1      34.156  16.029   6.510  0.00  0.00    -0.365 OA
HETATM   16  C   UNK N   1      34.417  15.366   5.302  0.00  0.00     0.204 C 
ENDBRANCH   7  15
ENDBRANCH   1   2
BRANCH   1  17
HETATM   17  C   UNK N   1      30.673  17.504   7.420  0.00  0.00     0.215 C 
HETATM   18  C   UNK N   1      29.761  17.927   8.598  0.00  0.00     0.188 C 
HETATM   19  C   UNK N   1      28.336  17.392   8.390  0.00  0.00     0.181 C 
HETATM   20  C   UNK N   1      27.820  17.838   7.014  0.00  0.00     0.180 C 
HETATM   21  C   UNK N   1      28.831  17.376   5.953  0.00  0.00     0.178 C 
HETATM   22  O   UNK N   1      30.109  17.950   6.194  0.00  0.00    -0.363 OA
BRANCH  18  23
HETATM   23  O   UNK N   1      30.283  17.480   9.814  0.00  0.00    -0.389 OA
HETATM   24  H   UNK N   1      30.568  18.062  10.536  0.00  0.00     0.210 HD
ENDBRANCH  18  23
BRANCH  19  25
HETATM   25  O   UNK N   1      27.487  17.856   9.398  0.00  0.00    -0.390 OA
HETATM   26  H   UNK N   1      27.111  18.748   9.343  0.00  0.00     0.210 HD
ENDBRANCH  19  25
BRANCH  20  27
HETATM   27  O   UNK N   1      27.689  19.231   6.972  0.00  0.00    -0.390 OA
HETATM   28  H   UNK N   1      27.289  20.091   6.765  0.00  0.00     0.210 HD
ENDBRANCH  20  27
BRANCH  21  29
HETATM   29  C   UNK N   1      28.395  17.773   4.547  0.00  0.00     0.198 C 
BRANCH  29  30
HETATM   30  O   UNK N   1      28.701  19.111   4.295  0.00  0.00    -0.398 OA
HETATM   31  H   UNK N   1      28.188  19.927   4.184  0.00  0.00     0.209 HD
ENDBRANCH  29  30
ENDBRANCH  21  29
ENDBRANCH   1  17
TORSDOF 12
ENDMDL
MODEL 3
REMARK VINA RESULT:      -6.0      2.702      3.688
REMARK  12 active torsions:
REMARK  status: ('A' for Active; 'I' for Inactive)
REMARK    1  A    between atoms: C_4  and  C_2 
REMARK    2  A    between atoms: O_14  and  C_2 
REMARK    3  A    between atoms: C_5  and  C_3 
REMARK    4  A    between atoms: O_15  and  C_3 
REMARK    5  A    between atoms: C_6  and  O_16 
REMARK    6  A    between atoms: C_7  and  O_17 
REMARK    7  A    between atoms: C_8  and  O_18 
REMARK    8  A    between atoms: C_9  and  O_19 
REMARK    9  A    between atoms: C_10  and  O_20 
REMARK   10  A    between atoms: C_11  and  S_24 
REMARK   11  A    between atoms: C_12  and  O_21 
REMARK   12  A    between atoms: C_13  and  S_24 
ROOT
HETATM    1  S   UNK N   1      21.662  16.258   5.069  0.00  0.00    -0.122 SA
ENDROOT
BRANCH   1   2
HETATM    2  C   UNK N   1      21.335  15.473   6.719  0.00  0.00     0.136 C 
HETATM    3  C   UNK N   1      20.311  16.191   7.607  0.00  0.00     0.168 C 
HETATM    4  C   UNK N   1      20.257  15.540   9.006  0.00  0.00     0.179 C 
HETATM    5  C   UNK N   1      20.815  14.094   8.976  0.00  0.00     0.179 C 
HETATM    6  O   UNK N   1      20.373  13.413   7.823  0.00  0.00    -0.350 OA
HETATM    7  C   UNK N   1      20.917  13.970   6.612  0.00  0.00     0.276 C 
BRANCH   3   8
HETATM    8  O   UNK N   1      20.599  17.549   7.743  0.00  0.00    -0.392 OA
HETATM    9  H   UNK N   1      20.049  18.326   7.551  0.00  0.00     0.210 HD
ENDBRANCH   3   8
BRANCH   4  10
HETATM   10  O   UNK N   1      18.935  15.574   9.463  0.00  0.00    -0.390 OA
HETATM   11  H   UNK N   1      18.317  15.745  10.189  0.00  0.00     0.210 HD
ENDBRANCH   4  10
BRANCH   5  12
HETATM   12  C   UNK N   1      20.425  13.308  10.225  0.00  0.00     0.198 C 
BRANCH  12  13
HETATM   13  O   UNK N   1      21.481  12.498  10.649  0.00  0.00    -0.398 OA
HETATM   14  H   UNK N   1      22.429  12.675  10.744  0.00  0.00     0.209 HD
ENDBRANCH  12  13
ENDBRANCH   5  12
BRANCH   7  15
HETATM   15  O   UNK N   1      22.021  13.218   6.166  0.00  0.00    -0.365 OA
HETATM   16  C   UNK N   1      21.639  11.870   6.110  0.00  0.00     0.204 C 
ENDBRANCH   7  15
ENDBRANCH   1   2
BRANCH   1  17
HETATM   17  C   UNK N   1      20.106  15.918   4.113  0.00  0.00     0.215 C 
HETATM   18  C   UNK N   1      20.355  15.051   2.854  0.00  0.00     0.188 C 
HETATM   19  C   UNK N   1      21.110  15.860   1.788  0.00  0.00     0.181 C 
HETATM   20  C   UNK N   1      20.348  17.162   1.503  0.00  0.00     0.180 C 
HETATM   21  C   UNK N   1      20.151  17.900   2.837  0.00  0.00     0.178 C 
HETATM   22  O   UNK N   1      19.409  17.102   3.748  0.00  0.00    -0.363 OA
BRANCH  18  23
HETATM   23  O   UNK N   1      21.061  13.891   3.183  0.00  0.00    -0.389 OA
HETATM   24  H   UNK N   1      21.679  13.818   3.927  0.00  0.00     0.210 HD
ENDBRANCH  18  23
BRANCH  19  25
HETATM   25  O   UNK N   1      21.247  15.114   0.614  0.00  0.00    -0.390 OA
HETATM   26  H   UNK N   1      20.680  14.342   0.461  0.00  0.00     0.210 HD
ENDBRANCH  19  25
BRANCH  20  27
HETATM   27  O   UNK N   1      19.104  16.882   0.926  0.00  0.00    -0.390 OA
HETATM   28  H   UNK N   1      18.403  16.885   0.255  0.00  0.00     0.210 HD
ENDBRANCH  20  27
BRANCH  21  29
HETATM   29  C   UNK N   1      19.405  19.217   2.649  0.00  0.00     0.198 C 
BRANCH  29  30
HETATM   30  O   UNK N   1      18.063  18.982   2.343  0.00  0.00    -0.398 OA
HETATM   31  H   UNK N   1      17.234  18.968   2.845  0.00  0.00     0.209 HD
ENDBRANCH  29  30
ENDBRANCH  21  29
ENDBRANCH   1  17
TORSDOF 12
ENDMDL
MODEL 4
REMARK VINA RESULT:      -6.0      9.312     10.781
REMARK  12 active torsions:
REMARK  status: ('A' for Active; 'I' for Inactive)
REMARK    1  A    between atoms: C_4  and  C_2 
REMARK    2  A    between atoms: O_14  and  C_2 
REMARK    3  A    between atoms: C_5  and  C_3 
REMARK    4  A    between atoms: O_15  and  C_3 
REMARK    5  A    between atoms: C_6  and  O_16 
REMARK    6  A    between atoms: C_7  and  O_17 
REMARK    7  A    between atoms: C_8  and  O_18 
REMARK    8  A    between atoms: C_9  and  O_19 
REMARK    9  A    between atoms: C_10  and  O_20 
REMARK   10  A    between atoms: C_11  and  S_24 
REMARK   11  A    between atoms: C_12  and  O_21 
REMARK   12  A    between atoms: C_13  and  S_24 
ROOT
HETATM    1  S   UNK N   1      31.703  17.163   5.949  0.00  0.00    -0.122 SA
ENDROOT
BRANCH   1   2
HETATM    2  C   UNK N   1      32.520  15.962   7.106  0.00  0.00     0.136 C 
HETATM    3  C   UNK N   1      32.315  16.234   8.600  0.00  0.00     0.168 C 
HETATM    4  C   UNK N   1      33.178  15.275   9.448  0.00  0.00     0.179 C 
HETATM    5  C   UNK N   1      33.580  14.016   8.638  0.00  0.00     0.179 C 
HETATM    6  O   UNK N   1      32.496  13.551   7.866  0.00  0.00    -0.350 OA
HETATM    7  C   UNK N   1      32.129  14.475   6.823  0.00  0.00     0.276 C 
BRANCH   3   8
HETATM    8  O   UNK N   1      32.626  17.551   8.940  0.00  0.00    -0.392 OA
HETATM    9  H   UNK N   1      32.246  18.384   8.618  0.00  0.00     0.210 HD
ENDBRANCH   3   8
BRANCH   4  10
HETATM   10  O   UNK N   1      32.466  14.938  10.605  0.00  0.00    -0.390 OA
HETATM   11  H   UNK N   1      32.453  14.846  11.569  0.00  0.00     0.210 HD
ENDBRANCH   4  10
BRANCH   5  12
HETATM   12  C   UNK N   1      34.089  12.896   9.543  0.00  0.00     0.198 C 
BRANCH  12  13
HETATM   13  O   UNK N   1      33.062  11.999   9.844  0.00  0.00    -0.398 OA
HETATM   14  H   UNK N   1      32.863  11.113   9.506  0.00  0.00     0.209 HD
ENDBRANCH  12  13
ENDBRANCH   5  12
BRANCH   7  15
HETATM   15  O   UNK N   1      32.680  14.081   5.588  0.00  0.00    -0.365 OA
HETATM   16  C   UNK N   1      31.894  13.043   5.068  0.00  0.00     0.204 C 
ENDBRANCH   7  15
ENDBRANCH   1   2
BRANCH   1  17
HETATM   17  C   UNK N   1      29.990  16.473   5.749  0.00  0.00     0.215 C 
HETATM   18  C   UNK N   1      29.202  17.151   4.601  0.00  0.00     0.188 C 
HETATM   19  C   UNK N   1      28.829  18.591   4.986  0.00  0.00     0.181 C 
HETATM   20  C   UNK N   1      28.084  18.581   6.329  0.00  0.00     0.180 C 
HETATM   21  C   UNK N   1      28.967  17.859   7.359  0.00  0.00     0.178 C 
HETATM   22  O   UNK N   1      29.228  16.524   6.948  0.00  0.00    -0.363 OA
BRANCH  18  23
HETATM   23  O   UNK N   1      29.941  17.135   3.415  0.00  0.00    -0.389 OA
HETATM   24  H   UNK N   1      30.653  16.505   3.222  0.00  0.00     0.210 HD
ENDBRANCH  18  23
BRANCH  19  25
HETATM   25  O   UNK N   1      28.032  19.172   3.996  0.00  0.00    -0.390 OA
HETATM   26  H   UNK N   1      27.261  18.694   3.652  0.00  0.00     0.210 HD
ENDBRANCH  19  25
BRANCH  20  27
HETATM   27  O   UNK N   1      26.859  17.916   6.202  0.00  0.00    -0.390 OA
HETATM   28  H   UNK N   1      26.240  17.212   5.949  0.00  0.00     0.210 HD
ENDBRANCH  20  27
BRANCH  21  29
HETATM   29  C   UNK N   1      28.306  17.808   8.732  0.00  0.00     0.198 C 
BRANCH  29  30
HETATM   30  O   UNK N   1      27.429  18.880   8.897  0.00  0.00    -0.398 OA
HETATM   31  H   UNK N   1      27.525  19.833   9.051  0.00  0.00     0.209 HD
ENDBRANCH  29  30
ENDBRANCH  21  29
ENDBRANCH   1  17
TORSDOF 12
ENDMDL
MODEL 5
REMARK VINA RESULT:      -5.9     14.273     17.053
REMARK  12 active torsions:
REMARK  status: ('A' for Active; 'I' for Inactive)
REMARK    1  A    between atoms: C_4  and  C_2 
REMARK    2  A    between atoms: O_14  and  C_2 
REMARK    3  A    between atoms: C_5  and  C_3 
REMARK    4  A    between atoms: O_15  and  C_3 
REMARK    5  A    between atoms: C_6  and  O_16 
REMARK    6  A    between atoms: C_7  and  O_17 
REMARK    7  A    between atoms: C_8  and  O_18 
REMARK    8  A    between atoms: C_9  and  O_19 
REMARK    9  A    between atoms: C_10  and  O_20 
REMARK   10  A    between atoms: C_11  and  S_24 
REMARK   11  A    between atoms: C_12  and  O_21 
REMARK   12  A    between atoms: C_13  and  S_24 
ROOT
HETATM    1  S   UNK N   1      36.222  14.149  10.456  0.00  0.00    -0.122 SA
ENDROOT
BRANCH   1   2
HETATM    2  C   UNK N   1      35.183  15.222   9.353  0.00  0.00     0.136 C 
HETATM    3  C   UNK N   1      35.247  16.727   9.638  0.00  0.00     0.168 C 
HETATM    4  C   UNK N   1      34.216  17.485   8.774  0.00  0.00     0.179 C 
HETATM    5  C   UNK N   1      33.794  16.649   7.538  0.00  0.00     0.179 C 
HETATM    6  O   UNK N   1      34.911  16.006   6.966  0.00  0.00    -0.350 OA
HETATM    7  C   UNK N   1      35.470  15.000   7.833  0.00  0.00     0.276 C 
BRANCH   3   8
HETATM    8  O   UNK N   1      35.019  17.016  10.983  0.00  0.00    -0.392 OA
HETATM    9  H   UNK N   1      34.475  16.549  11.637  0.00  0.00     0.210 HD
ENDBRANCH   3   8
BRANCH   4  10
HETATM   10  O   UNK N   1      34.766  18.717   8.400  0.00  0.00    -0.390 OA
HETATM   11  H   UNK N   1      35.430  19.204   7.889  0.00  0.00     0.210 HD
ENDBRANCH   4  10
BRANCH   5  12
HETATM   12  C   UNK N   1      33.094  17.505   6.485  0.00  0.00     0.198 C 
BRANCH  12  13
HETATM   13  O   UNK N   1      34.010  17.975   5.541  0.00  0.00    -0.398 OA
HETATM   14  H   UNK N   1      34.145  17.748   4.608  0.00  0.00     0.209 HD
ENDBRANCH  12  13
ENDBRANCH   5  12
BRANCH   7  15
HETATM   15  O   UNK N   1      35.023  13.716   7.463  0.00  0.00    -0.365 OA
HETATM   16  C   UNK N   1      36.052  13.081   6.754  0.00  0.00     0.204 C 
ENDBRANCH   7  15
ENDBRANCH   1   2
BRANCH   1  17
HETATM   17  C   UNK N   1      35.123  13.842  11.921  0.00  0.00     0.215 C 
HETATM   18  C   UNK N   1      35.848  14.066  13.271  0.00  0.00     0.188 C 
HETATM   19  C   UNK N   1      36.877  12.952  13.516  0.00  0.00     0.181 C 
HETATM   20  C   UNK N   1      36.185  11.586  13.403  0.00  0.00     0.180 C 
HETATM   21  C   UNK N   1      35.490  11.515  12.034  0.00  0.00     0.178 C 
HETATM   22  O   UNK N   1      34.526  12.552  11.907  0.00  0.00    -0.363 OA
BRANCH  18  23
HETATM   23  O   UNK N   1      36.463  15.320  13.301  0.00  0.00    -0.389 OA
HETATM   24  H   UNK N   1      37.042  15.663  12.603  0.00  0.00     0.210 HD
ENDBRANCH  18  23
BRANCH  19  25
HETATM   25  O   UNK N   1      37.461  13.094  14.778  0.00  0.00    -0.390 OA
HETATM   26  H   UNK N   1      36.945  12.899  15.576  0.00  0.00     0.210 HD
ENDBRANCH  19  25
BRANCH  20  27
HETATM   27  O   UNK N   1      35.240  11.432  14.425  0.00  0.00    -0.390 OA
HETATM   28  H   UNK N   1      34.412  11.569  14.911  0.00  0.00     0.210 HD
ENDBRANCH  20  27
BRANCH  21  29
HETATM   29  C   UNK N   1      34.778  10.183  11.830  0.00  0.00     0.198 C 
BRANCH  29  30
HETATM   30  O   UNK N   1      33.450  10.265  12.249  0.00  0.00    -0.398 OA
HETATM   31  H   UNK N   1      32.944  10.858  12.827  0.00  0.00     0.209 HD
ENDBRANCH  29  30
ENDBRANCH  21  29
ENDBRANCH   1  17
TORSDOF 12
ENDMDL
MODEL 6
REMARK VINA RESULT:      -5.8      8.502     11.027
REMARK  12 active torsions:
REMARK  status: ('A' for Active; 'I' for Inactive)
REMARK    1  A    between atoms: C_4  and  C_2 
REMARK    2  A    between atoms: O_14  and  C_2 
REMARK    3  A    between atoms: C_5  and  C_3 
REMARK    4  A    between atoms: O_15  and  C_3 
REMARK    5  A    between atoms: C_6  and  O_16 
REMARK    6  A    between atoms: C_7  and  O_17 
REMARK    7  A    between atoms: C_8  and  O_18 
REMARK    8  A    between atoms: C_9  and  O_19 
REMARK    9  A    between atoms: C_10  and  O_20 
REMARK   10  A    between atoms: C_11  and  S_24 
REMARK   11  A    between atoms: C_12  and  O_21 
REMARK   12  A    between atoms: C_13  and  S_24 
ROOT
HETATM    1  S   UNK N   1      30.166  16.235   6.215  0.00  0.00    -0.122 SA
ENDROOT
BRANCH   1   2
HETATM    2  C   UNK N   1      29.126  17.770   6.322  0.00  0.00     0.136 C 
HETATM    3  C   UNK N   1      27.820  17.745   5.520  0.00  0.00     0.168 C 
HETATM    4  C   UNK N   1      27.139  19.130   5.554  0.00  0.00     0.179 C 
HETATM    5  C   UNK N   1      27.638  19.974   6.755  0.00  0.00     0.179 C 
HETATM    6  O   UNK N   1      27.754  19.176   7.911  0.00  0.00    -0.350 OA
HETATM    7  C   UNK N   1      28.789  18.181   7.791  0.00  0.00     0.276 C 
BRANCH   3   8
HETATM    8  O   UNK N   1      28.027  17.369   4.193  0.00  0.00    -0.392 OA
HETATM    9  H   UNK N   1      28.733  16.830   3.801  0.00  0.00     0.210 HD
ENDBRANCH   3   8
BRANCH   4  10
HETATM   10  O   UNK N   1      25.752  18.945   5.595  0.00  0.00    -0.390 OA
HETATM   11  H   UNK N   1      24.879  19.156   5.230  0.00  0.00     0.210 HD
ENDBRANCH   4  10
BRANCH   5  12
HETATM   12  C   UNK N   1      26.722  21.163   7.035  0.00  0.00     0.198 C 
BRANCH  12  13
HETATM   13  O   UNK N   1      25.867  20.886   8.103  0.00  0.00    -0.398 OA
HETATM   14  H   UNK N   1      25.432  21.467   8.746  0.00  0.00     0.209 HD
ENDBRANCH  12  13
ENDBRANCH   5  12
BRANCH   7  15
HETATM   15  O   UNK N   1      29.969  18.606   8.432  0.00  0.00    -0.365 OA
HETATM   16  C   UNK N   1      29.721  18.667   9.811  0.00  0.00     0.204 C 
ENDBRANCH   7  15
ENDBRANCH   1   2
BRANCH   1  17
HETATM   17  C   UNK N   1      31.705  16.815   5.351  0.00  0.00     0.215 C 
HETATM   18  C   UNK N   1      32.477  15.662   4.664  0.00  0.00     0.188 C 
HETATM   19  C   UNK N   1      33.130  14.754   5.718  0.00  0.00     0.181 C 
HETATM   20  C   UNK N   1      33.996  15.607   6.657  0.00  0.00     0.180 C 
HETATM   21  C   UNK N   1      33.111  16.719   7.241  0.00  0.00     0.178 C 
HETATM   22  O   UNK N   1      32.582  17.536   6.205  0.00  0.00    -0.363 OA
BRANCH  18  23
HETATM   23  O   UNK N   1      31.629  14.922   3.835  0.00  0.00    -0.389 OA
HETATM   24  H   UNK N   1      30.662  14.916   3.906  0.00  0.00     0.210 HD
ENDBRANCH  18  23
BRANCH  19  25
HETATM   25  O   UNK N   1      33.911  13.772   5.101  0.00  0.00    -0.390 OA
HETATM   26  H   UNK N   1      34.665  14.028   4.549  0.00  0.00     0.210 HD
ENDBRANCH  19  25
BRANCH  20  27
HETATM   27  O   UNK N   1      35.067  16.170   5.955  0.00  0.00    -0.390 OA
HETATM   28  H   UNK N   1      35.522  16.740   5.314  0.00  0.00     0.210 HD
ENDBRANCH  20  27
BRANCH  21  29
HETATM   29  C   UNK N   1      33.889  17.617   8.197  0.00  0.00     0.198 C 
BRANCH  29  30
HETATM   30  O   UNK N   1      34.706  18.499   7.489  0.00  0.00    -0.398 OA
HETATM   31  H   UNK N   1      35.648  18.732   7.505  0.00  0.00     0.209 HD
ENDBRANCH  29  30
ENDBRANCH  21  29
ENDBRANCH   1  17
TORSDOF 12
ENDMDL
MODEL 7
REMARK VINA RESULT:      -5.8     13.492     15.258
REMARK  12 active torsions:
REMARK  status: ('A' for Active; 'I' for Inactive)
REMARK    1  A    between atoms: C_4  and  C_2 
REMARK    2  A    between atoms: O_14  and  C_2 
REMARK    3  A    between atoms: C_5  and  C_3 
REMARK    4  A    between atoms: O_15  and  C_3 
REMARK    5  A    between atoms: C_6  and  O_16 
REMARK    6  A    between atoms: C_7  and  O_17 
REMARK    7  A    between atoms: C_8  and  O_18 
REMARK    8  A    between atoms: C_9  and  O_19 
REMARK    9  A    between atoms: C_10  and  O_20 
REMARK   10  A    between atoms: C_11  and  S_24 
REMARK   11  A    between atoms: C_12  and  O_21 
REMARK   12  A    between atoms: C_13  and  S_24 
ROOT
HETATM    1  S   UNK N   1      30.674  24.323  -4.549  0.00  0.00    -0.122 SA
ENDROOT
BRANCH   1   2
HETATM    2  C   UNK N   1      29.155  25.373  -4.352  0.00  0.00     0.136 C 
HETATM    3  C   UNK N   1      29.402  26.878  -4.194  0.00  0.00     0.168 C 
HETATM    4  C   UNK N   1      28.083  27.612  -3.868  0.00  0.00     0.179 C 
HETATM    5  C   UNK N   1      26.852  26.771  -4.294  0.00  0.00     0.179 C 
HETATM    6  O   UNK N   1      27.072  26.163  -5.547  0.00  0.00    -0.350 OA
HETATM    7  C   UNK N   1      28.114  25.168  -5.499  0.00  0.00     0.276 C 
BRANCH   3   8
HETATM    8  O   UNK N   1      30.338  27.152  -3.196  0.00  0.00    -0.392 OA
HETATM    9  H   UNK N   1      30.343  26.899  -2.259  0.00  0.00     0.210 HD
ENDBRANCH   3   8
BRANCH   4  10
HETATM   10  O   UNK N   1      28.100  28.860  -4.500  0.00  0.00    -0.390 OA
HETATM   11  H   UNK N   1      28.021  29.824  -4.428  0.00  0.00     0.210 HD
ENDBRANCH   4  10
BRANCH   5  12
HETATM   12  C   UNK N   1      25.579  27.613  -4.344  0.00  0.00     0.198 C 
BRANCH  12  13
HETATM   13  O   UNK N   1      25.458  28.393  -3.192  0.00  0.00    -0.398 OA
HETATM   14  H   UNK N   1      24.860  29.122  -2.969  0.00  0.00     0.209 HD
ENDBRANCH  12  13
ENDBRANCH   5  12
BRANCH   7  15
HETATM   15  O   UNK N   1      27.566  23.874  -5.397  0.00  0.00    -0.365 OA
HETATM   16  C   UNK N   1      27.276  23.418  -6.691  0.00  0.00     0.204 C 
ENDBRANCH   7  15
ENDBRANCH   1   2
BRANCH   1  17
HETATM   17  C   UNK N   1      30.093  22.628  -4.061  0.00  0.00     0.215 C 
HETATM   18  C   UNK N   1      30.816  22.086  -2.804  0.00  0.00     0.188 C 
HETATM   19  C   UNK N   1      32.278  21.744  -3.134  0.00  0.00     0.181 C 
HETATM   20  C   UNK N   1      32.318  20.787  -4.333  0.00  0.00     0.180 C 
HETATM   21  C   UNK N   1      31.544  21.439  -5.490  0.00  0.00     0.178 C 
HETATM   22  O   UNK N   1      30.194  21.681  -5.117  0.00  0.00    -0.363 OA
BRANCH  18  23
HETATM   23  O   UNK N   1      30.751  23.009  -1.758  0.00  0.00    -0.389 OA
HETATM   24  H   UNK N   1      31.387  23.055  -1.026  0.00  0.00     0.210 HD
ENDBRANCH  18  23
BRANCH  19  25
HETATM   25  O   UNK N   1      32.905  21.162  -2.029  0.00  0.00    -0.390 OA
HETATM   26  H   UNK N   1      32.393  20.612  -1.415  0.00  0.00     0.210 HD
ENDBRANCH  19  25
BRANCH  20  27
HETATM   27  O   UNK N   1      31.730  19.561  -3.999  0.00  0.00    -0.390 OA
HETATM   28  H   UNK N   1      31.632  18.598  -3.941  0.00  0.00     0.210 HD
ENDBRANCH  20  27
BRANCH  21  29
HETATM   29  C   UNK N   1      31.537  20.557  -6.734  0.00  0.00     0.198 C 
BRANCH  29  30
HETATM   30  O   UNK N   1      30.391  19.763  -6.768  0.00  0.00    -0.398 OA
HETATM   31  H   UNK N   1      30.144  18.925  -7.191  0.00  0.00     0.209 HD
ENDBRANCH  29  30
ENDBRANCH  21  29
ENDBRANCH   1  17
TORSDOF 12
ENDMDL
MODEL 8
REMARK VINA RESULT:      -5.8     13.594     14.259
REMARK  12 active torsions:
REMARK  status: ('A' for Active; 'I' for Inactive)
REMARK    1  A    between atoms: C_4  and  C_2 
REMARK    2  A    between atoms: O_14  and  C_2 
REMARK    3  A    between atoms: C_5  and  C_3 
REMARK    4  A    between atoms: O_15  and  C_3 
REMARK    5  A    between atoms: C_6  and  O_16 
REMARK    6  A    between atoms: C_7  and  O_17 
REMARK    7  A    between atoms: C_8  and  O_18 
REMARK    8  A    between atoms: C_9  and  O_19 
REMARK    9  A    between atoms: C_10  and  O_20 
REMARK   10  A    between atoms: C_11  and  S_24 
REMARK   11  A    between atoms: C_12  and  O_21 
REMARK   12  A    between atoms: C_13  and  S_24 
ROOT
HETATM    1  S   UNK N   1      28.726  25.595  -5.502  0.00  0.00    -0.122 SA
ENDROOT
BRANCH   1   2
HETATM    2  C   UNK N   1      29.824  24.261  -4.823  0.00  0.00     0.136 C 
HETATM    3  C   UNK N   1      30.102  24.330  -3.317  0.00  0.00     0.168 C 
HETATM    4  C   UNK N   1      31.156  23.277  -2.912  0.00  0.00     0.179 C 
HETATM    5  C   UNK N   1      31.249  22.141  -3.964  0.00  0.00     0.179 C 
HETATM    6  O   UNK N   1      29.966  21.771  -4.414  0.00  0.00    -0.350 OA
HETATM    7  C   UNK N   1      29.321  22.820  -5.161  0.00  0.00     0.276 C 
BRANCH   3   8
HETATM    8  O   UNK N   1      30.541  25.593  -2.923  0.00  0.00    -0.392 OA
HETATM    9  H   UNK N   1      30.277  26.137  -2.163  0.00  0.00     0.210 HD
ENDBRANCH   3   8
BRANCH   4  10
HETATM   10  O   UNK N   1      30.828  22.781  -1.645  0.00  0.00    -0.390 OA
HETATM   11  H   UNK N   1      31.037  22.725  -0.701  0.00  0.00     0.210 HD
ENDBRANCH   4  10
BRANCH   5  12
HETATM   12  C   UNK N   1      31.980  20.918  -3.416  0.00  0.00     0.198 C 
BRANCH  12  13
HETATM   13  O   UNK N   1      32.786  21.269  -2.331  0.00  0.00    -0.398 OA
HETATM   14  H   UNK N   1      32.589  21.360  -1.387  0.00  0.00     0.209 HD
ENDBRANCH  12  13
ENDBRANCH   5  12
BRANCH   7  15
HETATM   15  O   UNK N   1      29.450  22.601  -6.546  0.00  0.00    -0.365 OA
HETATM   16  C   UNK N   1      28.239  22.078  -7.022  0.00  0.00     0.204 C 
ENDBRANCH   7  15
ENDBRANCH   1   2
BRANCH   1  17
HETATM   17  C   UNK N   1      27.464  25.839  -4.160  0.00  0.00     0.215 C 
HETATM   18  C   UNK N   1      26.015  25.889  -4.703  0.00  0.00     0.188 C 
HETATM   19  C   UNK N   1      25.780  27.192  -5.482  0.00  0.00     0.181 C 
HETATM   20  C   UNK N   1      26.151  28.389  -4.595  0.00  0.00     0.180 C 
HETATM   21  C   UNK N   1      27.596  28.193  -4.110  0.00  0.00     0.178 C 
HETATM   22  O   UNK N   1      27.716  26.989  -3.364  0.00  0.00    -0.363 OA
BRANCH  18  23
HETATM   23  O   UNK N   1      25.749  24.779  -5.510  0.00  0.00    -0.389 OA
HETATM   24  H   UNK N   1      26.267  23.959  -5.501  0.00  0.00     0.210 HD
ENDBRANCH  18  23
BRANCH  19  25
HETATM   25  O   UNK N   1      24.446  27.287  -5.888  0.00  0.00    -0.390 OA
HETATM   26  H   UNK N   1      24.233  27.528  -6.803  0.00  0.00     0.210 HD
ENDBRANCH  19  25
BRANCH  20  27
HETATM   27  O   UNK N   1      25.287  28.468  -3.497  0.00  0.00    -0.390 OA
HETATM   28  H   UNK N   1      24.990  28.373  -2.578  0.00  0.00     0.210 HD
ENDBRANCH  20  27
BRANCH  21  29
HETATM   29  C   UNK N   1      28.056  29.344  -3.222  0.00  0.00     0.198 C 
BRANCH  29  30
HETATM   30  O   UNK N   1      27.524  29.218  -1.938  0.00  0.00    -0.398 OA
HETATM   31  H   UNK N   1      26.639  29.295  -1.548  0.00  0.00     0.209 HD
ENDBRANCH  29  30
ENDBRANCH  21  29
ENDBRANCH   1  17
TORSDOF 12
ENDMDL
MODEL 9
REMARK VINA RESULT:      -5.7      3.136      4.724
REMARK  12 active torsions:
REMARK  status: ('A' for Active; 'I' for Inactive)
REMARK    1  A    between atoms: C_4  and  C_2 
REMARK    2  A    between atoms: O_14  and  C_2 
REMARK    3  A    between atoms: C_5  and  C_3 
REMARK    4  A    between atoms: O_15  and  C_3 
REMARK    5  A    between atoms: C_6  and  O_16 
REMARK    6  A    between atoms: C_7  and  O_17 
REMARK    7  A    between atoms: C_8  and  O_18 
REMARK    8  A    between atoms: C_9  and  O_19 
REMARK    9  A    between atoms: C_10  and  O_20 
REMARK   10  A    between atoms: C_11  and  S_24 
REMARK   11  A    between atoms: C_12  and  O_21 
REMARK   12  A    between atoms: C_13  and  S_24 
ROOT
HETATM    1  S   UNK N   1      22.382  14.084   6.301  0.00  0.00    -0.122 SA
ENDROOT
BRANCH   1   2
HETATM    2  C   UNK N   1      22.848  13.316   7.926  0.00  0.00     0.136 C 
HETATM    3  C   UNK N   1      24.318  13.468   8.336  0.00  0.00     0.168 C 
HETATM    4  C   UNK N   1      24.611  12.646   9.610  0.00  0.00     0.179 C 
HETATM    5  C   UNK N   1      23.309  12.341  10.395  0.00  0.00     0.179 C 
HETATM    6  O   UNK N   1      22.465  13.470  10.419  0.00  0.00    -0.350 OA
HETATM    7  C   UNK N   1      21.957  13.805   9.114  0.00  0.00     0.276 C 
BRANCH   3   8
HETATM    8  O   UNK N   1      25.188  13.068   7.323  0.00  0.00    -0.392 OA
HETATM    9  H   UNK N   1      25.520  13.562   6.556  0.00  0.00     0.210 HD
ENDBRANCH   3   8
BRANCH   4  10
HETATM   10  O   UNK N   1      25.533  13.350  10.393  0.00  0.00    -0.390 OA
HETATM   11  H   UNK N   1      26.457  13.575  10.579  0.00  0.00     0.210 HD
ENDBRANCH   4  10
BRANCH   5  12
HETATM   12  C   UNK N   1      23.600  11.881  11.822  0.00  0.00     0.198 C 
BRANCH  12  13
HETATM   13  O   UNK N   1      22.414  11.590  12.498  0.00  0.00    -0.398 OA
HETATM   14  H   UNK N   1      22.059  10.757  12.845  0.00  0.00     0.209 HD
ENDBRANCH  12  13
ENDBRANCH   5  12
BRANCH   7  15
HETATM   15  O   UNK N   1      20.650  13.308   8.942  0.00  0.00    -0.365 OA
HETATM   16  C   UNK N   1      19.870  13.746  10.022  0.00  0.00     0.204 C 
ENDBRANCH   7  15
ENDBRANCH   1   2
BRANCH   1  17
HETATM   17  C   UNK N   1      21.744  15.761   6.783  0.00  0.00     0.215 C 
HETATM   18  C   UNK N   1      20.295  16.011   6.299  0.00  0.00     0.188 C 
HETATM   19  C   UNK N   1      20.263  16.181   4.772  0.00  0.00     0.181 C 
HETATM   20  C   UNK N   1      21.252  17.281   4.362  0.00  0.00     0.180 C 
HETATM   21  C   UNK N   1      22.633  16.915   4.929  0.00  0.00     0.178 C 
HETATM   22  O   UNK N   1      22.585  16.821   6.346  0.00  0.00    -0.363 OA
BRANCH  18  23
HETATM   23  O   UNK N   1      19.452  14.970   6.697  0.00  0.00    -0.389 OA
HETATM   24  H   UNK N   1      18.986  14.936   7.547  0.00  0.00     0.210 HD
ENDBRANCH  18  23
BRANCH  19  25
HETATM   25  O   UNK N   1      18.973  16.507   4.343  0.00  0.00    -0.390 OA
HETATM   26  H   UNK N   1      18.690  16.282   3.443  0.00  0.00     0.210 HD
ENDBRANCH  19  25
BRANCH  20  27
HETATM   27  O   UNK N   1      20.842  18.519   4.869  0.00  0.00    -0.390 OA
HETATM   28  H   UNK N   1      20.267  19.289   5.006  0.00  0.00     0.210 HD
ENDBRANCH  20  27
BRANCH  21  29
HETATM   29  C   UNK N   1      23.687  17.954   4.562  0.00  0.00     0.198 C 
BRANCH  29  30
HETATM   30  O   UNK N   1      23.197  18.833   3.596  0.00  0.00    -0.398 OA
HETATM   31  H   UNK N   1      23.494  19.674   3.214  0.00  0.00     0.209 HD
ENDBRANCH  29  30
ENDBRANCH  21  29
ENDBRANCH   1  17
TORSDOF 12
ENDMDL
