REMARK  9 active torsions:
REMARK  status: ('A' for Active; 'I' for Inactive)
REMARK    1  A    between atoms: N_2  and  C_3 
REMARK    2  A    between atoms: N_2  and  C_14 
REMARK    3  A    between atoms: C_3  and  C_4 
REMARK    4  A    between atoms: C_4  and  O_5 
REMARK    5  A    between atoms: P_6  and  O_5 
REMARK    6  A    between atoms: P_6  and  O_9 
REMARK    7  A    between atoms: O_9  and  P_10 
REMARK    8  A    between atoms: C_14  and  C_15 
REMARK    9  A    between atoms: C_15  and  C_16 
ROOT
HETATM    1  C   UNK N   1       8.046  -3.246  -1.008  0.00  0.00     0.211 C 
ENDROOT
BRANCH   1   2
HETATM    2  C   UNK N   1       8.767  -3.881   0.188  0.00  0.00     0.298 C 
BRANCH   2   3
HETATM    3  N   UNK N   1       9.963  -3.134   0.596  0.00  0.00     0.086 N 
HETATM    4  C   UNK N   1       9.608  -1.738   0.847  0.00  0.00     0.310 C 
BRANCH   3   5
HETATM    5  C   UNK N   1      10.981  -3.238  -0.451  0.00  0.00     0.275 C 
BRANCH   5   6
HETATM    6  C   UNK N   1      12.234  -2.453  -0.087  0.00  0.00     0.057 C 
BRANCH   6   7
HETATM    7  C   UNK N   1      13.455  -3.312  -0.166  0.00  0.00    -0.023 C 
HETATM    8  C   UNK N   1      14.685  -2.799  -0.035  0.00  0.00    -0.091 C 
HETATM    9  C   UNK N   1      14.905  -1.333   0.174  0.00  0.00     0.042 C 
HETATM   10  C   UNK N   1      15.865  -3.702  -0.111  0.00  0.00     0.042 C 
ENDBRANCH   6   7
ENDBRANCH   5   6
ENDBRANCH   3   5
ENDBRANCH   2   3
ENDBRANCH   1   2
BRANCH   1  11
HETATM   11  O   UNK N   1       6.728  -3.709  -1.093  0.00  0.00    -0.288 OA
BRANCH  11  12
HETATM   12  P   UNK N   1       5.761  -2.705  -0.034  0.00  0.00     0.418 P 
HETATM   13  O   UNK N   1       5.763  -3.361   1.578  0.00  0.00    -0.624 OA
HETATM   14  O   UNK N   1       6.401  -1.290   0.044  0.00  0.00    -0.624 OA
BRANCH  12  15
HETATM   15  O   UNK N   1       4.160  -2.490  -0.700  0.00  0.00    -0.173 OA
BRANCH  15  16
HETATM   16  P   UNK N   1       3.031  -2.759   0.597  0.00  0.00     0.431 P 
HETATM   17  O   UNK N   1       1.396  -3.236   0.266  0.00  0.00    -0.616 OA
HETATM   18  O   UNK N   1       2.968  -4.065  -0.547  0.00  0.00    -0.616 OA
HETATM   19  O   UNK N   1       2.453  -1.477  -0.058  0.00  0.00    -0.616 OA
ENDBRANCH  15  16
ENDBRANCH  12  15
ENDBRANCH  11  12
ENDBRANCH   1  11
TORSDOF 9
