MODEL 1
REMARK VINA RESULT:      -6.9      0.000      0.000
REMARK  24 active torsions:
REMARK  status: ('A' for Active; 'I' for Inactive)
REMARK    1  A    between atoms: C_15  and  C_16 
REMARK    2  A    between atoms: C_16  and  C_17 
REMARK    3  A    between atoms: C_17  and  C_18 
REMARK    4  A    between atoms: C_18  and  O_20 
REMARK    5  A    between atoms: C_21  and  C_62 
REMARK    6  A    between atoms: C_25  and  C_22 
REMARK    7  A    between atoms: C_22  and  C_23 
REMARK    8  A    between atoms: C_23  and  O_60 
REMARK    9  A    between atoms: C_51  and  C_29 
REMARK   10  A    between atoms: C_29  and  C_30 
REMARK   11  A    between atoms: C_30  and  C_31 
REMARK   12  A    between atoms: C_31  and  O_33 
REMARK   13  A    between atoms: C_34  and  C_49 
REMARK   14  A    between atoms: C_44  and  C_35 
REMARK   15  A    between atoms: C_35  and  C_36 
REMARK   16  A    between atoms: C_36  and  O_59 
REMARK   17  A    between atoms: C_43  and  C_38 
REMARK   18  A    between atoms: C_38  and  C_39 
REMARK   19  A    between atoms: C_39  and  C_40 
REMARK   20  A    between atoms: C_40  and  O_42 
REMARK   21  A    between atoms: C_47  and  C_49 
REMARK   22  A    between atoms: C_62  and  C_63 
REMARK   23  A    between atoms: C_63  and  C_65 
REMARK   24  A    between atoms: C_65  and  O_66 
ROOT
HETATM    1  O   UNK N   1      34.567  17.908   6.625  0.00  0.00    -0.650 OA
HETATM    2  C   UNK N   1      33.951  18.175   7.641  0.00  0.00     0.139 C 
HETATM    3  O   UNK N   1      34.545  18.879   8.624  0.00  0.00    -0.776 OA
HETATM    4  H   UNK N   1      34.964  19.430   9.256  0.00  0.00     0.167 HD
ENDROOT
BRANCH   2   5
HETATM    5  C   UNK N   1      32.562  17.674   7.813  0.00  0.00     0.117 C 
BRANCH   5   6
HETATM    6  C   UNK N   1      32.165  16.606   6.792  0.00  0.00     0.035 C 
HETATM    7  C   UNK N   1      31.997  15.121   7.224  0.00  0.00     0.115 C 
HETATM    8  N   UNK N   1      30.983  14.666   6.302  0.00  0.00    -0.385 N 
HETATM    9  C   UNK N   1      33.232  14.157   7.076  0.00  0.00     0.055 C 
HETATM   10  C   UNK N   1      30.414  15.588   5.637  0.00  0.00     0.022 C 
ATOM     11  HN  UNK N   1      30.742  13.681   6.193  1.00  0.00     0.160 HD
HETATM   12  C   UNK N   1      29.318  15.307   4.656  0.00  0.00    -0.016 C 
HETATM   13  C   UNK N   1      30.895  16.957   5.978  0.00  0.00     0.005 C 
HETATM   14  C   UNK N   1      28.921  14.052   4.323  0.00  0.00     0.022 C 
HETATM   15  C   UNK N   1      28.658  16.475   3.989  0.00  0.00     0.052 C 
HETATM   16  C   UNK N   1      27.911  13.727   3.264  0.00  0.00     0.050 C 
HETATM   17  N   UNK N   1      29.483  12.875   4.843  0.00  0.00    -0.361 N 
HETATM   18  C   UNK N   1      27.793  12.188   3.369  0.00  0.00     0.004 C 
HETATM   19  C   UNK N   1      28.904  11.854   4.333  0.00  0.00     0.020 C 
HETATM   20  C   UNK N   1      28.022  11.564   2.005  0.00  0.00     0.022 C 
HETATM   21  C   UNK N   1      26.468  11.706   3.952  0.00  0.00     0.022 C 
HETATM   22  C   UNK N   1      29.263  10.453   4.632  0.00  0.00     0.051 C 
HETATM   23  C   UNK N   1      30.367  10.004   5.239  0.00  0.00     0.016 C 
HETATM   24  N   UNK N   1      31.404  10.803   5.727  0.00  0.00    -0.361 N 
HETATM   25  C   UNK N   1      30.660   8.553   5.428  0.00  0.00     0.051 C 
HETATM   26  C   UNK N   1      32.387  10.071   6.082  0.00  0.00     0.027 C 
ATOM     27  HN  UNK N   1      31.378  11.820   5.792  1.00  0.00     0.165 HD
HETATM   28  C   UNK N   1      32.161   8.589   5.835  0.00  0.00     0.017 C 
HETATM   29  C   UNK N   1      33.626  10.599   6.737  0.00  0.00    -0.016 C 
HETATM   30  C   UNK N   1      33.116   8.142   4.725  0.00  0.00     0.023 C 
HETATM   31  C   UNK N   1      33.714  11.874   7.188  0.00  0.00     0.018 C 
HETATM   32  C   UNK N   1      34.768   9.658   6.912  0.00  0.00     0.052 C 
HETATM   33  N   UNK N   1      32.730  12.820   6.915  0.00  0.00    -0.381 N 
HETATM   34  C   UNK N   1      34.849  12.483   7.962  0.00  0.00     0.047 C 
HETATM   35  H   UNK N   1      31.808  12.602   6.646  0.00  0.00     0.160 HD
HETATM   36  C   UNK N   1      34.259  13.928   8.254  0.00  0.00     0.001 C 
HETATM   37  C   UNK N   1      33.456  13.935   9.569  0.00  0.00     0.019 C 
ATOM     38  HN  UNK N   1      30.240  12.838   5.527  1.00  0.00     0.165 HD
HETATM   39  C   UNK N   1      29.798  17.628   6.808  0.00  0.00     0.022 C 
HETATM   40  C   UNK N   1      33.983  14.498   5.781  0.00  0.00     0.041 C 
BRANCH  16  41
HETATM   41  C   UNK N   1      26.602  14.510   3.190  0.00  0.00     0.022 C 
BRANCH  41  42
HETATM   42  C   UNK N   1      26.229  14.732   1.727  0.00  0.00     0.110 C 
BRANCH  42  43
HETATM   43  C   UNK N   1      24.740  14.805   1.547  0.00  0.00     0.139 C 
HETATM   44  O   UNK N   1      24.027  15.106   2.490  0.00  0.00    -0.650 OA
BRANCH  43  45
HETATM   45  O   UNK N   1      24.186  14.540   0.349  0.00  0.00    -0.776 OA
HETATM   46  H   UNK N   1      23.707  13.745   0.219  0.00  0.00     0.167 HD
ENDBRANCH  43  45
ENDBRANCH  42  43
ENDBRANCH  41  42
ENDBRANCH  16  41
BRANCH  28  47
HETATM   47  C   UNK N   1      32.386   7.790   7.125  0.00  0.00     0.126 C 
BRANCH  47  48
HETATM   48  C   UNK N   1      31.213   7.791   8.054  0.00  0.00     0.140 C 
HETATM   49  O   UNK N   1      30.619   6.750   8.279  0.00  0.00    -0.650 OA
BRANCH  48  50
HETATM   50  O   UNK N   1      30.829   8.927   8.663  0.00  0.00    -0.776 OA
HETATM   51  H   UNK N   1      30.768   9.782   8.284  0.00  0.00     0.167 HD
ENDBRANCH  48  50
ENDBRANCH  47  48
ENDBRANCH  28  47
BRANCH  34  52
HETATM   52  C   UNK N   1      35.127  11.734   9.292  0.00  0.00     0.022 C 
BRANCH  52  53
HETATM   53  C   UNK N   1      36.583  11.719   9.730  0.00  0.00     0.110 C 
BRANCH  53  54
HETATM   54  C   UNK N   1      36.707  12.188  11.150  0.00  0.00     0.139 C 
HETATM   55  O   UNK N   1      35.797  12.001  11.944  0.00  0.00    -0.650 OA
BRANCH  54  56
HETATM   56  O   UNK N   1      37.836  12.793  11.561  0.00  0.00    -0.776 OA
HETATM   57  H   UNK N   1      38.021  12.911  12.473  0.00  0.00     0.167 HD
ENDBRANCH  54  56
ENDBRANCH  53  54
ENDBRANCH  52  53
ENDBRANCH  34  52
BRANCH  36  58
HETATM   58  C   UNK N   1      35.381  14.969   8.375  0.00  0.00     0.122 C 
BRANCH  58  59
HETATM   59  C   UNK N   1      35.531  15.546   9.759  0.00  0.00     0.140 C 
HETATM   60  O   UNK N   1      36.528  15.305  10.419  0.00  0.00    -0.650 OA
BRANCH  59  61
HETATM   61  O   UNK N   1      34.555  16.315  10.279  0.00  0.00    -0.776 OA
HETATM   62  H   UNK N   1      33.665  16.191  10.543  0.00  0.00     0.167 HD
ENDBRANCH  59  61
ENDBRANCH  58  59
ENDBRANCH  36  58
BRANCH  25  63
HETATM   63  C   UNK N   1      30.319   7.664   4.235  0.00  0.00     0.022 C 
BRANCH  63  64
HETATM   64  C   UNK N   1      29.572   6.440   4.736  0.00  0.00     0.110 C 
BRANCH  64  65
HETATM   65  C   UNK N   1      28.289   6.836   5.380  0.00  0.00     0.139 C 
HETATM   66  O   UNK N   1      27.426   7.404   4.731  0.00  0.00    -0.650 OA
BRANCH  65  67
HETATM   67  O   UNK N   1      28.078   6.553   6.678  0.00  0.00    -0.776 OA
HETATM   68  H   UNK N   1      27.958   5.671   6.970  0.00  0.00     0.167 HD
ENDBRANCH  65  67
ENDBRANCH  64  65
ENDBRANCH  63  64
ENDBRANCH  25  63
BRANCH  13  69
HETATM   69  C   UNK N   1      31.269  17.721   4.693  0.00  0.00     0.026 C 
BRANCH  69  70
HETATM   70  C   UNK N   1      32.662  17.444   4.137  0.00  0.00     0.111 C 
BRANCH  70  71
HETATM   71  C   UNK N   1      32.569  16.719   2.827  0.00  0.00     0.139 C 
HETATM   72  O   UNK N   1      31.585  16.864   2.121  0.00  0.00    -0.650 OA
BRANCH  71  73
HETATM   73  O   UNK N   1      33.565  15.905   2.424  0.00  0.00    -0.776 OA
HETATM   74  H   UNK N   1      34.194  16.132   1.767  0.00  0.00     0.167 HD
ENDBRANCH  71  73
ENDBRANCH  70  71
ENDBRANCH  69  70
ENDBRANCH  13  69
ENDBRANCH   5   6
ENDBRANCH   2   5
TORSDOF 24
ENDMDL
MODEL 2
REMARK VINA RESULT:      -6.5      2.445      3.792
REMARK  24 active torsions:
REMARK  status: ('A' for Active; 'I' for Inactive)
REMARK    1  A    between atoms: C_15  and  C_16 
REMARK    2  A    between atoms: C_16  and  C_17 
REMARK    3  A    between atoms: C_17  and  C_18 
REMARK    4  A    between atoms: C_18  and  O_20 
REMARK    5  A    between atoms: C_21  and  C_62 
REMARK    6  A    between atoms: C_25  and  C_22 
REMARK    7  A    between atoms: C_22  and  C_23 
REMARK    8  A    between atoms: C_23  and  O_60 
REMARK    9  A    between atoms: C_51  and  C_29 
REMARK   10  A    between atoms: C_29  and  C_30 
REMARK   11  A    between atoms: C_30  and  C_31 
REMARK   12  A    between atoms: C_31  and  O_33 
REMARK   13  A    between atoms: C_34  and  C_49 
REMARK   14  A    between atoms: C_44  and  C_35 
REMARK   15  A    between atoms: C_35  and  C_36 
REMARK   16  A    between atoms: C_36  and  O_59 
REMARK   17  A    between atoms: C_43  and  C_38 
REMARK   18  A    between atoms: C_38  and  C_39 
REMARK   19  A    between atoms: C_39  and  C_40 
REMARK   20  A    between atoms: C_40  and  O_42 
REMARK   21  A    between atoms: C_47  and  C_49 
REMARK   22  A    between atoms: C_62  and  C_63 
REMARK   23  A    between atoms: C_63  and  C_65 
REMARK   24  A    between atoms: C_65  and  O_66 
ROOT
HETATM    1  O   UNK N   1      27.985  17.609   9.275  0.00  0.00    -0.650 OA
HETATM    2  C   UNK N   1      28.897  18.359   8.977  0.00  0.00     0.139 C 
HETATM    3  O   UNK N   1      29.834  18.677   9.891  0.00  0.00    -0.776 OA
HETATM    4  H   UNK N   1      30.507  18.821  10.528  0.00  0.00     0.167 HD
ENDROOT
BRANCH   2   5
HETATM    5  C   UNK N   1      28.939  18.964   7.619  0.00  0.00     0.117 C 
BRANCH   5   6
HETATM    6  C   UNK N   1      29.161  17.943   6.501  0.00  0.00     0.035 C 
HETATM    7  C   UNK N   1      29.745  16.536   6.819  0.00  0.00     0.115 C 
HETATM    8  N   UNK N   1      29.123  15.729   5.796  0.00  0.00    -0.385 N 
HETATM    9  C   UNK N   1      31.301  16.330   6.697  0.00  0.00     0.055 C 
HETATM   10  C   UNK N   1      28.189  16.306   5.154  0.00  0.00     0.022 C 
ATOM     11  HN  UNK N   1      29.411  14.770   5.602  1.00  0.00     0.160 HD
HETATM   12  C   UNK N   1      27.411  15.614   4.078  0.00  0.00    -0.016 C 
HETATM   13  C   UNK N   1      27.910  17.694   5.622  0.00  0.00     0.005 C 
HETATM   14  C   UNK N   1      27.705  14.366   3.633  0.00  0.00     0.022 C 
HETATM   15  C   UNK N   1      26.276  16.358   3.445  0.00  0.00     0.052 C 
HETATM   16  C   UNK N   1      27.026  13.685   2.482  0.00  0.00     0.050 C 
HETATM   17  N   UNK N   1      28.765  13.578   4.112  0.00  0.00    -0.361 N 
HETATM   18  C   UNK N   1      27.690  12.289   2.474  0.00  0.00     0.004 C 
HETATM   19  C   UNK N   1      28.790  12.459   3.493  0.00  0.00     0.020 C 
HETATM   20  C   UNK N   1      28.242  11.993   1.092  0.00  0.00     0.022 C 
HETATM   21  C   UNK N   1      26.768  11.160   2.924  0.00  0.00     0.022 C 
HETATM   22  C   UNK N   1      29.793  11.399   3.722  0.00  0.00     0.051 C 
HETATM   23  C   UNK N   1      30.954  11.501   4.376  0.00  0.00     0.016 C 
HETATM   24  N   UNK N   1      31.437  12.658   4.993  0.00  0.00    -0.361 N 
HETATM   25  C   UNK N   1      31.928  10.376   4.488  0.00  0.00     0.051 C 
HETATM   26  C   UNK N   1      32.644  12.479   5.369  0.00  0.00     0.027 C 
ATOM     27  HN  UNK N   1      30.904  13.517   5.124  1.00  0.00     0.165 HD
HETATM   28  C   UNK N   1      33.197  11.111   5.006  0.00  0.00     0.017 C 
HETATM   29  C   UNK N   1      33.431  13.487   6.147  0.00  0.00    -0.016 C 
HETATM   30  C   UNK N   1      34.280  11.306   3.942  0.00  0.00     0.023 C 
HETATM   31  C   UNK N   1      32.856  14.588   6.689  0.00  0.00     0.018 C 
HETATM   32  C   UNK N   1      34.885  13.224   6.342  0.00  0.00     0.052 C 
HETATM   33  N   UNK N   1      31.540  14.943   6.409  0.00  0.00    -0.381 N 
HETATM   34  C   UNK N   1      33.511  15.603   7.585  0.00  0.00     0.047 C 
HETATM   35  H   UNK N   1      30.859  14.323   6.059  0.00  0.00     0.160 HD
HETATM   36  C   UNK N   1      32.268  16.529   7.929  0.00  0.00     0.001 C 
HETATM   37  C   UNK N   1      31.531  16.012   9.178  0.00  0.00     0.019 C 
ATOM     38  HN  UNK N   1      29.418  13.857   4.846  1.00  0.00     0.165 HD
HETATM   39  C   UNK N   1      26.600  17.649   6.412  0.00  0.00     0.022 C 
HETATM   40  C   UNK N   1      31.819  17.121   5.487  0.00  0.00     0.041 C 
BRANCH  16  41
HETATM   41  C   UNK N   1      25.504  13.720   2.365  0.00  0.00     0.022 C 
BRANCH  41  42
HETATM   42  C   UNK N   1      25.114  14.374   1.042  0.00  0.00     0.110 C 
BRANCH  42  43
HETATM   43  C   UNK N   1      23.788  13.868   0.551  0.00  0.00     0.139 C 
HETATM   44  O   UNK N   1      23.721  12.794  -0.021  0.00  0.00    -0.650 OA
BRANCH  43  45
HETATM   45  O   UNK N   1      22.671  14.596   0.740  0.00  0.00    -0.776 OA
HETATM   46  H   UNK N   1      22.058  14.351   1.406  0.00  0.00     0.167 HD
ENDBRANCH  43  45
ENDBRANCH  42  43
ENDBRANCH  41  42
ENDBRANCH  16  41
BRANCH  28  47
HETATM   47  C   UNK N   1      33.752  10.410   6.252  0.00  0.00     0.126 C 
BRANCH  47  48
HETATM   48  C   UNK N   1      32.763   9.526   6.945  0.00  0.00     0.140 C 
HETATM   49  O   UNK N   1      31.890  10.022   7.637  0.00  0.00    -0.650 OA
BRANCH  48  50
HETATM   50  O   UNK N   1      32.817   8.192   6.786  0.00  0.00    -0.776 OA
HETATM   51  H   UNK N   1      33.148   7.560   7.394  0.00  0.00     0.167 HD
ENDBRANCH  48  50
ENDBRANCH  47  48
ENDBRANCH  28  47
BRANCH  34  52
HETATM   52  C   UNK N   1      34.086  14.967   8.878  0.00  0.00     0.022 C 
BRANCH  52  53
HETATM   53  C   UNK N   1      35.573  15.193   9.099  0.00  0.00     0.110 C 
BRANCH  53  54
HETATM   54  C   UNK N   1      35.795  16.070  10.297  0.00  0.00     0.139 C 
HETATM   55  O   UNK N   1      34.906  16.804  10.699  0.00  0.00    -0.650 OA
BRANCH  54  56
HETATM   56  O   UNK N   1      36.970  16.028  10.951  0.00  0.00    -0.776 OA
HETATM   57  H   UNK N   1      37.217  15.281  11.461  0.00  0.00     0.167 HD
ENDBRANCH  54  56
ENDBRANCH  53  54
ENDBRANCH  52  53
ENDBRANCH  34  52
BRANCH  36  58
HETATM   58  C   UNK N   1      32.715  17.973   8.203  0.00  0.00     0.122 C 
BRANCH  58  59
HETATM   59  C   UNK N   1      34.099  18.289   7.700  0.00  0.00     0.140 C 
HETATM   60  O   UNK N   1      34.437  17.949   6.578  0.00  0.00    -0.650 OA
BRANCH  59  61
HETATM   61  O   UNK N   1      34.976  18.932   8.496  0.00  0.00    -0.776 OA
HETATM   62  H   UNK N   1      35.131  18.999   9.417  0.00  0.00     0.167 HD
ENDBRANCH  59  61
ENDBRANCH  58  59
ENDBRANCH  36  58
BRANCH  25  63
HETATM   63  C   UNK N   1      32.113   9.553   3.215  0.00  0.00     0.022 C 
BRANCH  63  64
HETATM   64  C   UNK N   1      32.139   8.080   3.586  0.00  0.00     0.110 C 
BRANCH  64  65
HETATM   65  C   UNK N   1      33.509   7.521   3.414  0.00  0.00     0.139 C 
HETATM   66  O   UNK N   1      34.260   7.430   4.370  0.00  0.00    -0.650 OA
BRANCH  65  67
HETATM   67  O   UNK N   1      33.911   7.102   2.200  0.00  0.00    -0.776 OA
HETATM   68  H   UNK N   1      33.611   7.522   1.417  0.00  0.00     0.167 HD
ENDBRANCH  65  67
ENDBRANCH  64  65
ENDBRANCH  63  64
ENDBRANCH  25  63
BRANCH  13  69
HETATM   69  C   UNK N   1      27.890  18.661   4.423  0.00  0.00     0.026 C 
BRANCH  69  70
HETATM   70  C   UNK N   1      27.180  19.991   4.653  0.00  0.00     0.111 C 
BRANCH  70  71
HETATM   71  C   UNK N   1      26.045  20.155   3.686  0.00  0.00     0.139 C 
HETATM   72  O   UNK N   1      24.978  19.606   3.904  0.00  0.00    -0.650 OA
BRANCH  71  73
HETATM   73  O   UNK N   1      26.197  20.904   2.576  0.00  0.00    -0.776 OA
HETATM   74  H   UNK N   1      26.800  20.704   1.887  0.00  0.00     0.167 HD
ENDBRANCH  71  73
ENDBRANCH  70  71
ENDBRANCH  69  70
ENDBRANCH  13  69
ENDBRANCH   5   6
ENDBRANCH   2   5
TORSDOF 24
ENDMDL
MODEL 3
REMARK VINA RESULT:      -6.0      3.516      5.867
REMARK  24 active torsions:
REMARK  status: ('A' for Active; 'I' for Inactive)
REMARK    1  A    between atoms: C_15  and  C_16 
REMARK    2  A    between atoms: C_16  and  C_17 
REMARK    3  A    between atoms: C_17  and  C_18 
REMARK    4  A    between atoms: C_18  and  O_20 
REMARK    5  A    between atoms: C_21  and  C_62 
REMARK    6  A    between atoms: C_25  and  C_22 
REMARK    7  A    between atoms: C_22  and  C_23 
REMARK    8  A    between atoms: C_23  and  O_60 
REMARK    9  A    between atoms: C_51  and  C_29 
REMARK   10  A    between atoms: C_29  and  C_30 
REMARK   11  A    between atoms: C_30  and  C_31 
REMARK   12  A    between atoms: C_31  and  O_33 
REMARK   13  A    between atoms: C_34  and  C_49 
REMARK   14  A    between atoms: C_44  and  C_35 
REMARK   15  A    between atoms: C_35  and  C_36 
REMARK   16  A    between atoms: C_36  and  O_59 
REMARK   17  A    between atoms: C_43  and  C_38 
REMARK   18  A    between atoms: C_38  and  C_39 
REMARK   19  A    between atoms: C_39  and  C_40 
REMARK   20  A    between atoms: C_40  and  O_42 
REMARK   21  A    between atoms: C_47  and  C_49 
REMARK   22  A    between atoms: C_62  and  C_63 
REMARK   23  A    between atoms: C_63  and  C_65 
REMARK   24  A    between atoms: C_65  and  O_66 
ROOT
HETATM    1  O   UNK N   1      27.781  20.301   6.248  0.00  0.00    -0.650 OA
HETATM    2  C   UNK N   1      27.930  19.422   5.416  0.00  0.00     0.139 C 
HETATM    3  O   UNK N   1      28.266  19.742   4.152  0.00  0.00    -0.776 OA
HETATM    4  H   UNK N   1      28.569  19.993   3.301  0.00  0.00     0.167 HD
ENDROOT
BRANCH   2   5
HETATM    5  C   UNK N   1      27.685  18.005   5.791  0.00  0.00     0.117 C 
BRANCH   5   6
HETATM    6  C   UNK N   1      27.345  17.106   4.601  0.00  0.00     0.035 C 
HETATM    7  C   UNK N   1      27.942  15.672   4.497  0.00  0.00     0.115 C 
HETATM    8  N   UNK N   1      26.897  14.978   3.783  0.00  0.00    -0.385 N 
HETATM    9  C   UNK N   1      29.275  15.477   3.683  0.00  0.00     0.055 C 
HETATM   10  C   UNK N   1      25.805  15.620   3.675  0.00  0.00     0.022 C 
ATOM     11  HN  UNK N   1      27.025  14.043   3.395  1.00  0.00     0.160 HD
HETATM   12  C   UNK N   1      24.602  15.045   2.993  0.00  0.00    -0.016 C 
HETATM   13  C   UNK N   1      25.826  16.952   4.344  0.00  0.00     0.005 C 
HETATM   14  C   UNK N   1      24.612  13.849   2.350  0.00  0.00     0.022 C 
HETATM   15  C   UNK N   1      23.341  15.853   2.997  0.00  0.00     0.052 C 
HETATM   16  C   UNK N   1      23.466  13.293   1.559  0.00  0.00     0.050 C 
HETATM   17  N   UNK N   1      25.736  13.014   2.238  0.00  0.00    -0.361 N 
HETATM   18  C   UNK N   1      23.992  11.904   1.130  0.00  0.00     0.004 C 
HETATM   19  C   UNK N   1      25.434  11.965   1.570  0.00  0.00     0.020 C 
HETATM   20  C   UNK N   1      23.867  11.753  -0.375  0.00  0.00     0.022 C 
HETATM   21  C   UNK N   1      23.307  10.737   1.834  0.00  0.00     0.022 C 
HETATM   22  C   UNK N   1      26.384  10.886   1.235  0.00  0.00     0.051 C 
HETATM   23  C   UNK N   1      27.718  10.916   1.317  0.00  0.00     0.016 C 
HETATM   24  N   UNK N   1      28.476  12.002   1.762  0.00  0.00    -0.361 N 
HETATM   25  C   UNK N   1      28.587   9.784   0.884  0.00  0.00     0.051 C 
HETATM   26  C   UNK N   1      29.716  11.783   1.549  0.00  0.00     0.027 C 
ATOM     27  HN  UNK N   1      28.096  12.844   2.194  1.00  0.00     0.165 HD
HETATM   28  C   UNK N   1      29.988  10.459   0.855  0.00  0.00     0.017 C 
HETATM   29  C   UNK N   1      30.812  12.703   1.990  0.00  0.00    -0.016 C 
HETATM   30  C   UNK N   1      30.503  10.761  -0.555  0.00  0.00     0.023 C 
HETATM   31  C   UNK N   1      30.585  13.742   2.830  0.00  0.00     0.018 C 
HETATM   32  C   UNK N   1      32.190  12.418   1.499  0.00  0.00     0.052 C 
HETATM   33  N   UNK N   1      29.298  14.127   3.192  0.00  0.00    -0.381 N 
HETATM   34  C   UNK N   1      31.614  14.657   3.434  0.00  0.00     0.047 C 
HETATM   35  H   UNK N   1      28.504  13.548   3.122  0.00  0.00     0.160 HD
HETATM   36  C   UNK N   1      30.693  15.545   4.375  0.00  0.00     0.001 C 
HETATM   37  C   UNK N   1      30.554  14.903   5.768  0.00  0.00     0.019 C 
ATOM     38  HN  UNK N   1      26.656  13.214   2.631  1.00  0.00     0.165 HD
HETATM   39  C   UNK N   1      24.994  16.828   5.622  0.00  0.00     0.022 C 
HETATM   40  C   UNK N   1      29.248  16.388   2.448  0.00  0.00     0.041 C 
BRANCH  16  41
HETATM   41  C   UNK N   1      22.050  13.343   2.129  0.00  0.00     0.022 C 
BRANCH  41  42
HETATM   42  C   UNK N   1      21.064  13.653   1.006  0.00  0.00     0.110 C 
BRANCH  42  43
HETATM   43  C   UNK N   1      20.421  14.997   1.197  0.00  0.00     0.139 C 
HETATM   44  O   UNK N   1      20.718  15.924   0.463  0.00  0.00    -0.650 OA
BRANCH  43  45
HETATM   45  O   UNK N   1      19.517  15.184   2.178  0.00  0.00    -0.776 OA
HETATM   46  H   UNK N   1      18.601  15.119   1.990  0.00  0.00     0.167 HD
ENDBRANCH  43  45
ENDBRANCH  42  43
ENDBRANCH  41  42
ENDBRANCH  16  41
BRANCH  28  47
HETATM   47  C   UNK N   1      30.999   9.631   1.657  0.00  0.00     0.126 C 
BRANCH  47  48
HETATM   48  C   UNK N   1      30.414   8.947   2.853  0.00  0.00     0.140 C 
HETATM   49  O   UNK N   1      30.197   9.586   3.869  0.00  0.00    -0.650 OA
BRANCH  48  50
HETATM   50  O   UNK N   1      30.102   7.640   2.803  0.00  0.00    -0.776 OA
HETATM   51  H   UNK N   1      30.688   6.913   2.873  0.00  0.00     0.167 HD
ENDBRANCH  48  50
ENDBRANCH  47  48
ENDBRANCH  28  47
BRANCH  34  52
HETATM   52  C   UNK N   1      32.666  13.889   4.277  0.00  0.00     0.022 C 
BRANCH  52  53
HETATM   53  C   UNK N   1      34.106  14.327   4.060  0.00  0.00     0.110 C 
BRANCH  53  54
HETATM   54  C   UNK N   1      34.833  14.395   5.371  0.00  0.00     0.139 C 
HETATM   55  O   UNK N   1      35.396  15.424   5.713  0.00  0.00    -0.650 OA
BRANCH  54  56
HETATM   56  O   UNK N   1      34.844  13.328   6.189  0.00  0.00    -0.776 OA
HETATM   57  H   UNK N   1      34.262  13.268   6.921  0.00  0.00     0.167 HD
ENDBRANCH  54  56
ENDBRANCH  53  54
ENDBRANCH  52  53
ENDBRANCH  34  52
BRANCH  36  58
HETATM   58  C   UNK N   1      31.283  16.952   4.557  0.00  0.00     0.122 C 
BRANCH  58  59
HETATM   59  C   UNK N   1      31.780  17.229   5.952  0.00  0.00     0.140 C 
HETATM   60  O   UNK N   1      30.995  17.542   6.832  0.00  0.00    -0.650 OA
BRANCH  59  61
HETATM   61  O   UNK N   1      33.096  17.150   6.227  0.00  0.00    -0.776 OA
HETATM   62  H   UNK N   1      33.860  17.658   6.035  0.00  0.00     0.167 HD
ENDBRANCH  59  61
ENDBRANCH  58  59
ENDBRANCH  36  58
BRANCH  25  63
HETATM   63  C   UNK N   1      28.157   9.098  -0.411  0.00  0.00     0.022 C 
BRANCH  63  64
HETATM   64  C   UNK N   1      28.249   7.593  -0.219  0.00  0.00     0.110 C 
BRANCH  64  65
HETATM   65  C   UNK N   1      29.571   7.086  -0.679  0.00  0.00     0.139 C 
HETATM   66  O   UNK N   1      30.297   6.479   0.089  0.00  0.00    -0.650 OA
BRANCH  65  67
HETATM   67  O   UNK N   1      29.957   7.289  -1.952  0.00  0.00    -0.776 OA
HETATM   68  H   UNK N   1      30.426   6.632  -2.429  0.00  0.00     0.167 HD
ENDBRANCH  65  67
ENDBRANCH  64  65
ENDBRANCH  63  64
ENDBRANCH  25  63
BRANCH  13  69
HETATM   69  C   UNK N   1      25.328  18.039   3.372  0.00  0.00     0.026 C 
BRANCH  69  70
HETATM   70  C   UNK N   1      24.585  19.209   4.007  0.00  0.00     0.111 C 
BRANCH  70  71
HETATM   71  C   UNK N   1      24.615  20.404   3.100  0.00  0.00     0.139 C 
HETATM   72  O   UNK N   1      23.611  21.081   2.955  0.00  0.00    -0.650 OA
BRANCH  71  73
HETATM   73  O   UNK N   1      25.745  20.735   2.444  0.00  0.00    -0.776 OA
HETATM   74  H   UNK N   1      26.031  21.616   2.304  0.00  0.00     0.167 HD
ENDBRANCH  71  73
ENDBRANCH  70  71
ENDBRANCH  69  70
ENDBRANCH  13  69
ENDBRANCH   5   6
ENDBRANCH   2   5
TORSDOF 24
ENDMDL
MODEL 4
REMARK VINA RESULT:      -6.0      4.060      9.487
REMARK  24 active torsions:
REMARK  status: ('A' for Active; 'I' for Inactive)
REMARK    1  A    between atoms: C_15  and  C_16 
REMARK    2  A    between atoms: C_16  and  C_17 
REMARK    3  A    between atoms: C_17  and  C_18 
REMARK    4  A    between atoms: C_18  and  O_20 
REMARK    5  A    between atoms: C_21  and  C_62 
REMARK    6  A    between atoms: C_25  and  C_22 
REMARK    7  A    between atoms: C_22  and  C_23 
REMARK    8  A    between atoms: C_23  and  O_60 
REMARK    9  A    between atoms: C_51  and  C_29 
REMARK   10  A    between atoms: C_29  and  C_30 
REMARK   11  A    between atoms: C_30  and  C_31 
REMARK   12  A    between atoms: C_31  and  O_33 
REMARK   13  A    between atoms: C_34  and  C_49 
REMARK   14  A    between atoms: C_44  and  C_35 
REMARK   15  A    between atoms: C_35  and  C_36 
REMARK   16  A    between atoms: C_36  and  O_59 
REMARK   17  A    between atoms: C_43  and  C_38 
REMARK   18  A    between atoms: C_38  and  C_39 
REMARK   19  A    between atoms: C_39  and  C_40 
REMARK   20  A    between atoms: C_40  and  O_42 
REMARK   21  A    between atoms: C_47  and  C_49 
REMARK   22  A    between atoms: C_62  and  C_63 
REMARK   23  A    between atoms: C_63  and  C_65 
REMARK   24  A    between atoms: C_65  and  O_66 
ROOT
HETATM    1  O   UNK N   1      23.110  18.131   5.245  0.00  0.00    -0.650 OA
HETATM    2  C   UNK N   1      24.062  17.371   5.231  0.00  0.00     0.139 C 
HETATM    3  O   UNK N   1      24.110  16.336   6.092  0.00  0.00    -0.776 OA
HETATM    4  H   UNK N   1      24.078  15.586   6.654  0.00  0.00     0.167 HD
ENDROOT
BRANCH   2   5
HETATM    5  C   UNK N   1      25.193  17.624   4.300  0.00  0.00     0.117 C 
BRANCH   5   6
HETATM    6  C   UNK N   1      26.352  16.639   4.462  0.00  0.00     0.035 C 
HETATM    7  C   UNK N   1      26.776  15.715   3.284  0.00  0.00     0.115 C 
HETATM    8  N   UNK N   1      28.190  15.563   3.532  0.00  0.00    -0.385 N 
HETATM    9  C   UNK N   1      26.156  14.271   3.209  0.00  0.00     0.055 C 
HETATM   10  C   UNK N   1      28.666  16.348   4.413  0.00  0.00     0.022 C 
ATOM     11  HN  UNK N   1      28.764  14.879   3.038  1.00  0.00     0.160 HD
HETATM   12  C   UNK N   1      30.118  16.353   4.780  0.00  0.00    -0.016 C 
HETATM   13  C   UNK N   1      27.659  17.288   4.983  0.00  0.00     0.005 C 
HETATM   14  C   UNK N   1      31.013  15.462   4.284  0.00  0.00     0.022 C 
HETATM   15  C   UNK N   1      30.586  17.376   5.769  0.00  0.00     0.052 C 
HETATM   16  C   UNK N   1      32.447  15.361   4.713  0.00  0.00     0.050 C 
HETATM   17  N   UNK N   1      30.697  14.431   3.384  0.00  0.00    -0.361 N 
HETATM   18  C   UNK N   1      33.001  14.256   3.784  0.00  0.00     0.004 C 
HETATM   19  C   UNK N   1      31.748  13.755   3.111  0.00  0.00     0.020 C 
HETATM   20  C   UNK N   1      33.665  13.175   4.617  0.00  0.00     0.022 C 
HETATM   21  C   UNK N   1      33.967  14.766   2.720  0.00  0.00     0.022 C 
HETATM   22  C   UNK N   1      31.776  12.577   2.219  0.00  0.00     0.051 C 
HETATM   23  C   UNK N   1      30.736  11.866   1.772  0.00  0.00     0.016 C 
HETATM   24  N   UNK N   1      29.394  12.124   2.063  0.00  0.00    -0.361 N 
HETATM   25  C   UNK N   1      30.887  10.646   0.927  0.00  0.00     0.051 C 
HETATM   26  C   UNK N   1      28.665  11.166   1.639  0.00  0.00     0.027 C 
ATOM     27  HN  UNK N   1      29.049  12.956   2.542  1.00  0.00     0.165 HD
HETATM   28  C   UNK N   1      29.456  10.039   0.998  0.00  0.00     0.017 C 
HETATM   29  C   UNK N   1      27.169  11.167   1.704  0.00  0.00    -0.016 C 
HETATM   30  C   UNK N   1      29.348   8.809   1.905  0.00  0.00     0.023 C 
HETATM   31  C   UNK N   1      26.463  12.275   2.035  0.00  0.00     0.018 C 
HETATM   32  C   UNK N   1      26.464   9.901   1.356  0.00  0.00     0.052 C 
HETATM   33  N   UNK N   1      27.083  13.428   2.505  0.00  0.00    -0.381 N 
HETATM   34  C   UNK N   1      24.968  12.433   2.019  0.00  0.00     0.047 C 
HETATM   35  H   UNK N   1      28.035  13.642   2.373  0.00  0.00     0.160 HD
HETATM   36  C   UNK N   1      24.835  13.970   2.396  0.00  0.00     0.001 C 
HETATM   37  C   UNK N   1      24.867  14.848   1.131  0.00  0.00     0.019 C 
ATOM     38  HN  UNK N   1      29.767  14.249   3.004  1.00  0.00     0.165 HD
HETATM   39  C   UNK N   1      27.942  18.668   4.385  0.00  0.00     0.022 C 
HETATM   40  C   UNK N   1      26.041  13.699   4.629  0.00  0.00     0.041 C 
BRANCH  16  41
HETATM   41  C   UNK N   1      33.292  16.626   4.853  0.00  0.00     0.022 C 
BRANCH  41  42
HETATM   42  C   UNK N   1      34.344  16.411   5.939  0.00  0.00     0.110 C 
BRANCH  42  43
HETATM   43  C   UNK N   1      34.100  17.305   7.121  0.00  0.00     0.139 C 
HETATM   44  O   UNK N   1      34.688  18.370   7.210  0.00  0.00    -0.650 OA
BRANCH  43  45
HETATM   45  O   UNK N   1      33.235  16.936   8.084  0.00  0.00    -0.776 OA
HETATM   46  H   UNK N   1      32.312  16.988   7.931  0.00  0.00     0.167 HD
ENDBRANCH  43  45
ENDBRANCH  42  43
ENDBRANCH  41  42
ENDBRANCH  16  41
BRANCH  28  47
HETATM   47  C   UNK N   1      28.926   9.746  -0.411  0.00  0.00     0.126 C 
BRANCH  47  48
HETATM   48  C   UNK N   1      29.776  10.305  -1.509  0.00  0.00     0.140 C 
HETATM   49  O   UNK N   1      29.886  11.513  -1.632  0.00  0.00    -0.650 OA
BRANCH  48  50
HETATM   50  O   UNK N   1      30.437   9.482  -2.342  0.00  0.00    -0.776 OA
HETATM   51  H   UNK N   1      30.581   9.599  -3.260  0.00  0.00     0.167 HD
ENDBRANCH  48  50
ENDBRANCH  47  48
ENDBRANCH  28  47
BRANCH  34  52
HETATM   52  C   UNK N   1      24.360  12.166   0.617  0.00  0.00     0.022 C 
BRANCH  52  53
HETATM   53  C   UNK N   1      22.992  11.500   0.626  0.00  0.00     0.110 C 
BRANCH  53  54
HETATM   54  C   UNK N   1      23.045  10.191  -0.105  0.00  0.00     0.139 C 
HETATM   55  O   UNK N   1      23.770  10.055  -1.079  0.00  0.00    -0.650 OA
BRANCH  54  56
HETATM   56  O   UNK N   1      22.312   9.150   0.328  0.00  0.00    -0.776 OA
HETATM   57  H   UNK N   1      21.441   9.269   0.654  0.00  0.00     0.167 HD
ENDBRANCH  54  56
ENDBRANCH  53  54
ENDBRANCH  52  53
ENDBRANCH  34  52
BRANCH  36  58
HETATM   58  C   UNK N   1      23.517  14.246   3.134  0.00  0.00     0.122 C 
BRANCH  58  59
HETATM   59  C   UNK N   1      22.552  15.104   2.358  0.00  0.00     0.140 C 
HETATM   60  O   UNK N   1      22.090  14.706   1.302  0.00  0.00    -0.650 OA
BRANCH  59  61
HETATM   61  O   UNK N   1      22.210  16.323   2.821  0.00  0.00    -0.776 OA
HETATM   62  H   UNK N   1      21.466  16.700   3.247  0.00  0.00     0.167 HD
ENDBRANCH  59  61
ENDBRANCH  58  59
ENDBRANCH  36  58
BRANCH  25  63
HETATM   63  C   UNK N   1      32.022   9.712   1.336  0.00  0.00     0.022 C 
BRANCH  63  64
HETATM   64  C   UNK N   1      32.819   9.340   0.097  0.00  0.00     0.110 C 
BRANCH  64  65
HETATM   65  C   UNK N   1      33.408  10.555  -0.531  0.00  0.00     0.139 C 
HETATM   66  O   UNK N   1      34.255  11.203   0.060  0.00  0.00    -0.650 OA
BRANCH  65  67
HETATM   67  O   UNK N   1      33.011  10.928  -1.761  0.00  0.00    -0.776 OA
HETATM   68  H   UNK N   1      32.314  10.484  -2.203  0.00  0.00     0.167 HD
ENDBRANCH  65  67
ENDBRANCH  64  65
ENDBRANCH  63  64
ENDBRANCH  25  63
BRANCH  13  69
HETATM   69  C   UNK N   1      27.709  17.245   6.522  0.00  0.00     0.026 C 
BRANCH  69  70
HETATM   70  C   UNK N   1      27.959  18.580   7.216  0.00  0.00     0.111 C 
BRANCH  70  71
HETATM   71  C   UNK N   1      28.275  18.366   8.667  0.00  0.00     0.139 C 
HETATM   72  O   UNK N   1      29.308  18.813   9.136  0.00  0.00    -0.650 OA
BRANCH  71  73
HETATM   73  O   UNK N   1      27.425  17.681   9.457  0.00  0.00    -0.776 OA
HETATM   74  H   UNK N   1      26.772  17.090   9.137  0.00  0.00     0.167 HD
ENDBRANCH  71  73
ENDBRANCH  70  71
ENDBRANCH  69  70
ENDBRANCH  13  69
ENDBRANCH   5   6
ENDBRANCH   2   5
TORSDOF 24
ENDMDL
MODEL 5
REMARK VINA RESULT:      -5.8      3.329      8.998
REMARK  24 active torsions:
REMARK  status: ('A' for Active; 'I' for Inactive)
REMARK    1  A    between atoms: C_15  and  C_16 
REMARK    2  A    between atoms: C_16  and  C_17 
REMARK    3  A    between atoms: C_17  and  C_18 
REMARK    4  A    between atoms: C_18  and  O_20 
REMARK    5  A    between atoms: C_21  and  C_62 
REMARK    6  A    between atoms: C_25  and  C_22 
REMARK    7  A    between atoms: C_22  and  C_23 
REMARK    8  A    between atoms: C_23  and  O_60 
REMARK    9  A    between atoms: C_51  and  C_29 
REMARK   10  A    between atoms: C_29  and  C_30 
REMARK   11  A    between atoms: C_30  and  C_31 
REMARK   12  A    between atoms: C_31  and  O_33 
REMARK   13  A    between atoms: C_34  and  C_49 
REMARK   14  A    between atoms: C_44  and  C_35 
REMARK   15  A    between atoms: C_35  and  C_36 
REMARK   16  A    between atoms: C_36  and  O_59 
REMARK   17  A    between atoms: C_43  and  C_38 
REMARK   18  A    between atoms: C_38  and  C_39 
REMARK   19  A    between atoms: C_39  and  C_40 
REMARK   20  A    between atoms: C_40  and  O_42 
REMARK   21  A    between atoms: C_47  and  C_49 
REMARK   22  A    between atoms: C_62  and  C_63 
REMARK   23  A    between atoms: C_63  and  C_65 
REMARK   24  A    between atoms: C_65  and  O_66 
ROOT
HETATM    1  O   UNK N   1      24.869   9.966   2.494  0.00  0.00    -0.650 OA
HETATM    2  C   UNK N   1      24.916  10.287   1.319  0.00  0.00     0.139 C 
HETATM    3  O   UNK N   1      24.785   9.351   0.360  0.00  0.00    -0.776 OA
HETATM    4  H   UNK N   1      24.620   8.687  -0.281  0.00  0.00     0.167 HD
ENDROOT
BRANCH   2   5
HETATM    5  C   UNK N   1      25.174  11.705   0.953  0.00  0.00     0.117 C 
BRANCH   5   6
HETATM    6  C   UNK N   1      25.680  12.556   2.119  0.00  0.00     0.035 C 
HETATM    7  C   UNK N   1      27.155  13.053   2.154  0.00  0.00     0.115 C 
HETATM    8  N   UNK N   1      27.022  14.298   2.871  0.00  0.00    -0.385 N 
HETATM    9  C   UNK N   1      28.217  12.181   2.922  0.00  0.00     0.055 C 
HETATM   10  C   UNK N   1      25.825  14.697   3.033  0.00  0.00     0.022 C 
ATOM     11  HN  UNK N   1      27.827  14.819   3.221  1.00  0.00     0.160 HD
HETATM   12  C   UNK N   1      25.497  15.983   3.727  0.00  0.00    -0.016 C 
HETATM   13  C   UNK N   1      24.807  13.801   2.413  0.00  0.00     0.005 C 
HETATM   14  C   UNK N   1      26.432  16.765   4.324  0.00  0.00     0.022 C 
HETATM   15  C   UNK N   1      24.059  16.399   3.788  0.00  0.00     0.052 C 
HETATM   16  C   UNK N   1      26.131  17.996   5.127  0.00  0.00     0.050 C 
HETATM   17  N   UNK N   1      27.804  16.470   4.375  0.00  0.00    -0.361 N 
HETATM   18  C   UNK N   1      27.541  18.517   5.489  0.00  0.00     0.004 C 
HETATM   19  C   UNK N   1      28.424  17.390   5.012  0.00  0.00     0.020 C 
HETATM   20  C   UNK N   1      27.642  18.715   6.991  0.00  0.00     0.022 C 
HETATM   21  C   UNK N   1      27.935  19.799   4.763  0.00  0.00     0.022 C 
HETATM   22  C   UNK N   1      29.876  17.388   5.280  0.00  0.00     0.051 C 
HETATM   23  C   UNK N   1      30.727  16.364   5.162  0.00  0.00     0.016 C 
HETATM   24  N   UNK N   1      30.391  15.077   4.736  0.00  0.00    -0.361 N 
HETATM   25  C   UNK N   1      32.170  16.458   5.529  0.00  0.00     0.051 C 
HETATM   26  C   UNK N   1      31.381  14.290   4.906  0.00  0.00     0.027 C 
ATOM     27  HN  UNK N   1      29.488  14.807   4.346  1.00  0.00     0.165 HD
HETATM   28  C   UNK N   1      32.587  14.959   5.543  0.00  0.00     0.017 C 
HETATM   29  C   UNK N   1      31.391  12.858   4.468  0.00  0.00    -0.016 C 
HETATM   30  C   UNK N   1      32.764  14.377   6.948  0.00  0.00     0.023 C 
HETATM   31  C   UNK N   1      30.422  12.341   3.674  0.00  0.00     0.018 C 
HETATM   32  C   UNK N   1      32.534  12.010   4.910  0.00  0.00     0.052 C 
HETATM   33  N   UNK N   1      29.269  13.054   3.362  0.00  0.00    -0.381 N 
HETATM   34  C   UNK N   1      30.384  10.962   3.075  0.00  0.00     0.047 C 
HETATM   35  H   UNK N   1      29.184  14.033   3.433  0.00  0.00     0.160 HD
HETATM   36  C   UNK N   1      29.067  11.067   2.193  0.00  0.00     0.001 C 
HETATM   37  C   UNK N   1      29.394  11.591   0.782  0.00  0.00     0.019 C 
ATOM     38  HN  UNK N   1      28.242  15.645   3.963  1.00  0.00     0.165 HD
HETATM   39  C   UNK N   1      24.294  14.505   1.154  0.00  0.00     0.022 C 
HETATM   40  C   UNK N   1      27.571  11.604   4.190  0.00  0.00     0.041 C 
BRANCH  16  41
HETATM   41  C   UNK N   1      25.135  19.027   4.599  0.00  0.00     0.022 C 
BRANCH  41  42
HETATM   42  C   UNK N   1      25.306  19.165   3.088  0.00  0.00     0.110 C 
BRANCH  42  43
HETATM   43  C   UNK N   1      25.001  20.561   2.628  0.00  0.00     0.139 C 
HETATM   44  O   UNK N   1      25.905  21.287   2.248  0.00  0.00    -0.650 OA
BRANCH  43  45
HETATM   45  O   UNK N   1      23.735  21.018   2.634  0.00  0.00    -0.776 OA
HETATM   46  H   UNK N   1      23.251  21.068   1.833  0.00  0.00     0.167 HD
ENDBRANCH  43  45
ENDBRANCH  42  43
ENDBRANCH  41  42
ENDBRANCH  16  41
BRANCH  28  47
HETATM   47  C   UNK N   1      33.838  14.742   4.683  0.00  0.00     0.126 C 
BRANCH  47  48
HETATM   48  C   UNK N   1      33.678  15.167   3.257  0.00  0.00     0.140 C 
HETATM   49  O   UNK N   1      33.699  14.331   2.371  0.00  0.00    -0.650 OA
BRANCH  48  50
HETATM   50  O   UNK N   1      33.484  16.463   2.953  0.00  0.00    -0.776 OA
HETATM   51  H   UNK N   1      32.840  17.041   3.313  0.00  0.00     0.167 HD
ENDBRANCH  48  50
ENDBRANCH  47  48
ENDBRANCH  28  47
BRANCH  34  52
HETATM   52  C   UNK N   1      31.615  10.675   2.176  0.00  0.00     0.022 C 
BRANCH  52  53
HETATM   53  C   UNK N   1      32.289   9.333   2.419  0.00  0.00     0.110 C 
BRANCH  53  54
HETATM   54  C   UNK N   1      32.863   8.798   1.141  0.00  0.00     0.139 C 
HETATM   55  O   UNK N   1      33.655   9.464   0.491  0.00  0.00    -0.650 OA
BRANCH  54  56
HETATM   56  O   UNK N   1      32.527   7.565   0.718  0.00  0.00    -0.776 OA
HETATM   57  H   UNK N   1      32.794   6.799   1.188  0.00  0.00     0.167 HD
ENDBRANCH  54  56
ENDBRANCH  53  54
ENDBRANCH  52  53
ENDBRANCH  34  52
BRANCH  36  58
HETATM   58  C   UNK N   1      28.390   9.696   2.047  0.00  0.00     0.122 C 
BRANCH  58  59
HETATM   59  C   UNK N   1      28.602   9.052   0.701  0.00  0.00     0.140 C 
HETATM   60  O   UNK N   1      29.595   8.375   0.495  0.00  0.00    -0.650 OA
BRANCH  59  61
HETATM   61  O   UNK N   1      27.703   9.237  -0.285  0.00  0.00    -0.776 OA
HETATM   62  H   UNK N   1      27.728   9.504  -1.182  0.00  0.00     0.167 HD
ENDBRANCH  59  61
ENDBRANCH  58  59
ENDBRANCH  36  58
BRANCH  25  63
HETATM   63  C   UNK N   1      32.462  17.237   6.809  0.00  0.00     0.022 C 
BRANCH  63  64
HETATM   64  C   UNK N   1      33.877  17.787   6.734  0.00  0.00     0.110 C 
BRANCH  64  65
HETATM   65  C   UNK N   1      34.399  18.078   8.098  0.00  0.00     0.139 C 
HETATM   66  O   UNK N   1      34.019  17.423   9.054  0.00  0.00    -0.650 OA
BRANCH  65  67
HETATM   67  O   UNK N   1      35.303  19.059   8.271  0.00  0.00    -0.776 OA
HETATM   68  H   UNK N   1      35.750  19.443   7.541  0.00  0.00     0.167 HD
ENDBRANCH  65  67
ENDBRANCH  64  65
ENDBRANCH  63  64
ENDBRANCH  25  63
BRANCH  13  69
HETATM   69  C   UNK N   1      23.709  13.463   3.438  0.00  0.00     0.026 C 
BRANCH  69  70
HETATM   70  C   UNK N   1      24.114  12.509   4.557  0.00  0.00     0.111 C 
BRANCH  70  71
HETATM   71  C   UNK N   1      24.112  13.219   5.878  0.00  0.00     0.139 C 
HETATM   72  O   UNK N   1      23.177  13.944   6.176  0.00  0.00    -0.650 OA
BRANCH  71  73
HETATM   73  O   UNK N   1      25.136  13.063   6.740  0.00  0.00    -0.776 OA
HETATM   74  H   UNK N   1      25.435  12.232   7.053  0.00  0.00     0.167 HD
ENDBRANCH  71  73
ENDBRANCH  70  71
ENDBRANCH  69  70
ENDBRANCH  13  69
ENDBRANCH   5   6
ENDBRANCH   2   5
TORSDOF 24
ENDMDL
MODEL 6
REMARK VINA RESULT:      -5.8      3.113      7.268
REMARK  24 active torsions:
REMARK  status: ('A' for Active; 'I' for Inactive)
REMARK    1  A    between atoms: C_15  and  C_16 
REMARK    2  A    between atoms: C_16  and  C_17 
REMARK    3  A    between atoms: C_17  and  C_18 
REMARK    4  A    between atoms: C_18  and  O_20 
REMARK    5  A    between atoms: C_21  and  C_62 
REMARK    6  A    between atoms: C_25  and  C_22 
REMARK    7  A    between atoms: C_22  and  C_23 
REMARK    8  A    between atoms: C_23  and  O_60 
REMARK    9  A    between atoms: C_51  and  C_29 
REMARK   10  A    between atoms: C_29  and  C_30 
REMARK   11  A    between atoms: C_30  and  C_31 
REMARK   12  A    between atoms: C_31  and  O_33 
REMARK   13  A    between atoms: C_34  and  C_49 
REMARK   14  A    between atoms: C_44  and  C_35 
REMARK   15  A    between atoms: C_35  and  C_36 
REMARK   16  A    between atoms: C_36  and  O_59 
REMARK   17  A    between atoms: C_43  and  C_38 
REMARK   18  A    between atoms: C_38  and  C_39 
REMARK   19  A    between atoms: C_39  and  C_40 
REMARK   20  A    between atoms: C_40  and  O_42 
REMARK   21  A    between atoms: C_47  and  C_49 
REMARK   22  A    between atoms: C_62  and  C_63 
REMARK   23  A    between atoms: C_63  and  C_65 
REMARK   24  A    between atoms: C_65  and  O_66 
ROOT
HETATM    1  O   UNK N   1      35.614  14.121   8.075  0.00  0.00    -0.650 OA
HETATM    2  C   UNK N   1      36.298  14.184   7.068  0.00  0.00     0.139 C 
HETATM    3  O   UNK N   1      37.578  13.766   7.097  0.00  0.00    -0.776 OA
HETATM    4  H   UNK N   1      38.441  13.401   7.131  0.00  0.00     0.167 HD
ENDROOT
BRANCH   2   5
HETATM    5  C   UNK N   1      35.729  14.775   5.829  0.00  0.00     0.117 C 
BRANCH   5   6
HETATM    6  C   UNK N   1      34.493  14.038   5.310  0.00  0.00     0.035 C 
HETATM    7  C   UNK N   1      33.224  14.829   4.876  0.00  0.00     0.115 C 
HETATM    8  N   UNK N   1      32.688  13.970   3.847  0.00  0.00    -0.385 N 
HETATM    9  C   UNK N   1      32.086  15.052   5.940  0.00  0.00     0.055 C 
HETATM   10  C   UNK N   1      33.466  13.037   3.471  0.00  0.00     0.022 C 
ATOM     11  HN  UNK N   1      31.757  14.102   3.451  1.00  0.00     0.160 HD
HETATM   12  C   UNK N   1      33.091  12.069   2.392  0.00  0.00    -0.016 C 
HETATM   13  C   UNK N   1      34.790  13.049   4.156  0.00  0.00     0.005 C 
HETATM   14  C   UNK N   1      31.865  12.043   1.808  0.00  0.00     0.022 C 
HETATM   15  C   UNK N   1      34.115  11.061   1.967  0.00  0.00     0.052 C 
HETATM   16  C   UNK N   1      31.414  11.019   0.810  0.00  0.00     0.050 C 
HETATM   17  N   UNK N   1      30.806  12.903   2.142  0.00  0.00    -0.361 N 
HETATM   18  C   UNK N   1      29.998  11.514   0.433  0.00  0.00     0.004 C 
HETATM   19  C   UNK N   1      29.782  12.628   1.427  0.00  0.00     0.020 C 
HETATM   20  C   UNK N   1      28.997  10.388   0.621  0.00  0.00     0.022 C 
HETATM   21  C   UNK N   1      29.894  12.080  -0.979  0.00  0.00     0.022 C 
HETATM   22  C   UNK N   1      28.479  13.317   1.534  0.00  0.00     0.051 C 
HETATM   23  C   UNK N   1      28.056  14.117   2.517  0.00  0.00     0.016 C 
HETATM   24  N   UNK N   1      28.797  14.471   3.647  0.00  0.00    -0.361 N 
HETATM   25  C   UNK N   1      26.686  14.707   2.555  0.00  0.00     0.051 C 
HETATM   26  C   UNK N   1      28.054  15.094   4.477  0.00  0.00     0.027 C 
ATOM     27  HN  UNK N   1      29.786  14.264   3.788  1.00  0.00     0.165 HD
HETATM   28  C   UNK N   1      26.611  15.225   4.020  0.00  0.00     0.017 C 
HETATM   29  C   UNK N   1      28.554  15.696   5.754  0.00  0.00    -0.016 C 
HETATM   30  C   UNK N   1      25.742  14.363   4.940  0.00  0.00     0.023 C 
HETATM   31  C   UNK N   1      29.876  15.803   6.030  0.00  0.00     0.018 C 
HETATM   32  C   UNK N   1      27.539  16.216   6.714  0.00  0.00     0.052 C 
HETATM   33  N   UNK N   1      30.845  15.202   5.232  0.00  0.00    -0.381 N 
HETATM   34  C   UNK N   1      30.500  16.490   7.213  0.00  0.00     0.047 C 
HETATM   35  H   UNK N   1      30.699  14.918   4.300  0.00  0.00     0.160 HD
HETATM   36  C   UNK N   1      32.041  16.337   6.857  0.00  0.00     0.001 C 
HETATM   37  C   UNK N   1      32.525  17.525   6.005  0.00  0.00     0.019 C 
ATOM     38  HN  UNK N   1      30.848  13.638   2.848  1.00  0.00     0.165 HD
HETATM   39  C   UNK N   1      35.816  13.570   3.146  0.00  0.00     0.022 C 
HETATM   40  C   UNK N   1      31.945  13.787   6.799  0.00  0.00     0.041 C 
BRANCH  16  41
HETATM   41  C   UNK N   1      32.331  10.623  -0.345  0.00  0.00     0.022 C 
BRANCH  41  42
HETATM   42  C   UNK N   1      32.229   9.118  -0.578  0.00  0.00     0.110 C 
BRANCH  42  43
HETATM   43  C   UNK N   1      31.898   8.807  -2.009  0.00  0.00     0.139 C 
HETATM   44  O   UNK N   1      31.732   7.650  -2.358  0.00  0.00    -0.650 OA
BRANCH  43  45
HETATM   45  O   UNK N   1      31.782   9.800  -2.911  0.00  0.00    -0.776 OA
HETATM   46  H   UNK N   1      31.798  10.693  -2.630  0.00  0.00     0.167 HD
ENDBRANCH  43  45
ENDBRANCH  42  43
ENDBRANCH  41  42
ENDBRANCH  16  41
BRANCH  28  47
HETATM   47  C   UNK N   1      26.172  16.695   4.048  0.00  0.00     0.126 C 
BRANCH  47  48
HETATM   48  C   UNK N   1      24.734  16.894   4.414  0.00  0.00     0.140 C 
HETATM   49  O   UNK N   1      23.870  16.755   3.566  0.00  0.00    -0.650 OA
BRANCH  48  50
HETATM   50  O   UNK N   1      24.391  17.198   5.678  0.00  0.00    -0.776 OA
HETATM   51  H   UNK N   1      23.690  16.832   6.180  0.00  0.00     0.167 HD
ENDBRANCH  48  50
ENDBRANCH  47  48
ENDBRANCH  28  47
BRANCH  34  52
HETATM   52  C   UNK N   1      30.112  17.990   7.298  0.00  0.00     0.022 C 
BRANCH  52  53
HETATM   53  C   UNK N   1      30.053  18.559   8.707  0.00  0.00     0.110 C 
BRANCH  53  54
HETATM   54  C   UNK N   1      28.931  17.929   9.478  0.00  0.00     0.139 C 
HETATM   55  O   UNK N   1      29.152  17.015  10.258  0.00  0.00    -0.650 OA
BRANCH  54  56
HETATM   56  O   UNK N   1      27.675  18.390   9.333  0.00  0.00    -0.776 OA
HETATM   57  H   UNK N   1      26.969  18.052   9.850  0.00  0.00     0.167 HD
ENDBRANCH  54  56
ENDBRANCH  53  54
ENDBRANCH  52  53
ENDBRANCH  34  52
BRANCH  36  58
HETATM   58  C   UNK N   1      32.899  16.282   8.130  0.00  0.00     0.122 C 
BRANCH  58  59
HETATM   59  C   UNK N   1      34.005  17.304   8.164  0.00  0.00     0.140 C 
HETATM   60  O   UNK N   1      34.298  17.856   9.212  0.00  0.00    -0.650 OA
BRANCH  59  61
HETATM   61  O   UNK N   1      34.662  17.625   7.033  0.00  0.00    -0.776 OA
HETATM   62  H   UNK N   1      35.444  17.342   6.601  0.00  0.00     0.167 HD
ENDBRANCH  59  61
ENDBRANCH  58  59
ENDBRANCH  36  58
BRANCH  25  63
HETATM   63  C   UNK N   1      25.565  13.764   2.129  0.00  0.00     0.022 C 
BRANCH  63  64
HETATM   64  C   UNK N   1      24.714  14.459   1.080  0.00  0.00     0.110 C 
BRANCH  64  65
HETATM   65  C   UNK N   1      23.266  14.278   1.376  0.00  0.00     0.139 C 
HETATM   66  O   UNK N   1      22.459  14.189   0.466  0.00  0.00    -0.650 OA
BRANCH  65  67
HETATM   67  O   UNK N   1      22.851  14.201   2.653  0.00  0.00    -0.776 OA
HETATM   68  H   UNK N   1      23.130  14.825   3.294  0.00  0.00     0.167 HD
ENDBRANCH  65  67
ENDBRANCH  64  65
ENDBRANCH  63  64
ENDBRANCH  25  63
BRANCH  13  69
HETATM   69  C   UNK N   1      35.109  11.648   4.712  0.00  0.00     0.026 C 
BRANCH  69  70
HETATM   70  C   UNK N   1      34.358  11.249   5.978  0.00  0.00     0.111 C 
BRANCH  70  71
HETATM   71  C   UNK N   1      33.304  10.228   5.663  0.00  0.00     0.139 C 
HETATM   72  O   UNK N   1      33.607   9.206   5.070  0.00  0.00    -0.650 OA
BRANCH  71  73
HETATM   73  O   UNK N   1      32.024  10.433   6.030  0.00  0.00    -0.776 OA
HETATM   74  H   UNK N   1      31.719  11.207   6.461  0.00  0.00     0.167 HD
ENDBRANCH  71  73
ENDBRANCH  70  71
ENDBRANCH  69  70
ENDBRANCH  13  69
ENDBRANCH   5   6
ENDBRANCH   2   5
TORSDOF 24
ENDMDL
MODEL 7
REMARK VINA RESULT:      -5.7      3.847      9.232
REMARK  24 active torsions:
REMARK  status: ('A' for Active; 'I' for Inactive)
REMARK    1  A    between atoms: C_15  and  C_16 
REMARK    2  A    between atoms: C_16  and  C_17 
REMARK    3  A    between atoms: C_17  and  C_18 
REMARK    4  A    between atoms: C_18  and  O_20 
REMARK    5  A    between atoms: C_21  and  C_62 
REMARK    6  A    between atoms: C_25  and  C_22 
REMARK    7  A    between atoms: C_22  and  C_23 
REMARK    8  A    between atoms: C_23  and  O_60 
REMARK    9  A    between atoms: C_51  and  C_29 
REMARK   10  A    between atoms: C_29  and  C_30 
REMARK   11  A    between atoms: C_30  and  C_31 
REMARK   12  A    between atoms: C_31  and  O_33 
REMARK   13  A    between atoms: C_34  and  C_49 
REMARK   14  A    between atoms: C_44  and  C_35 
REMARK   15  A    between atoms: C_35  and  C_36 
REMARK   16  A    between atoms: C_36  and  O_59 
REMARK   17  A    between atoms: C_43  and  C_38 
REMARK   18  A    between atoms: C_38  and  C_39 
REMARK   19  A    between atoms: C_39  and  C_40 
REMARK   20  A    between atoms: C_40  and  O_42 
REMARK   21  A    between atoms: C_47  and  C_49 
REMARK   22  A    between atoms: C_62  and  C_63 
REMARK   23  A    between atoms: C_63  and  C_65 
REMARK   24  A    between atoms: C_65  and  O_66 
ROOT
HETATM    1  O   UNK N   1      28.032  19.791   4.853  0.00  0.00    -0.650 OA
HETATM    2  C   UNK N   1      27.017  19.117   4.890  0.00  0.00     0.139 C 
HETATM    3  O   UNK N   1      26.094  19.344   5.844  0.00  0.00    -0.776 OA
HETATM    4  H   UNK N   1      25.440  19.573   6.476  0.00  0.00     0.167 HD
ENDROOT
BRANCH   2   5
HETATM    5  C   UNK N   1      26.831  18.012   3.914  0.00  0.00     0.117 C 
BRANCH   5   6
HETATM    6  C   UNK N   1      27.156  16.630   4.484  0.00  0.00     0.035 C 
HETATM    7  C   UNK N   1      26.223  15.417   4.197  0.00  0.00     0.115 C 
HETATM    8  N   UNK N   1      27.163  14.321   4.215  0.00  0.00    -0.385 N 
HETATM    9  C   UNK N   1      25.094  15.082   5.241  0.00  0.00     0.055 C 
HETATM   10  C   UNK N   1      28.387  14.667   4.220  0.00  0.00     0.022 C 
ATOM     11  HN  UNK N   1      26.868  13.345   4.223  1.00  0.00     0.160 HD
HETATM   12  C   UNK N   1      29.501  13.667   4.207  0.00  0.00    -0.016 C 
HETATM   13  C   UNK N   1      28.592  16.143   4.171  0.00  0.00     0.005 C 
HETATM   14  C   UNK N   1      29.300  12.327   4.296  0.00  0.00     0.022 C 
HETATM   15  C   UNK N   1      30.905  14.183   4.128  0.00  0.00     0.052 C 
HETATM   16  C   UNK N   1      30.390  11.303   4.404  0.00  0.00     0.050 C 
HETATM   17  N   UNK N   1      28.040  11.718   4.416  0.00  0.00    -0.361 N 
HETATM   18  C   UNK N   1      29.605   9.971   4.393  0.00  0.00     0.004 C 
HETATM   19  C   UNK N   1      28.177  10.448   4.487  0.00  0.00     0.020 C 
HETATM   20  C   UNK N   1      30.001   9.135   5.596  0.00  0.00     0.022 C 
HETATM   21  C   UNK N   1      29.775   9.161   3.112  0.00  0.00     0.022 C 
HETATM   22  C   UNK N   1      27.060   9.495   4.649  0.00  0.00     0.051 C 
HETATM   23  C   UNK N   1      25.801   9.765   5.008  0.00  0.00     0.016 C 
HETATM   24  N   UNK N   1      25.294  11.036   5.287  0.00  0.00    -0.361 N 
HETATM   25  C   UNK N   1      24.767   8.709   5.209  0.00  0.00     0.051 C 
HETATM   26  C   UNK N   1      24.118  10.939   5.772  0.00  0.00     0.027 C 
ATOM     27  HN  UNK N   1      25.791  11.913   5.125  1.00  0.00     0.165 HD
HETATM   28  C   UNK N   1      23.646   9.505   5.937  0.00  0.00     0.017 C 
HETATM   29  C   UNK N   1      23.250  12.116   6.094  0.00  0.00    -0.016 C 
HETATM   30  C   UNK N   1      23.547   9.208   7.436  0.00  0.00     0.023 C 
HETATM   31  C   UNK N   1      23.569  13.375   5.706  0.00  0.00     0.018 C 
HETATM   32  C   UNK N   1      21.985  11.856   6.838  0.00  0.00     0.052 C 
HETATM   33  N   UNK N   1      24.805  13.678   5.142  0.00  0.00    -0.381 N 
HETATM   34  C   UNK N   1      22.729  14.611   5.864  0.00  0.00     0.047 C 
HETATM   35  H   UNK N   1      25.404  13.016   4.727  0.00  0.00     0.160 HD
HETATM   36  C   UNK N   1      23.636  15.676   5.112  0.00  0.00     0.001 C 
HETATM   37  C   UNK N   1      23.292  15.723   3.611  0.00  0.00     0.019 C 
ATOM     38  HN  UNK N   1      27.148  12.213   4.442  1.00  0.00     0.165 HD
HETATM   39  C   UNK N   1      29.065  16.487   2.756  0.00  0.00     0.022 C 
HETATM   40  C   UNK N   1      25.634  15.316   6.659  0.00  0.00     0.041 C 
BRANCH  16  41
HETATM   41  C   UNK N   1      31.609  11.387   3.487  0.00  0.00     0.022 C 
BRANCH  41  42
HETATM   42  C   UNK N   1      32.828  10.832   4.219  0.00  0.00     0.110 C 
BRANCH  42  43
HETATM   43  C   UNK N   1      33.129  11.623   5.460  0.00  0.00     0.139 C 
HETATM   44  O   UNK N   1      32.731  11.229   6.543  0.00  0.00    -0.650 OA
BRANCH  43  45
HETATM   45  O   UNK N   1      33.836  12.766   5.383  0.00  0.00    -0.776 OA
HETATM   46  H   UNK N   1      33.556  13.524   5.857  0.00  0.00     0.167 HD
ENDBRANCH  43  45
ENDBRANCH  42  43
ENDBRANCH  41  42
ENDBRANCH  16  41
BRANCH  28  47
HETATM   47  C   UNK N   1      22.298   9.299   5.234  0.00  0.00     0.126 C 
BRANCH  47  48
HETATM   48  C   UNK N   1      22.414   8.992   3.773  0.00  0.00     0.140 C 
HETATM   49  O   UNK N   1      22.211   7.857   3.377  0.00  0.00    -0.650 OA
BRANCH  48  50
HETATM   50  O   UNK N   1      22.713   9.966   2.896  0.00  0.00    -0.776 OA
HETATM   51  H   UNK N   1      23.129  10.786   3.077  0.00  0.00     0.167 HD
ENDBRANCH  48  50
ENDBRANCH  47  48
ENDBRANCH  28  47
BRANCH  34  52
HETATM   52  C   UNK N   1      21.351  14.483   5.163  0.00  0.00     0.022 C 
BRANCH  52  53
HETATM   53  C   UNK N   1      20.165  14.965   5.983  0.00  0.00     0.110 C 
BRANCH  53  54
HETATM   54  C   UNK N   1      18.997  15.260   5.088  0.00  0.00     0.139 C 
HETATM   55  O   UNK N   1      18.872  16.362   4.577  0.00  0.00    -0.650 OA
BRANCH  54  56
HETATM   56  O   UNK N   1      18.094  14.297   4.824  0.00  0.00    -0.776 OA
HETATM   57  H   UNK N   1      17.571  14.321   4.047  0.00  0.00     0.167 HD
ENDBRANCH  54  56
ENDBRANCH  53  54
ENDBRANCH  52  53
ENDBRANCH  34  52
BRANCH  36  58
HETATM   58  C   UNK N   1      23.432  17.083   5.692  0.00  0.00     0.122 C 
BRANCH  58  59
HETATM   59  C   UNK N   1      22.771  18.045   4.740  0.00  0.00     0.140 C 
HETATM   60  O   UNK N   1      23.441  18.859   4.127  0.00  0.00    -0.650 OA
BRANCH  59  61
HETATM   61  O   UNK N   1      21.434  18.021   4.576  0.00  0.00    -0.776 OA
HETATM   62  H   UNK N   1      20.809  17.434   4.199  0.00  0.00     0.167 HD
ENDBRANCH  59  61
ENDBRANCH  58  59
ENDBRANCH  36  58
BRANCH  25  63
HETATM   63  C   UNK N   1      25.256   7.452   5.924  0.00  0.00     0.022 C 
BRANCH  63  64
HETATM   64  C   UNK N   1      24.621   6.238   5.268  0.00  0.00     0.110 C 
BRANCH  64  65
HETATM   65  C   UNK N   1      23.464   5.755   6.071  0.00  0.00     0.139 C 
HETATM   66  O   UNK N   1      23.640   5.290   7.185  0.00  0.00    -0.650 OA
BRANCH  65  67
HETATM   67  O   UNK N   1      22.219   5.845   5.568  0.00  0.00    -0.776 OA
HETATM   68  H   UNK N   1      21.850   6.672   5.329  0.00  0.00     0.167 HD
ENDBRANCH  65  67
ENDBRANCH  64  65
ENDBRANCH  63  64
ENDBRANCH  25  63
BRANCH  13  69
HETATM   69  C   UNK N   1      29.565  16.577   5.283  0.00  0.00     0.026 C 
BRANCH  69  70
HETATM   70  C   UNK N   1      29.018  16.517   6.706  0.00  0.00     0.111 C 
BRANCH  70  71
HETATM   71  C   UNK N   1      29.434  17.733   7.480  0.00  0.00     0.139 C 
HETATM   72  O   UNK N   1      30.558  17.799   7.949  0.00  0.00    -0.650 OA
BRANCH  71  73
HETATM   73  O   UNK N   1      28.574  18.755   7.661  0.00  0.00    -0.776 OA
HETATM   74  H   UNK N   1      27.814  18.710   8.208  0.00  0.00     0.167 HD
ENDBRANCH  71  73
ENDBRANCH  70  71
ENDBRANCH  69  70
ENDBRANCH  13  69
ENDBRANCH   5   6
ENDBRANCH   2   5
TORSDOF 24
ENDMDL
MODEL 8
REMARK VINA RESULT:      -5.6      4.258      8.796
REMARK  24 active torsions:
REMARK  status: ('A' for Active; 'I' for Inactive)
REMARK    1  A    between atoms: C_15  and  C_16 
REMARK    2  A    between atoms: C_16  and  C_17 
REMARK    3  A    between atoms: C_17  and  C_18 
REMARK    4  A    between atoms: C_18  and  O_20 
REMARK    5  A    between atoms: C_21  and  C_62 
REMARK    6  A    between atoms: C_25  and  C_22 
REMARK    7  A    between atoms: C_22  and  C_23 
REMARK    8  A    between atoms: C_23  and  O_60 
REMARK    9  A    between atoms: C_51  and  C_29 
REMARK   10  A    between atoms: C_29  and  C_30 
REMARK   11  A    between atoms: C_30  and  C_31 
REMARK   12  A    between atoms: C_31  and  O_33 
REMARK   13  A    between atoms: C_34  and  C_49 
REMARK   14  A    between atoms: C_44  and  C_35 
REMARK   15  A    between atoms: C_35  and  C_36 
REMARK   16  A    between atoms: C_36  and  O_59 
REMARK   17  A    between atoms: C_43  and  C_38 
REMARK   18  A    between atoms: C_38  and  C_39 
REMARK   19  A    between atoms: C_39  and  C_40 
REMARK   20  A    between atoms: C_40  and  O_42 
REMARK   21  A    between atoms: C_47  and  C_49 
REMARK   22  A    between atoms: C_62  and  C_63 
REMARK   23  A    between atoms: C_63  and  C_65 
REMARK   24  A    between atoms: C_65  and  O_66 
ROOT
HETATM    1  O   UNK N   1      22.862  15.660   2.932  0.00  0.00    -0.650 OA
HETATM    2  C   UNK N   1      22.658  14.918   3.878  0.00  0.00     0.139 C 
HETATM    3  O   UNK N   1      21.861  15.317   4.887  0.00  0.00    -0.776 OA
HETATM    4  H   UNK N   1      21.246  15.597   5.537  0.00  0.00     0.167 HD
ENDROOT
BRANCH   2   5
HETATM    5  C   UNK N   1      23.338  13.597   3.936  0.00  0.00     0.117 C 
BRANCH   5   6
HETATM    6  C   UNK N   1      24.665  13.557   3.176  0.00  0.00     0.035 C 
HETATM    7  C   UNK N   1      26.017  13.652   3.940  0.00  0.00     0.115 C 
HETATM    8  N   UNK N   1      26.884  12.873   3.088  0.00  0.00    -0.385 N 
HETATM    9  C   UNK N   1      26.679  15.070   4.110  0.00  0.00     0.055 C 
HETATM   10  C   UNK N   1      26.287  12.207   2.184  0.00  0.00     0.022 C 
ATOM     11  HN  UNK N   1      27.898  12.858   3.202  1.00  0.00     0.160 HD
HETATM   12  C   UNK N   1      27.021  11.318   1.228  0.00  0.00    -0.016 C 
HETATM   13  C   UNK N   1      24.803  12.347   2.219  0.00  0.00     0.005 C 
HETATM   14  C   UNK N   1      28.375  11.235   1.180  0.00  0.00     0.022 C 
HETATM   15  C   UNK N   1      26.212  10.513   0.258  0.00  0.00     0.052 C 
HETATM   16  C   UNK N   1      29.149  10.448   0.164  0.00  0.00     0.050 C 
HETATM   17  N   UNK N   1      29.248  11.964   2.004  0.00  0.00    -0.361 N 
HETATM   18  C   UNK N   1      30.611  10.642   0.628  0.00  0.00     0.004 C 
HETATM   19  C   UNK N   1      30.461  11.676   1.716  0.00  0.00     0.020 C 
HETATM   20  C   UNK N   1      31.449  11.157  -0.529  0.00  0.00     0.022 C 
HETATM   21  C   UNK N   1      31.247   9.388   1.219  0.00  0.00     0.022 C 
HETATM   22  C   UNK N   1      31.641  12.282   2.365  0.00  0.00     0.051 C 
HETATM   23  C   UNK N   1      31.679  13.375   3.134  0.00  0.00     0.016 C 
HETATM   24  N   UNK N   1      30.576  14.156   3.485  0.00  0.00    -0.361 N 
HETATM   25  C   UNK N   1      32.946  13.939   3.685  0.00  0.00     0.051 C 
HETATM   26  C   UNK N   1      30.965  15.222   4.071  0.00  0.00     0.027 C 
ATOM     27  HN  UNK N   1      29.603  13.911   3.303  1.00  0.00     0.165 HD
HETATM   28  C   UNK N   1      32.477  15.341   4.172  0.00  0.00     0.017 C 
HETATM   29  C   UNK N   1      30.035  16.236   4.661  0.00  0.00    -0.016 C 
HETATM   30  C   UNK N   1      32.922  16.493   3.267  0.00  0.00     0.023 C 
HETATM   31  C   UNK N   1      28.708  16.001   4.799  0.00  0.00     0.018 C 
HETATM   32  C   UNK N   1      30.626  17.520   5.133  0.00  0.00     0.052 C 
HETATM   33  N   UNK N   1      28.098  14.881   4.241  0.00  0.00    -0.381 N 
HETATM   34  C   UNK N   1      27.699  16.884   5.479  0.00  0.00     0.047 C 
HETATM   35  H   UNK N   1      28.576  14.064   3.971  0.00  0.00     0.160 HD
HETATM   36  C   UNK N   1      26.401  15.974   5.375  0.00  0.00     0.001 C 
HETATM   37  C   UNK N   1      26.292  15.038   6.593  0.00  0.00     0.019 C 
ATOM     38  HN  UNK N   1      28.958  12.625   2.726  1.00  0.00     0.165 HD
HETATM   39  C   UNK N   1      24.240  11.043   2.788  0.00  0.00     0.022 C 
HETATM   40  C   UNK N   1      26.465  15.882   2.825  0.00  0.00     0.041 C 
BRANCH  16  41
HETATM   41  C   UNK N   1      28.724   9.023  -0.183  0.00  0.00     0.022 C 
BRANCH  41  42
HETATM   42  C   UNK N   1      28.911   8.791  -1.680  0.00  0.00     0.110 C 
BRANCH  42  43
HETATM   43  C   UNK N   1      27.819   7.927  -2.241  0.00  0.00     0.139 C 
HETATM   44  O   UNK N   1      26.965   7.468  -1.501  0.00  0.00    -0.650 OA
BRANCH  43  45
HETATM   45  O   UNK N   1      27.776   7.656  -3.559  0.00  0.00    -0.776 OA
HETATM   46  H   UNK N   1      28.298   8.154  -4.157  0.00  0.00     0.167 HD
ENDBRANCH  43  45
ENDBRANCH  42  43
ENDBRANCH  41  42
ENDBRANCH  16  41
BRANCH  28  47
HETATM   47  C   UNK N   1      32.900  15.573   5.627  0.00  0.00     0.126 C 
BRANCH  47  48
HETATM   48  C   UNK N   1      34.186  16.325   5.775  0.00  0.00     0.140 C 
HETATM   49  O   UNK N   1      35.247  15.736   5.662  0.00  0.00    -0.650 OA
BRANCH  48  50
HETATM   50  O   UNK N   1      34.175  17.650   6.004  0.00  0.00    -0.776 OA
HETATM   51  H   UNK N   1      33.573  18.129   6.539  0.00  0.00     0.167 HD
ENDBRANCH  48  50
ENDBRANCH  47  48
ENDBRANCH  28  47
BRANCH  34  52
HETATM   52  C   UNK N   1      28.054  17.152   6.965  0.00  0.00     0.022 C 
BRANCH  52  53
HETATM   53  C   UNK N   1      28.373  18.601   7.298  0.00  0.00     0.110 C 
BRANCH  53  54
HETATM   54  C   UNK N   1      29.156  18.682   8.576  0.00  0.00     0.139 C 
HETATM   55  O   UNK N   1      30.377  18.728   8.551  0.00  0.00    -0.650 OA
BRANCH  54  56
HETATM   56  O   UNK N   1      28.513  18.733   9.756  0.00  0.00    -0.776 OA
HETATM   57  H   UNK N   1      28.035  17.995  10.083  0.00  0.00     0.167 HD
ENDBRANCH  54  56
ENDBRANCH  53  54
ENDBRANCH  52  53
ENDBRANCH  34  52
BRANCH  36  58
HETATM   58  C   UNK N   1      25.128  16.832   5.318  0.00  0.00     0.122 C 
BRANCH  58  59
HETATM   59  C   UNK N   1      25.361  18.237   4.826  0.00  0.00     0.140 C 
HETATM   60  O   UNK N   1      25.447  18.462   3.630  0.00  0.00    -0.650 OA
BRANCH  59  61
HETATM   61  O   UNK N   1      25.493  19.247   5.707  0.00  0.00    -0.776 OA
HETATM   62  H   UNK N   1      25.416  19.350   6.635  0.00  0.00     0.167 HD
ENDBRANCH  59  61
ENDBRANCH  58  59
ENDBRANCH  36  58
BRANCH  25  63
HETATM   63  C   UNK N   1      34.128  13.936   2.720  0.00  0.00     0.022 C 
BRANCH  63  64
HETATM   64  C   UNK N   1      35.284  13.190   3.366  0.00  0.00     0.110 C 
BRANCH  64  65
HETATM   65  C   UNK N   1      36.419  13.057   2.412  0.00  0.00     0.139 C 
HETATM   66  O   UNK N   1      36.228  12.641   1.282  0.00  0.00    -0.650 OA
BRANCH  65  67
HETATM   67  O   UNK N   1      37.659  13.412   2.797  0.00  0.00    -0.776 OA
HETATM   68  H   UNK N   1      38.360  13.477   2.179  0.00  0.00     0.167 HD
ENDBRANCH  65  67
ENDBRANCH  64  65
ENDBRANCH  63  64
ENDBRANCH  25  63
BRANCH  13  69
HETATM   69  C   UNK N   1      24.274  12.703   0.817  0.00  0.00     0.026 C 
BRANCH  69  70
HETATM   70  C   UNK N   1      22.904  12.135   0.459  0.00  0.00     0.111 C 
BRANCH  70  71
HETATM   71  C   UNK N   1      21.847  13.190   0.595  0.00  0.00     0.139 C 
HETATM   72  O   UNK N   1      20.691  12.867   0.810  0.00  0.00    -0.650 OA
BRANCH  71  73
HETATM   73  O   UNK N   1      22.165  14.495   0.480  0.00  0.00    -0.776 OA
HETATM   74  H   UNK N   1      23.044  14.821   0.460  0.00  0.00     0.167 HD
ENDBRANCH  71  73
ENDBRANCH  70  71
ENDBRANCH  69  70
ENDBRANCH  13  69
ENDBRANCH   5   6
ENDBRANCH   2   5
TORSDOF 24
ENDMDL
MODEL 9
REMARK VINA RESULT:      -5.5      2.395      9.337
REMARK  24 active torsions:
REMARK  status: ('A' for Active; 'I' for Inactive)
REMARK    1  A    between atoms: C_15  and  C_16 
REMARK    2  A    between atoms: C_16  and  C_17 
REMARK    3  A    between atoms: C_17  and  C_18 
REMARK    4  A    between atoms: C_18  and  O_20 
REMARK    5  A    between atoms: C_21  and  C_62 
REMARK    6  A    between atoms: C_25  and  C_22 
REMARK    7  A    between atoms: C_22  and  C_23 
REMARK    8  A    between atoms: C_23  and  O_60 
REMARK    9  A    between atoms: C_51  and  C_29 
REMARK   10  A    between atoms: C_29  and  C_30 
REMARK   11  A    between atoms: C_30  and  C_31 
REMARK   12  A    between atoms: C_31  and  O_33 
REMARK   13  A    between atoms: C_34  and  C_49 
REMARK   14  A    between atoms: C_44  and  C_35 
REMARK   15  A    between atoms: C_35  and  C_36 
REMARK   16  A    between atoms: C_36  and  O_59 
REMARK   17  A    between atoms: C_43  and  C_38 
REMARK   18  A    between atoms: C_38  and  C_39 
REMARK   19  A    between atoms: C_39  and  C_40 
REMARK   20  A    between atoms: C_40  and  O_42 
REMARK   21  A    between atoms: C_47  and  C_49 
REMARK   22  A    between atoms: C_62  and  C_63 
REMARK   23  A    between atoms: C_63  and  C_65 
REMARK   24  A    between atoms: C_65  and  O_66 
ROOT
HETATM    1  O   UNK N   1      27.613  11.694   0.811  0.00  0.00    -0.650 OA
HETATM    2  C   UNK N   1      26.661  11.667   1.571  0.00  0.00     0.139 C 
HETATM    3  O   UNK N   1      25.469  12.154   1.174  0.00  0.00    -0.776 OA
HETATM    4  H   UNK N   1      24.638  12.434   0.843  0.00  0.00     0.167 HD
ENDROOT
BRANCH   2   5
HETATM    5  C   UNK N   1      26.836  11.146   2.952  0.00  0.00     0.117 C 
BRANCH   5   6
HETATM    6  C   UNK N   1      28.297  11.072   3.398  0.00  0.00     0.035 C 
HETATM    7  C   UNK N   1      28.810  11.953   4.575  0.00  0.00     0.115 C 
HETATM    8  N   UNK N   1      29.852  11.119   5.125  0.00  0.00    -0.385 N 
HETATM    9  C   UNK N   1      29.457  13.347   4.235  0.00  0.00     0.055 C 
HETATM   10  C   UNK N   1      29.875   9.928   4.679  0.00  0.00     0.022 C 
ATOM     11  HN  UNK N   1      30.518  11.458   5.819  1.00  0.00     0.160 HD
HETATM   12  C   UNK N   1      30.867   8.913   5.157  0.00  0.00    -0.016 C 
HETATM   13  C   UNK N   1      28.790   9.635   3.698  0.00  0.00     0.005 C 
HETATM   14  C   UNK N   1      31.875   9.206   6.017  0.00  0.00     0.022 C 
HETATM   15  C   UNK N   1      30.751   7.516   4.628  0.00  0.00     0.052 C 
HETATM   16  C   UNK N   1      32.954   8.249   6.429  0.00  0.00     0.050 C 
HETATM   17  N   UNK N   1      32.119  10.481   6.554  0.00  0.00    -0.361 N 
HETATM   18  C   UNK N   1      33.762   9.073   7.458  0.00  0.00     0.004 C 
HETATM   19  C   UNK N   1      33.141  10.441   7.322  0.00  0.00     0.020 C 
HETATM   20  C   UNK N   1      35.229   9.078   7.069  0.00  0.00     0.022 C 
HETATM   21  C   UNK N   1      33.603   8.596   8.898  0.00  0.00     0.022 C 
HETATM   22  C   UNK N   1      33.700  11.610   8.032  0.00  0.00     0.051 C 
HETATM   23  C   UNK N   1      33.437  12.902   7.812  0.00  0.00     0.016 C 
HETATM   24  N   UNK N   1      32.548  13.394   6.853  0.00  0.00    -0.361 N 
HETATM   25  C   UNK N   1      34.115  14.008   8.547  0.00  0.00     0.051 C 
HETATM   26  C   UNK N   1      32.657  14.663   6.770  0.00  0.00     0.027 C 
ATOM     27  HN  UNK N   1      31.906  12.824   6.302  1.00  0.00     0.165 HD
HETATM   28  C   UNK N   1      33.723  15.242   7.684  0.00  0.00     0.017 C 
HETATM   29  C   UNK N   1      31.784  15.520   5.905  0.00  0.00    -0.016 C 
HETATM   30  C   UNK N   1      34.860  15.775   6.809  0.00  0.00     0.023 C 
HETATM   31  C   UNK N   1      30.675  15.034   5.296  0.00  0.00     0.018 C 
HETATM   32  C   UNK N   1      32.157  16.955   5.758  0.00  0.00     0.052 C 
HETATM   33  N   UNK N   1      30.376  13.675   5.290  0.00  0.00    -0.381 N 
HETATM   34  C   UNK N   1      29.661  15.814   4.507  0.00  0.00     0.047 C 
HETATM   35  H   UNK N   1      30.746  13.021   5.927  0.00  0.00     0.160 HD
HETATM   36  C   UNK N   1      28.602  14.674   4.189  0.00  0.00     0.001 C 
HETATM   37  C   UNK N   1      27.549  14.580   5.309  0.00  0.00     0.019 C 
ATOM     38  HN  UNK N   1      31.563  11.315   6.362  1.00  0.00     0.165 HD
HETATM   39  C   UNK N   1      27.756   8.766   4.416  0.00  0.00     0.022 C 
HETATM   40  C   UNK N   1      30.293  13.215   2.955  0.00  0.00     0.041 C 
BRANCH  16  41
HETATM   41  C   UNK N   1      32.595   6.819   6.827  0.00  0.00     0.022 C 
BRANCH  41  42
HETATM   42  C   UNK N   1      33.616   5.857   6.226  0.00  0.00     0.110 C 
BRANCH  42  43
HETATM   43  C   UNK N   1      34.335   5.084   7.295  0.00  0.00     0.139 C 
HETATM   44  O   UNK N   1      35.224   5.617   7.937  0.00  0.00    -0.650 OA
BRANCH  43  45
HETATM   45  O   UNK N   1      34.001   3.804   7.549  0.00  0.00    -0.776 OA
HETATM   46  H   UNK N   1      34.551   3.108   7.246  0.00  0.00     0.167 HD
ENDBRANCH  43  45
ENDBRANCH  42  43
ENDBRANCH  41  42
ENDBRANCH  16  41
BRANCH  28  47
HETATM   47  C   UNK N   1      33.130  16.347   8.567  0.00  0.00     0.126 C 
BRANCH  47  48
HETATM   48  C   UNK N   1      34.081  17.463   8.868  0.00  0.00     0.140 C 
HETATM   49  O   UNK N   1      34.863  17.356   9.798  0.00  0.00    -0.650 OA
BRANCH  48  50
HETATM   50  O   UNK N   1      34.095  18.569   8.103  0.00  0.00    -0.776 OA
HETATM   51  H   UNK N   1      33.458  18.826   7.465  0.00  0.00     0.167 HD
ENDBRANCH  48  50
ENDBRANCH  47  48
ENDBRANCH  28  47
BRANCH  34  52
HETATM   52  C   UNK N   1      29.005  16.944   5.343  0.00  0.00     0.022 C 
BRANCH  52  53
HETATM   53  C   UNK N   1      28.901  18.288   4.638  0.00  0.00     0.110 C 
BRANCH  53  54
HETATM   54  C   UNK N   1      27.778  19.096   5.217  0.00  0.00     0.139 C 
HETATM   55  O   UNK N   1      27.813  20.317   5.184  0.00  0.00    -0.650 OA
BRANCH  54  56
HETATM   56  O   UNK N   1      26.711  18.476   5.752  0.00  0.00    -0.776 OA
HETATM   57  H   UNK N   1      26.614  17.544   5.705  0.00  0.00     0.167 HD
ENDBRANCH  54  56
ENDBRANCH  53  54
ENDBRANCH  52  53
ENDBRANCH  34  52
BRANCH  36  58
HETATM   58  C   UNK N   1      27.870  14.954   2.868  0.00  0.00     0.122 C 
BRANCH  58  59
HETATM   59  C   UNK N   1      26.439  15.393   3.046  0.00  0.00     0.140 C 
HETATM   60  O   UNK N   1      25.531  14.589   2.921  0.00  0.00    -0.650 OA
BRANCH  59  61
HETATM   61  O   UNK N   1      26.159  16.681   3.325  0.00  0.00    -0.776 OA
HETATM   62  H   UNK N   1      25.405  17.236   3.273  0.00  0.00     0.167 HD
ENDBRANCH  59  61
ENDBRANCH  58  59
ENDBRANCH  36  58
BRANCH  25  63
HETATM   63  C   UNK N   1      35.612  13.810   8.775  0.00  0.00     0.022 C 
BRANCH  63  64
HETATM   64  C   UNK N   1      35.947  14.225  10.198  0.00  0.00     0.110 C 
BRANCH  64  65
HETATM   65  C   UNK N   1      34.850  13.840  11.128  0.00  0.00     0.139 C 
HETATM   66  O   UNK N   1      34.189  14.699  11.687  0.00  0.00    -0.650 OA
BRANCH  65  67
HETATM   67  O   UNK N   1      34.581  12.539  11.341  0.00  0.00    -0.776 OA
HETATM   68  H   UNK N   1      33.792  12.147  11.021  0.00  0.00     0.167 HD
ENDBRANCH  65  67
ENDBRANCH  64  65
ENDBRANCH  63  64
ENDBRANCH  25  63
BRANCH  13  69
HETATM   69  C   UNK N   1      29.384   8.991   2.431  0.00  0.00     0.026 C 
BRANCH  69  70
HETATM   70  C   UNK N   1      30.396   9.839   1.667  0.00  0.00     0.111 C 
BRANCH  70  71
HETATM   71  C   UNK N   1      30.320   9.548   0.197  0.00  0.00     0.139 C 
HETATM   72  O   UNK N   1      30.801   8.517  -0.244  0.00  0.00    -0.650 OA
BRANCH  71  73
HETATM   73  O   UNK N   1      29.724  10.418  -0.642  0.00  0.00    -0.776 OA
HETATM   74  H   UNK N   1      29.846  10.418  -1.571  0.00  0.00     0.167 HD
ENDBRANCH  71  73
ENDBRANCH  70  71
ENDBRANCH  69  70
ENDBRANCH  13  69
ENDBRANCH   5   6
ENDBRANCH   2   5
TORSDOF 24
ENDMDL
