MODEL 1
REMARK VINA RESULT:      -3.7      0.000      0.000
REMARK  5 active torsions:
REMARK  status: ('A' for Active; 'I' for Inactive)
REMARK    1  A    between atoms: C_2  and  N_1 
REMARK    2  A    between atoms: C_2  and  C_3 
REMARK    3  A    between atoms: C_2  and  C_5 
REMARK    4  A    between atoms: C_3  and  Se_4 
REMARK    5  A    between atoms: C_5  and  O_6 
ROOT
HETATM    1  C   UNK N   1      34.133  17.133   9.012  0.00  0.00     0.173 C 
ENDROOT
BRANCH   1   2
HETATM    2  N   UNK N   1      34.833  17.181  10.273  0.00  0.00    -0.418 N 
HETATM    3  H   UNK N   1      34.309  17.174  11.148  0.00  0.00     0.150 HD
HETATM    4  H   UNK N   1      35.852  17.222  10.289  0.00  0.00     0.150 HD
ENDBRANCH   1   2
BRANCH   1   5
HETATM    5  C   UNK N   1      33.102  15.989   9.030  0.00  0.00     0.038 C 
BRANCH   5   6
HETATM    6 Se   UNK N   1      32.028  15.496   7.492  0.00  0.00     0.000 Se
HETATM    7  H   UNK N   1      32.683  14.871   6.284  0.00  0.00     0.000 HD
ENDBRANCH   5   6
ENDBRANCH   1   5
BRANCH   1   8
HETATM    8  C   UNK N   1      34.615  18.212   8.054  0.00  0.00     0.163 C 
HETATM    9  O   UNK N   1      34.414  18.164   6.855  0.00  0.00    -0.648 OA
BRANCH   8  10
HETATM   10  O   UNK N   1      35.293  19.263   8.571  0.00  0.00    -0.775 OA
HETATM   11  H   UNK N   1      36.230  19.254   8.585  0.00  0.00     0.167 HD
ENDBRANCH   8  10
ENDBRANCH   1   8
TORSDOF 5
ENDMDL
MODEL 2
REMARK VINA RESULT:      -3.6      2.269      2.269
REMARK  5 active torsions:
REMARK  status: ('A' for Active; 'I' for Inactive)
REMARK    1  A    between atoms: C_2  and  N_1 
REMARK    2  A    between atoms: C_2  and  C_3 
REMARK    3  A    between atoms: C_2  and  C_5 
REMARK    4  A    between atoms: C_3  and  Se_4 
REMARK    5  A    between atoms: C_5  and  O_6 
ROOT
HETATM    1  C   UNK N   1      33.906  17.152   8.877  0.00  0.00     0.173 C 
ENDROOT
BRANCH   1   2
HETATM    2  N   UNK N   1      32.482  17.341   9.008  0.00  0.00    -0.418 N 
HETATM    3  H   UNK N   1      31.883  16.551   9.253  0.00  0.00     0.150 HD
HETATM    4  H   UNK N   1      32.073  18.262   8.856  0.00  0.00     0.150 HD
ENDBRANCH   1   2
BRANCH   1   5
HETATM    5  C   UNK N   1      34.352  15.937   9.712  0.00  0.00     0.038 C 
BRANCH   5   6
HETATM    6 Se   UNK N   1      35.611  16.057  11.182  0.00  0.00     0.000 Se
HETATM    7  H   UNK N   1      36.265  14.806  11.719  0.00  0.00     0.000 HD
ENDBRANCH   5   6
ENDBRANCH   1   5
BRANCH   1   8
HETATM    8  C   UNK N   1      34.535  18.195   7.966  0.00  0.00     0.163 C 
HETATM    9  O   UNK N   1      34.411  18.172   6.755  0.00  0.00    -0.648 OA
BRANCH   8  10
HETATM   10  O   UNK N   1      35.260  19.185   8.539  0.00  0.00    -0.775 OA
HETATM   11  H   UNK N   1      35.219  19.317   9.466  0.00  0.00     0.167 HD
ENDBRANCH   8  10
ENDBRANCH   1   8
TORSDOF 5
ENDMDL
MODEL 3
REMARK VINA RESULT:      -3.5      4.267      4.503
REMARK  5 active torsions:
REMARK  status: ('A' for Active; 'I' for Inactive)
REMARK    1  A    between atoms: C_2  and  N_1 
REMARK    2  A    between atoms: C_2  and  C_3 
REMARK    3  A    between atoms: C_2  and  C_5 
REMARK    4  A    between atoms: C_3  and  Se_4 
REMARK    5  A    between atoms: C_5  and  O_6 
ROOT
HETATM    1  C   UNK N   1      34.853  15.027  11.347  0.00  0.00     0.173 C 
ENDROOT
BRANCH   1   2
HETATM    2  N   UNK N   1      33.504  15.058  10.836  0.00  0.00    -0.418 N 
HETATM    3  H   UNK N   1      32.944  14.205  10.823  0.00  0.00     0.150 HD
HETATM    4  H   UNK N   1      33.110  15.932  10.489  0.00  0.00     0.150 HD
ENDBRANCH   1   2
BRANCH   1   5
HETATM    5  C   UNK N   1      35.056  13.769  12.212  0.00  0.00     0.038 C 
BRANCH   5   6
HETATM    6 Se   UNK N   1      36.127  13.746  13.828  0.00  0.00     0.000 Se
HETATM    7  H   UNK N   1      35.462  13.574  15.172  0.00  0.00     0.000 HD
ENDBRANCH   5   6
ENDBRANCH   1   5
BRANCH   1   8
HETATM    8  C   UNK N   1      35.662  16.230  10.886  0.00  0.00     0.163 C 
HETATM    9  O   UNK N   1      35.146  17.279  10.548  0.00  0.00    -0.648 OA
BRANCH   8  10
HETATM   10  O   UNK N   1      37.010  16.113  10.854  0.00  0.00    -0.775 OA
HETATM   11  H   UNK N   1      37.534  16.821  10.533  0.00  0.00     0.167 HD
ENDBRANCH   8  10
ENDBRANCH   1   8
TORSDOF 5
ENDMDL
MODEL 4
REMARK VINA RESULT:      -3.5     14.736     15.128
REMARK  5 active torsions:
REMARK  status: ('A' for Active; 'I' for Inactive)
REMARK    1  A    between atoms: C_2  and  N_1 
REMARK    2  A    between atoms: C_2  and  C_3 
REMARK    3  A    between atoms: C_2  and  C_5 
REMARK    4  A    between atoms: C_3  and  Se_4 
REMARK    5  A    between atoms: C_5  and  O_6 
ROOT
HETATM    1  C   UNK N   1      20.339  18.992   2.304  0.00  0.00     0.173 C 
ENDROOT
BRANCH   1   2
HETATM    2  N   UNK N   1      18.909  18.800   2.268  0.00  0.00    -0.418 N 
HETATM    3  H   UNK N   1      18.397  18.622   3.132  0.00  0.00     0.150 HD
HETATM    4  H   UNK N   1      18.411  18.842   1.379  0.00  0.00     0.150 HD
ENDBRANCH   1   2
BRANCH   1   5
HETATM    5  C   UNK N   1      20.985  17.947   3.232  0.00  0.00     0.038 C 
BRANCH   5   6
HETATM    6 Se   UNK N   1      21.488  18.317   5.068  0.00  0.00     0.000 Se
HETATM    7  H   UNK N   1      21.369  19.719   5.616  0.00  0.00     0.000 HD
ENDBRANCH   5   6
ENDBRANCH   1   5
BRANCH   1   8
HETATM    8  C   UNK N   1      20.777  20.155   1.425  0.00  0.00     0.163 C 
HETATM    9  O   UNK N   1      21.239  21.185   1.879  0.00  0.00    -0.648 OA
BRANCH   8  10
HETATM   10  O   UNK N   1      20.642  20.023   0.085  0.00  0.00    -0.775 OA
HETATM   11  H   UNK N   1      21.298  20.370  -0.488  0.00  0.00     0.167 HD
ENDBRANCH   8  10
ENDBRANCH   1   8
TORSDOF 5
ENDMDL
MODEL 5
REMARK VINA RESULT:      -3.4     11.885     12.432
REMARK  5 active torsions:
REMARK  status: ('A' for Active; 'I' for Inactive)
REMARK    1  A    between atoms: C_2  and  N_1 
REMARK    2  A    between atoms: C_2  and  C_3 
REMARK    3  A    between atoms: C_2  and  C_5 
REMARK    4  A    between atoms: C_3  and  Se_4 
REMARK    5  A    between atoms: C_5  and  O_6 
ROOT
HETATM    1  C   UNK N   1      22.751  12.130  11.239  0.00  0.00     0.173 C 
ENDROOT
BRANCH   1   2
HETATM    2  N   UNK N   1      22.667  11.631  12.590  0.00  0.00    -0.418 N 
HETATM    3  H   UNK N   1      23.293  10.887  12.899  0.00  0.00     0.150 HD
HETATM    4  H   UNK N   1      21.983  12.022  13.237  0.00  0.00     0.150 HD
ENDBRANCH   1   2
BRANCH   1   5
HETATM    5  C   UNK N   1      21.341  12.466  10.717  0.00  0.00     0.038 C 
BRANCH   5   6
HETATM    6 Se   UNK N   1      20.949  14.025   9.634  0.00  0.00     0.000 Se
HETATM    7  H   UNK N   1      20.349  13.857   8.258  0.00  0.00     0.000 HD
ENDBRANCH   5   6
ENDBRANCH   1   5
BRANCH   1   8
HETATM    8  C   UNK N   1      24.187  12.175  10.739  0.00  0.00     0.163 C 
HETATM    9  O   UNK N   1      24.486  11.968   9.578  0.00  0.00    -0.648 OA
BRANCH   8  10
HETATM   10  O   UNK N   1      25.162  12.460  11.634  0.00  0.00    -0.775 OA
HETATM   11  H   UNK N   1      25.456  11.800  12.232  0.00  0.00     0.167 HD
ENDBRANCH   8  10
ENDBRANCH   1   8
TORSDOF 5
ENDMDL
MODEL 6
REMARK VINA RESULT:      -3.4     12.155     12.664
REMARK  5 active torsions:
REMARK  status: ('A' for Active; 'I' for Inactive)
REMARK    1  A    between atoms: C_2  and  N_1 
REMARK    2  A    between atoms: C_2  and  C_3 
REMARK    3  A    between atoms: C_2  and  C_5 
REMARK    4  A    between atoms: C_3  and  Se_4 
REMARK    5  A    between atoms: C_5  and  O_6 
ROOT
HETATM    1  C   UNK N   1      22.599  12.027  11.202  0.00  0.00     0.173 C 
ENDROOT
BRANCH   1   2
HETATM    2  N   UNK N   1      21.330  11.789  11.847  0.00  0.00    -0.418 N 
HETATM    3  H   UNK N   1      20.597  11.277  11.355  0.00  0.00     0.150 HD
HETATM    4  H   UNK N   1      21.166  12.132  12.793  0.00  0.00     0.150 HD
ENDBRANCH   1   2
BRANCH   1   5
HETATM    5  C   UNK N   1      22.400  12.135   9.679  0.00  0.00     0.038 C 
BRANCH   5   6
HETATM    6 Se   UNK N   1      23.503  13.245   8.535  0.00  0.00     0.000 Se
HETATM    7  H   UNK N   1      23.354  14.747   8.570  0.00  0.00     0.000 HD
ENDBRANCH   5   6
ENDBRANCH   1   5
BRANCH   1   8
HETATM    8  C   UNK N   1      23.741  12.099  12.205  0.00  0.00     0.163 C 
HETATM    9  O   UNK N   1      23.566  12.019  13.407  0.00  0.00    -0.648 OA
BRANCH   8  10
HETATM   10  O   UNK N   1      24.997  12.260  11.727  0.00  0.00    -0.775 OA
HETATM   11  H   UNK N   1      25.223  13.039  11.258  0.00  0.00     0.167 HD
ENDBRANCH   8  10
ENDBRANCH   1   8
TORSDOF 5
ENDMDL
MODEL 7
REMARK VINA RESULT:      -3.3     12.021     12.086
REMARK  5 active torsions:
REMARK  status: ('A' for Active; 'I' for Inactive)
REMARK    1  A    between atoms: C_2  and  N_1 
REMARK    2  A    between atoms: C_2  and  C_3 
REMARK    3  A    between atoms: C_2  and  C_5 
REMARK    4  A    between atoms: C_3  and  Se_4 
REMARK    5  A    between atoms: C_5  and  O_6 
ROOT
HETATM    1  C   UNK N   1      44.429  21.951   3.573  0.00  0.00     0.173 C 
ENDROOT
BRANCH   1   2
HETATM    2  N   UNK N   1      45.695  22.274   4.184  0.00  0.00    -0.418 N 
HETATM    3  H   UNK N   1      45.910  21.933   5.122  0.00  0.00     0.150 HD
HETATM    4  H   UNK N   1      46.374  22.844   3.681  0.00  0.00     0.150 HD
ENDBRANCH   1   2
BRANCH   1   5
HETATM    5  C   UNK N   1      44.381  20.450   3.231  0.00  0.00     0.038 C 
BRANCH   5   6
HETATM    6 Se   UNK N   1      42.736  19.491   2.861  0.00  0.00     0.000 Se
HETATM    7  H   UNK N   1      42.739  18.333   1.893  0.00  0.00     0.000 HD
ENDBRANCH   5   6
ENDBRANCH   1   5
BRANCH   1   8
HETATM    8  C   UNK N   1      43.530  23.172   3.449  0.00  0.00     0.163 C 
HETATM    9  O   UNK N   1      42.817  23.368   2.482  0.00  0.00    -0.648 OA
BRANCH   8  10
HETATM   10  O   UNK N   1      43.534  24.068   4.463  0.00  0.00    -0.775 OA
HETATM   11  H   UNK N   1      44.347  24.387   4.802  0.00  0.00     0.167 HD
ENDBRANCH   8  10
ENDBRANCH   1   8
TORSDOF 5
ENDMDL
MODEL 8
REMARK VINA RESULT:      -3.3     11.777     12.086
REMARK  5 active torsions:
REMARK  status: ('A' for Active; 'I' for Inactive)
REMARK    1  A    between atoms: C_2  and  N_1 
REMARK    2  A    between atoms: C_2  and  C_3 
REMARK    3  A    between atoms: C_2  and  C_5 
REMARK    4  A    between atoms: C_3  and  Se_4 
REMARK    5  A    between atoms: C_5  and  O_6 
ROOT
HETATM    1  C   UNK N   1      43.544  22.755   3.369  0.00  0.00     0.173 C 
ENDROOT
BRANCH   1   2
HETATM    2  N   UNK N   1      43.578  23.944   4.186  0.00  0.00    -0.418 N 
HETATM    3  H   UNK N   1      44.061  23.931   5.085  0.00  0.00     0.150 HD
HETATM    4  H   UNK N   1      43.119  24.797   3.866  0.00  0.00     0.150 HD
ENDBRANCH   1   2
BRANCH   1   5
HETATM    5  C   UNK N   1      42.385  22.847   2.359  0.00  0.00     0.038 C 
BRANCH   5   6
HETATM    6 Se   UNK N   1      40.996  21.503   2.204  0.00  0.00     0.000 Se
HETATM    7  H   UNK N   1      39.732  21.809   1.438  0.00  0.00     0.000 HD
ENDBRANCH   5   6
ENDBRANCH   1   5
BRANCH   1   8
HETATM    8  C   UNK N   1      44.649  21.778   3.743  0.00  0.00     0.163 C 
HETATM    9  O   UNK N   1      44.530  20.573   3.623  0.00  0.00    -0.648 OA
BRANCH   8  10
HETATM   10  O   UNK N   1      45.807  22.285   4.228  0.00  0.00    -0.775 OA
HETATM   11  H   UNK N   1      46.416  21.724   4.667  0.00  0.00     0.167 HD
ENDBRANCH   8  10
ENDBRANCH   1   8
TORSDOF 5
ENDMDL
MODEL 9
REMARK VINA RESULT:      -3.0     12.878     13.389
REMARK  5 active torsions:
REMARK  status: ('A' for Active; 'I' for Inactive)
REMARK    1  A    between atoms: C_2  and  N_1 
REMARK    2  A    between atoms: C_2  and  C_3 
REMARK    3  A    between atoms: C_2  and  C_5 
REMARK    4  A    between atoms: C_3  and  Se_4 
REMARK    5  A    between atoms: C_5  and  O_6 
ROOT
HETATM    1  C   UNK N   1      31.261  20.961  -3.956  0.00  0.00     0.173 C 
ENDROOT
BRANCH   1   2
HETATM    2  N   UNK N   1      31.906  19.692  -4.191  0.00  0.00    -0.418 N 
HETATM    3  H   UNK N   1      32.689  19.402  -3.603  0.00  0.00     0.150 HD
HETATM    4  H   UNK N   1      31.581  19.085  -4.943  0.00  0.00     0.150 HD
ENDBRANCH   1   2
BRANCH   1   5
HETATM    5  C   UNK N   1      30.247  21.248  -5.079  0.00  0.00     0.038 C 
BRANCH   5   6
HETATM    6 Se   UNK N   1      29.781  23.037  -5.665  0.00  0.00     0.000 Se
HETATM    7  H   UNK N   1      30.701  23.790  -6.597  0.00  0.00     0.000 HD
ENDBRANCH   5   6
ENDBRANCH   1   5
BRANCH   1   8
HETATM    8  C   UNK N   1      31.768  21.629  -2.687  0.00  0.00     0.163 C 
HETATM    9  O   UNK N   1      31.222  22.597  -2.190  0.00  0.00    -0.648 OA
BRANCH   8  10
HETATM   10  O   UNK N   1      32.872  21.115  -2.096  0.00  0.00    -0.775 OA
HETATM   11  H   UNK N   1      33.511  21.687  -1.720  0.00  0.00     0.167 HD
ENDBRANCH   8  10
ENDBRANCH   1   8
TORSDOF 5
ENDMDL
