MODEL 1
REMARK VINA RESULT:      -4.5      0.000      0.000
REMARK  3 active torsions:
REMARK  status: ('A' for Active; 'I' for Inactive)
REMARK    1  A    between atoms: O_1  and  C_2 
REMARK    2  A    between atoms: C_2  and  C_3 
REMARK    3  A    between atoms: C_3  and  C_4 
ROOT
HETATM    1  C   UNK N   1      35.404  12.676  16.974  0.00  0.00    -0.056 A 
HETATM    2  C   UNK N   1      35.177  13.561  18.034  0.00  0.00     0.007 A 
HETATM    3  C   UNK N   1      35.151  13.093  19.351  0.00  0.00     0.001 A 
HETATM    4  C   UNK N   1      35.353  11.735  19.616  0.00  0.00     0.000 A 
HETATM    5  C   UNK N   1      35.580  10.846  18.564  0.00  0.00     0.001 A 
HETATM    6  C   UNK N   1      35.606  11.312  17.247  0.00  0.00     0.007 A 
ENDROOT
BRANCH   1   7
HETATM    7  C   UNK N   1      35.423  13.220  15.572  0.00  0.00     0.064 C 
BRANCH   7   8
HETATM    8  C   UNK N   1      36.812  13.272  14.949  0.00  0.00     0.168 C 
BRANCH   8   9
HETATM    9  O   UNK N   1      37.490  14.396  15.414  0.00  0.00    -0.401 OA
HETATM   10  H   UNK N   1      37.935  14.989  14.787  0.00  0.00     0.209 HD
ENDBRANCH   8   9
ENDBRANCH   7   8
ENDBRANCH   1   7
TORSDOF 3
ENDMDL
MODEL 2
REMARK VINA RESULT:      -4.3     14.556     15.440
REMARK  3 active torsions:
REMARK  status: ('A' for Active; 'I' for Inactive)
REMARK    1  A    between atoms: O_1  and  C_2 
REMARK    2  A    between atoms: C_2  and  C_3 
REMARK    3  A    between atoms: C_3  and  C_4 
ROOT
HETATM    1  C   UNK N   1      22.338  12.906   9.756  0.00  0.00    -0.056 A 
HETATM    2  C   UNK N   1      23.671  13.055   9.359  0.00  0.00     0.007 A 
HETATM    3  C   UNK N   1      24.709  12.620  10.189  0.00  0.00     0.001 A 
HETATM    4  C   UNK N   1      24.417  12.031  11.423  0.00  0.00     0.000 A 
HETATM    5  C   UNK N   1      23.090  11.878  11.827  0.00  0.00     0.001 A 
HETATM    6  C   UNK N   1      22.052  12.313  10.998  0.00  0.00     0.007 A 
ENDROOT
BRANCH   1   7
HETATM    7  C   UNK N   1      21.252  13.387   8.834  0.00  0.00     0.064 C 
BRANCH   7   8
HETATM    8  C   UNK N   1      20.532  14.636   9.327  0.00  0.00     0.168 C 
BRANCH   8   9
HETATM    9  O   UNK N   1      19.265  14.292   9.791  0.00  0.00    -0.401 OA
HETATM   10  H   UNK N   1      18.479  14.515   9.268  0.00  0.00     0.209 HD
ENDBRANCH   8   9
ENDBRANCH   7   8
ENDBRANCH   1   7
TORSDOF 3
ENDMDL
MODEL 3
REMARK VINA RESULT:      -4.3      1.546      1.614
REMARK  3 active torsions:
REMARK  status: ('A' for Active; 'I' for Inactive)
REMARK    1  A    between atoms: O_1  and  C_2 
REMARK    2  A    between atoms: C_2  and  C_3 
REMARK    3  A    between atoms: C_3  and  C_4 
ROOT
HETATM    1  C   UNK N   1      35.393  12.078  16.681  0.00  0.00    -0.056 A 
HETATM    2  C   UNK N   1      35.198  13.381  17.153  0.00  0.00     0.007 A 
HETATM    3  C   UNK N   1      35.150  13.635  18.526  0.00  0.00     0.001 A 
HETATM    4  C   UNK N   1      35.296  12.585  19.438  0.00  0.00     0.000 A 
HETATM    5  C   UNK N   1      35.491  11.282  18.976  0.00  0.00     0.001 A 
HETATM    6  C   UNK N   1      35.539  11.027  17.603  0.00  0.00     0.007 A 
ENDROOT
BRANCH   1   7
HETATM    7  C   UNK N   1      35.438  11.847  15.196  0.00  0.00     0.064 C 
BRANCH   7   8
HETATM    8  C   UNK N   1      35.390  13.126  14.370  0.00  0.00     0.168 C 
BRANCH   8   9
HETATM    9  O   UNK N   1      34.443  12.992  13.357  0.00  0.00    -0.401 OA
HETATM   10  H   UNK N   1      33.844  12.229  13.350  0.00  0.00     0.209 HD
ENDBRANCH   8   9
ENDBRANCH   7   8
ENDBRANCH   1   7
TORSDOF 3
ENDMDL
MODEL 4
REMARK VINA RESULT:      -4.2     11.468     12.377
REMARK  3 active torsions:
REMARK  status: ('A' for Active; 'I' for Inactive)
REMARK    1  A    between atoms: O_1  and  C_2 
REMARK    2  A    between atoms: C_2  and  C_3 
REMARK    3  A    between atoms: C_3  and  C_4 
ROOT
HETATM    1  C   UNK N   1      30.652  17.449   7.560  0.00  0.00    -0.056 A 
HETATM    2  C   UNK N   1      31.577  17.918   8.499  0.00  0.00     0.007 A 
HETATM    3  C   UNK N   1      32.932  18.014   8.170  0.00  0.00     0.001 A 
HETATM    4  C   UNK N   1      33.371  17.640   6.896  0.00  0.00     0.000 A 
HETATM    5  C   UNK N   1      32.455  17.170   5.953  0.00  0.00     0.001 A 
HETATM    6  C   UNK N   1      31.100  17.074   6.281  0.00  0.00     0.007 A 
ENDROOT
BRANCH   1   7
HETATM    7  C   UNK N   1      29.204  17.361   7.954  0.00  0.00     0.064 C 
BRANCH   7   8
HETATM    8  C   UNK N   1      28.860  18.136   9.220  0.00  0.00     0.168 C 
BRANCH   8   9
HETATM    9  O   UNK N   1      27.478  18.181   9.379  0.00  0.00    -0.401 OA
HETATM   10  H   UNK N   1      27.047  19.007   9.654  0.00  0.00     0.209 HD
ENDBRANCH   8   9
ENDBRANCH   7   8
ENDBRANCH   1   7
TORSDOF 3
ENDMDL
MODEL 5
REMARK VINA RESULT:      -4.2     10.836     12.983
REMARK  3 active torsions:
REMARK  status: ('A' for Active; 'I' for Inactive)
REMARK    1  A    between atoms: O_1  and  C_2 
REMARK    2  A    between atoms: C_2  and  C_3 
REMARK    3  A    between atoms: C_3  and  C_4 
ROOT
HETATM    1  C   UNK N   1      33.012  17.364   6.165  0.00  0.00    -0.056 A 
HETATM    2  C   UNK N   1      33.121  17.540   4.781  0.00  0.00     0.007 A 
HETATM    3  C   UNK N   1      31.976  17.567   3.979  0.00  0.00     0.001 A 
HETATM    4  C   UNK N   1      30.712  17.418   4.559  0.00  0.00     0.000 A 
HETATM    5  C   UNK N   1      30.594  17.242   5.939  0.00  0.00     0.001 A 
HETATM    6  C   UNK N   1      31.738  17.215   6.741  0.00  0.00     0.007 A 
ENDROOT
BRANCH   1   7
HETATM    7  C   UNK N   1      34.268  17.341   6.990  0.00  0.00     0.064 C 
BRANCH   7   8
HETATM    8  C   UNK N   1      34.151  18.084   8.315  0.00  0.00     0.168 C 
BRANCH   8   9
HETATM    9  O   UNK N   1      35.070  19.130   8.346  0.00  0.00    -0.401 OA
HETATM   10  H   UNK N   1      34.768  20.037   8.515  0.00  0.00     0.209 HD
ENDBRANCH   8   9
ENDBRANCH   7   8
ENDBRANCH   1   7
TORSDOF 3
ENDMDL
MODEL 6
REMARK VINA RESULT:      -4.2     14.631     15.754
REMARK  3 active torsions:
REMARK  status: ('A' for Active; 'I' for Inactive)
REMARK    1  A    between atoms: O_1  and  C_2 
REMARK    2  A    between atoms: C_2  and  C_3 
REMARK    3  A    between atoms: C_3  and  C_4 
ROOT
HETATM    1  C   UNK N   1      22.208  12.634   9.901  0.00  0.00    -0.056 A 
HETATM    2  C   UNK N   1      22.737  13.297   8.788  0.00  0.00     0.007 A 
HETATM    3  C   UNK N   1      22.021  14.327   8.172  0.00  0.00     0.001 A 
HETATM    4  C   UNK N   1      20.768  14.701   8.668  0.00  0.00     0.000 A 
HETATM    5  C   UNK N   1      20.233  14.045   9.778  0.00  0.00     0.001 A 
HETATM    6  C   UNK N   1      20.948  13.015  10.394  0.00  0.00     0.007 A 
ENDROOT
BRANCH   1   7
HETATM    7  C   UNK N   1      23.011  11.531  10.534  0.00  0.00     0.064 C 
BRANCH   7   8
HETATM    8  C   UNK N   1      23.691  11.931  11.836  0.00  0.00     0.168 C 
BRANCH   8   9
HETATM    9  O   UNK N   1      24.988  12.365  11.572  0.00  0.00    -0.401 OA
HETATM   10  H   UNK N   1      25.146  13.280  11.292  0.00  0.00     0.209 HD
ENDBRANCH   8   9
ENDBRANCH   7   8
ENDBRANCH   1   7
TORSDOF 3
ENDMDL
MODEL 7
REMARK VINA RESULT:      -4.2     11.464     12.399
REMARK  3 active torsions:
REMARK  status: ('A' for Active; 'I' for Inactive)
REMARK    1  A    between atoms: O_1  and  C_2 
REMARK    2  A    between atoms: C_2  and  C_3 
REMARK    3  A    between atoms: C_3  and  C_4 
ROOT
HETATM    1  C   UNK N   1      30.686  17.450   7.635  0.00  0.00    -0.056 A 
HETATM    2  C   UNK N   1      31.097  17.025   6.367  0.00  0.00     0.007 A 
HETATM    3  C   UNK N   1      32.442  17.107   5.996  0.00  0.00     0.001 A 
HETATM    4  C   UNK N   1      33.386  17.616   6.894  0.00  0.00     0.000 A 
HETATM    5  C   UNK N   1      32.984  18.043   8.161  0.00  0.00     0.001 A 
HETATM    6  C   UNK N   1      31.639  17.961   8.532  0.00  0.00     0.007 A 
ENDROOT
BRANCH   1   7
HETATM    7  C   UNK N   1      29.229  17.345   7.994  0.00  0.00     0.064 C 
BRANCH   7   8
HETATM    8  C   UNK N   1      28.858  18.060   9.287  0.00  0.00     0.168 C 
BRANCH   8   9
HETATM    9  O   UNK N   1      27.472  18.147   9.391  0.00  0.00    -0.401 OA
HETATM   10  H   UNK N   1      26.986  18.801   8.863  0.00  0.00     0.209 HD
ENDBRANCH   8   9
ENDBRANCH   7   8
ENDBRANCH   1   7
TORSDOF 3
ENDMDL
MODEL 8
REMARK VINA RESULT:      -4.1      9.625     11.852
REMARK  3 active torsions:
REMARK  status: ('A' for Active; 'I' for Inactive)
REMARK    1  A    between atoms: O_1  and  C_2 
REMARK    2  A    between atoms: C_2  and  C_3 
REMARK    3  A    between atoms: C_3  and  C_4 
ROOT
HETATM    1  C   UNK N   1      33.367  17.726   7.255  0.00  0.00    -0.056 A 
HETATM    2  C   UNK N   1      32.066  17.522   7.727  0.00  0.00     0.007 A 
HETATM    3  C   UNK N   1      31.042  17.161   6.847  0.00  0.00     0.001 A 
HETATM    4  C   UNK N   1      31.315  17.001   5.485  0.00  0.00     0.000 A 
HETATM    5  C   UNK N   1      32.610  17.201   5.005  0.00  0.00     0.001 A 
HETATM    6  C   UNK N   1      33.634  17.562   5.884  0.00  0.00     0.007 A 
ENDROOT
BRANCH   1   7
HETATM    7  C   UNK N   1      34.439  18.113   8.235  0.00  0.00     0.064 C 
BRANCH   7   8
HETATM    8  C   UNK N   1      34.707  17.062   9.305  0.00  0.00     0.168 C 
BRANCH   8   9
HETATM    9  O   UNK N   1      35.583  17.578  10.257  0.00  0.00    -0.401 OA
HETATM   10  H   UNK N   1      35.236  18.057  11.027  0.00  0.00     0.209 HD
ENDBRANCH   8   9
ENDBRANCH   7   8
ENDBRANCH   1   7
TORSDOF 3
ENDMDL
MODEL 9
REMARK VINA RESULT:      -4.1     11.349     11.897
REMARK  3 active torsions:
REMARK  status: ('A' for Active; 'I' for Inactive)
REMARK    1  A    between atoms: O_1  and  C_2 
REMARK    2  A    between atoms: C_2  and  C_3 
REMARK    3  A    between atoms: C_3  and  C_4 
ROOT
HETATM    1  C   UNK N   1      30.804  17.515   7.754  0.00  0.00    -0.056 A 
HETATM    2  C   UNK N   1      30.825  18.261   8.938  0.00  0.00     0.007 A 
HETATM    3  C   UNK N   1      29.633  18.572   9.598  0.00  0.00     0.001 A 
HETATM    4  C   UNK N   1      28.410  18.138   9.077  0.00  0.00     0.000 A 
HETATM    5  C   UNK N   1      28.380  17.393   7.896  0.00  0.00     0.001 A 
HETATM    6  C   UNK N   1      29.572  17.082   7.235  0.00  0.00     0.007 A 
ENDROOT
BRANCH   1   7
HETATM    7  C   UNK N   1      32.109  17.202   7.075  0.00  0.00     0.064 C 
BRANCH   7   8
HETATM    8  C   UNK N   1      33.297  17.972   7.636  0.00  0.00     0.168 C 
BRANCH   8   9
HETATM    9  O   UNK N   1      34.319  18.007   6.691  0.00  0.00    -0.401 OA
HETATM   10  H   UNK N   1      34.218  18.537   5.885  0.00  0.00     0.209 HD
ENDBRANCH   8   9
ENDBRANCH   7   8
ENDBRANCH   1   7
TORSDOF 3
ENDMDL
