MODEL 1
REMARK VINA RESULT:      -6.1      0.000      0.000
REMARK  6 active torsions:
REMARK  status: ('A' for Active; 'I' for Inactive)
REMARK    1  A    between atoms: N_1  and  C_2 
REMARK    2  A    between atoms: C_2  and  C_5 
REMARK    3  A    between atoms: C_8  and  C_9 
REMARK    4  A    between atoms: C_9  and  C_10 
REMARK    5  A    between atoms: C_10  and  C_12 
REMARK    6  A    between atoms: C_12  and  O_13 
ROOT
HETATM    1  C   UNK N   1      29.501  17.607   7.907  0.00  0.00     0.007 A 
HETATM    2  C   UNK N   1      30.352  18.208   8.839  0.00  0.00     0.016 A 
HETATM    3  C   UNK N   1      31.724  18.234   8.620  0.00  0.00     0.008 A 
HETATM    4  C   UNK N   1      32.276  17.662   7.468  0.00  0.00    -0.051 A 
HETATM    5  C   UNK N   1      31.427  17.059   6.532  0.00  0.00     0.008 A 
HETATM    6  C   UNK N   1      30.045  17.031   6.749  0.00  0.00     0.016 A 
ENDROOT
BRANCH   1   7
HETATM    7  C   UNK N   1      28.045  17.585   8.149  0.00  0.00     0.102 C 
HETATM    8  N   UNK N   1      27.533  18.303   9.081  0.00  0.00    -0.385 N 
HETATM    9  H   UNK N   1      28.113  18.872   9.638  0.00  0.00     0.157 HD
ATOM     10  HN  UNK N   1      26.527  18.285   9.245  1.00  0.00     0.157 HD
BRANCH   7  11
HETATM   11  N   UNK N   1      27.203  16.774   7.357  0.00  0.00    -0.385 N 
HETATM   12  H   UNK N   1      26.520  16.207   7.785  0.00  0.00     0.157 HD
HETATM   13  H   UNK N   1      27.298  16.774   6.377  0.00  0.00     0.157 HD
ENDBRANCH   7  11
ENDBRANCH   1   7
BRANCH   4  14
HETATM   14  C   UNK N   1      33.759  17.672   7.198  0.00  0.00     0.129 C 
BRANCH  14  15
HETATM   15  C   UNK N   1      34.699  18.021   8.338  0.00  0.00     0.226 C 
HETATM   16  O   UNK N   1      35.229  19.118   8.417  0.00  0.00    -0.286 OA
BRANCH  15  17
HETATM   17  C   UNK N   1      34.980  17.017   9.375  0.00  0.00     0.213 C 
HETATM   18  O   UNK N   1      34.667  15.851   9.208  0.00  0.00    -0.644 OA
BRANCH  17  19
HETATM   19  O   UNK N   1      35.588  17.388  10.520  0.00  0.00    -0.771 OA
HETATM   20  H   UNK N   1      35.687  18.296  10.726  0.00  0.00     0.167 HD
ENDBRANCH  17  19
ENDBRANCH  15  17
ENDBRANCH  14  15
ENDBRANCH   4  14
TORSDOF 6
ENDMDL
MODEL 2
REMARK VINA RESULT:      -6.1      0.113      1.512
REMARK  6 active torsions:
REMARK  status: ('A' for Active; 'I' for Inactive)
REMARK    1  A    between atoms: N_1  and  C_2 
REMARK    2  A    between atoms: C_2  and  C_5 
REMARK    3  A    between atoms: C_8  and  C_9 
REMARK    4  A    between atoms: C_9  and  C_10 
REMARK    5  A    between atoms: C_10  and  C_12 
REMARK    6  A    between atoms: C_12  and  O_13 
ROOT
HETATM    1  C   UNK N   1      29.536  17.632   7.812  0.00  0.00     0.007 A 
HETATM    2  C   UNK N   1      30.062  17.116   6.624  0.00  0.00     0.016 A 
HETATM    3  C   UNK N   1      31.434  17.111   6.408  0.00  0.00     0.008 A 
HETATM    4  C   UNK N   1      32.312  17.621   7.373  0.00  0.00    -0.051 A 
HETATM    5  C   UNK N   1      31.790  18.138   8.564  0.00  0.00     0.008 A 
HETATM    6  C   UNK N   1      30.409  18.145   8.784  0.00  0.00     0.016 A 
ENDROOT
BRANCH   1   7
HETATM    7  C   UNK N   1      28.077  17.633   8.032  0.00  0.00     0.102 C 
HETATM    8  N   UNK N   1      27.318  16.863   7.339  0.00  0.00    -0.385 N 
HETATM    9  H   UNK N   1      27.710  16.269   6.659  0.00  0.00     0.157 HD
ATOM     10  HN  UNK N   1      26.310  16.867   7.494  1.00  0.00     0.157 HD
BRANCH   7  11
HETATM   11  N   UNK N   1      27.502  18.480   9.004  0.00  0.00    -0.385 N 
HETATM   12  H   UNK N   1      28.079  19.018   9.593  0.00  0.00     0.157 HD
HETATM   13  H   UNK N   1      26.523  18.533   9.094  0.00  0.00     0.157 HD
ENDBRANCH   7  11
ENDBRANCH   1   7
BRANCH   4  14
HETATM   14  C   UNK N   1      33.806  17.631   7.172  0.00  0.00     0.129 C 
BRANCH  14  15
HETATM   15  C   UNK N   1      34.691  18.002   8.347  0.00  0.00     0.226 C 
HETATM   16  O   UNK N   1      35.196  19.111   8.443  0.00  0.00    -0.286 OA
BRANCH  15  17
HETATM   17  C   UNK N   1      34.951  17.008   9.398  0.00  0.00     0.213 C 
HETATM   18  O   UNK N   1      34.572  15.857   9.268  0.00  0.00    -0.644 OA
BRANCH  17  19
HETATM   19  O   UNK N   1      35.614  17.370  10.515  0.00  0.00    -0.771 OA
HETATM   20  H   UNK N   1      36.133  18.149  10.521  0.00  0.00     0.167 HD
ENDBRANCH  17  19
ENDBRANCH  15  17
ENDBRANCH  14  15
ENDBRANCH   4  14
TORSDOF 6
ENDMDL
MODEL 3
REMARK VINA RESULT:      -5.9      1.252      2.332
REMARK  6 active torsions:
REMARK  status: ('A' for Active; 'I' for Inactive)
REMARK    1  A    between atoms: N_1  and  C_2 
REMARK    2  A    between atoms: C_2  and  C_5 
REMARK    3  A    between atoms: C_8  and  C_9 
REMARK    4  A    between atoms: C_9  and  C_10 
REMARK    5  A    between atoms: C_10  and  C_12 
REMARK    6  A    between atoms: C_12  and  O_13 
ROOT
HETATM    1  C   UNK N   1      29.120  18.112   7.569  0.00  0.00     0.007 A 
HETATM    2  C   UNK N   1      29.698  17.209   6.672  0.00  0.00     0.016 A 
HETATM    3  C   UNK N   1      30.927  16.627   6.958  0.00  0.00     0.008 A 
HETATM    4  C   UNK N   1      31.605  16.932   8.145  0.00  0.00    -0.051 A 
HETATM    5  C   UNK N   1      31.030  17.836   9.046  0.00  0.00     0.008 A 
HETATM    6  C   UNK N   1      29.793  18.424   8.761  0.00  0.00     0.016 A 
ENDROOT
BRANCH   1   7
HETATM    7  C   UNK N   1      27.815  18.726   7.256  0.00  0.00     0.102 C 
HETATM    8  N   UNK N   1      27.313  19.612   8.037  0.00  0.00    -0.385 N 
HETATM    9  H   UNK N   1      27.800  19.885   8.849  0.00  0.00     0.157 HD
ATOM     10  HN  UNK N   1      26.411  20.034   7.817  1.00  0.00     0.157 HD
BRANCH   7  11
HETATM   11  N   UNK N   1      27.107  18.344   6.096  0.00  0.00    -0.385 N 
HETATM   12  H   UNK N   1      27.556  18.348   5.220  0.00  0.00     0.157 HD
HETATM   13  H   UNK N   1      26.162  18.073   6.163  0.00  0.00     0.157 HD
ENDBRANCH   7  11
ENDBRANCH   1   7
BRANCH   4  14
HETATM   14  C   UNK N   1      32.939  16.318   8.487  0.00  0.00     0.129 C 
BRANCH  14  15
HETATM   15  C   UNK N   1      34.066  17.236   8.923  0.00  0.00     0.226 C 
HETATM   16  O   UNK N   1      34.575  17.142  10.029  0.00  0.00    -0.286 OA
BRANCH  15  17
HETATM   17  C   UNK N   1      34.561  18.263   7.996  0.00  0.00     0.213 C 
HETATM   18  O   UNK N   1      35.098  19.272   8.420  0.00  0.00    -0.644 OA
BRANCH  17  19
HETATM   19  O   UNK N   1      34.421  18.091   6.666  0.00  0.00    -0.771 OA
HETATM   20  H   UNK N   1      33.909  17.379   6.337  0.00  0.00     0.167 HD
ENDBRANCH  17  19
ENDBRANCH  15  17
ENDBRANCH  14  15
ENDBRANCH   4  14
TORSDOF 6
ENDMDL
MODEL 4
REMARK VINA RESULT:      -5.7      7.201      9.137
REMARK  6 active torsions:
REMARK  status: ('A' for Active; 'I' for Inactive)
REMARK    1  A    between atoms: N_1  and  C_2 
REMARK    2  A    between atoms: C_2  and  C_5 
REMARK    3  A    between atoms: C_8  and  C_9 
REMARK    4  A    between atoms: C_9  and  C_10 
REMARK    5  A    between atoms: C_10  and  C_12 
REMARK    6  A    between atoms: C_12  and  O_13 
ROOT
HETATM    1  C   UNK N   1      35.478  13.249  16.447  0.00  0.00     0.007 A 
HETATM    2  C   UNK N   1      34.649  12.546  15.568  0.00  0.00     0.016 A 
HETATM    3  C   UNK N   1      34.786  12.707  14.195  0.00  0.00     0.008 A 
HETATM    4  C   UNK N   1      35.753  13.573  13.669  0.00  0.00    -0.051 A 
HETATM    5  C   UNK N   1      36.585  14.279  14.545  0.00  0.00     0.008 A 
HETATM    6  C   UNK N   1      36.450  14.119  15.929  0.00  0.00     0.016 A 
ENDROOT
BRANCH   1   7
HETATM    7  C   UNK N   1      35.325  13.071  17.904  0.00  0.00     0.102 C 
HETATM    8  N   UNK N   1      35.294  14.092  18.681  0.00  0.00    -0.385 N 
HETATM    9  H   UNK N   1      35.373  14.999  18.304  0.00  0.00     0.157 HD
ATOM     10  HN  UNK N   1      35.188  13.965  19.687  1.00  0.00     0.157 HD
BRANCH   7  11
HETATM   11  N   UNK N   1      35.211  11.777  18.457  0.00  0.00    -0.385 N 
HETATM   12  H   UNK N   1      34.883  11.661  19.378  0.00  0.00     0.157 HD
HETATM   13  H   UNK N   1      35.459  10.989  17.920  0.00  0.00     0.157 HD
ENDBRANCH   7  11
ENDBRANCH   1   7
BRANCH   4  14
HETATM   14  C   UNK N   1      35.928  13.772  12.185  0.00  0.00     0.129 C 
BRANCH  14  15
HETATM   15  C   UNK N   1      35.145  14.880  11.506  0.00  0.00     0.226 C 
HETATM   16  O   UNK N   1      33.938  14.799  11.336  0.00  0.00    -0.286 OA
BRANCH  15  17
HETATM   17  C   UNK N   1      35.851  16.082  11.039  0.00  0.00     0.213 C 
HETATM   18  O   UNK N   1      35.245  17.123  10.858  0.00  0.00    -0.644 OA
BRANCH  17  19
HETATM   19  O   UNK N   1      37.178  16.034  10.809  0.00  0.00    -0.771 OA
HETATM   20  H   UNK N   1      37.742  15.586  11.408  0.00  0.00     0.167 HD
ENDBRANCH  17  19
ENDBRANCH  15  17
ENDBRANCH  14  15
ENDBRANCH   4  14
TORSDOF 6
ENDMDL
MODEL 5
REMARK VINA RESULT:      -5.6      9.249     10.986
REMARK  6 active torsions:
REMARK  status: ('A' for Active; 'I' for Inactive)
REMARK    1  A    between atoms: N_1  and  C_2 
REMARK    2  A    between atoms: C_2  and  C_5 
REMARK    3  A    between atoms: C_8  and  C_9 
REMARK    4  A    between atoms: C_9  and  C_10 
REMARK    5  A    between atoms: C_10  and  C_12 
REMARK    6  A    between atoms: C_12  and  O_13 
ROOT
HETATM    1  C   UNK N   1      35.217  12.163  18.301  0.00  0.00     0.007 A 
HETATM    2  C   UNK N   1      35.366  10.910  17.699  0.00  0.00     0.016 A 
HETATM    3  C   UNK N   1      35.201  10.768  16.327  0.00  0.00     0.008 A 
HETATM    4  C   UNK N   1      34.883  11.871  15.526  0.00  0.00    -0.051 A 
HETATM    5  C   UNK N   1      34.733  13.128  16.125  0.00  0.00     0.008 A 
HETATM    6  C   UNK N   1      34.899  13.275  17.507  0.00  0.00     0.016 A 
ENDROOT
BRANCH   1   7
HETATM    7  C   UNK N   1      35.396  12.303  19.760  0.00  0.00     0.102 C 
HETATM    8  N   UNK N   1      34.879  13.300  20.381  0.00  0.00    -0.385 N 
HETATM    9  H   UNK N   1      34.361  13.975  19.884  0.00  0.00     0.157 HD
ATOM     10  HN  UNK N   1      35.004  13.393  21.389  1.00  0.00     0.157 HD
BRANCH   7  11
HETATM   11  N   UNK N   1      36.136  11.343  20.484  0.00  0.00    -0.385 N 
HETATM   12  H   UNK N   1      36.482  10.542  20.029  0.00  0.00     0.157 HD
HETATM   13  H   UNK N   1      36.306  11.475  21.445  0.00  0.00     0.157 HD
ENDBRANCH   7  11
ENDBRANCH   1   7
BRANCH   4  14
HETATM   14  C   UNK N   1      34.696  11.753  14.035  0.00  0.00     0.129 C 
BRANCH  14  15
HETATM   15  C   UNK N   1      35.324  12.808  13.142  0.00  0.00     0.226 C 
HETATM   16  O   UNK N   1      34.667  13.726  12.677  0.00  0.00    -0.286 OA
BRANCH  15  17
HETATM   17  C   UNK N   1      36.757  12.726  12.825  0.00  0.00     0.213 C 
HETATM   18  O   UNK N   1      37.431  11.802  13.247  0.00  0.00    -0.644 OA
BRANCH  17  19
HETATM   19  O   UNK N   1      37.331  13.678  12.063  0.00  0.00    -0.771 OA
HETATM   20  H   UNK N   1      37.809  14.376  12.466  0.00  0.00     0.167 HD
ENDBRANCH  17  19
ENDBRANCH  15  17
ENDBRANCH  14  15
ENDBRANCH   4  14
TORSDOF 6
ENDMDL
MODEL 6
REMARK VINA RESULT:      -5.6     10.631     12.247
REMARK  6 active torsions:
REMARK  status: ('A' for Active; 'I' for Inactive)
REMARK    1  A    between atoms: N_1  and  C_2 
REMARK    2  A    between atoms: C_2  and  C_5 
REMARK    3  A    between atoms: C_8  and  C_9 
REMARK    4  A    between atoms: C_9  and  C_10 
REMARK    5  A    between atoms: C_10  and  C_12 
REMARK    6  A    between atoms: C_12  and  O_13 
ROOT
HETATM    1  C   UNK N   1      22.656  12.900  10.225  0.00  0.00     0.007 A 
HETATM    2  C   UNK N   1      21.319  13.148  10.551  0.00  0.00     0.016 A 
HETATM    3  C   UNK N   1      20.530  13.935   9.722  0.00  0.00     0.008 A 
HETATM    4  C   UNK N   1      21.056  14.492   8.550  0.00  0.00    -0.051 A 
HETATM    5  C   UNK N   1      22.395  14.247   8.220  0.00  0.00     0.008 A 
HETATM    6  C   UNK N   1      23.192  13.454   9.053  0.00  0.00     0.016 A 
ENDROOT
BRANCH   1   7
HETATM    7  C   UNK N   1      23.486  12.063  11.113  0.00  0.00     0.102 C 
HETATM    8  N   UNK N   1      22.935  11.321  12.004  0.00  0.00    -0.385 N 
HETATM    9  H   UNK N   1      21.954  11.311  12.097  0.00  0.00     0.157 HD
ATOM     10  HN  UNK N   1      23.512  10.744  12.615  1.00  0.00     0.157 HD
BRANCH   7  11
HETATM   11  N   UNK N   1      24.892  12.069  10.990  0.00  0.00    -0.385 N 
HETATM   12  H   UNK N   1      25.450  12.405  11.728  0.00  0.00     0.157 HD
HETATM   13  H   UNK N   1      25.316  11.736  10.165  0.00  0.00     0.157 HD
ENDBRANCH   7  11
ENDBRANCH   1   7
BRANCH   4  14
HETATM   14  C   UNK N   1      20.229  15.351   7.628  0.00  0.00     0.129 C 
BRANCH  14  15
HETATM   15  C   UNK N   1      19.985  16.798   8.012  0.00  0.00     0.226 C 
HETATM   16  O   UNK N   1      20.729  17.693   7.640  0.00  0.00    -0.286 OA
BRANCH  15  17
HETATM   17  C   UNK N   1      18.828  17.137   8.852  0.00  0.00     0.213 C 
HETATM   18  O   UNK N   1      17.942  16.322   9.043  0.00  0.00    -0.644 OA
BRANCH  17  19
HETATM   19  O   UNK N   1      18.742  18.359   9.416  0.00  0.00    -0.771 OA
HETATM   20  H   UNK N   1      19.369  19.021   9.199  0.00  0.00     0.167 HD
ENDBRANCH  17  19
ENDBRANCH  15  17
ENDBRANCH  14  15
ENDBRANCH   4  14
TORSDOF 6
ENDMDL
MODEL 7
REMARK VINA RESULT:      -5.6     13.458     14.337
REMARK  6 active torsions:
REMARK  status: ('A' for Active; 'I' for Inactive)
REMARK    1  A    between atoms: N_1  and  C_2 
REMARK    2  A    between atoms: C_2  and  C_5 
REMARK    3  A    between atoms: C_8  and  C_9 
REMARK    4  A    between atoms: C_9  and  C_10 
REMARK    5  A    between atoms: C_10  and  C_12 
REMARK    6  A    between atoms: C_12  and  O_13 
ROOT
HETATM    1  C   UNK N   1      27.278  26.577  -3.948  0.00  0.00     0.007 A 
HETATM    2  C   UNK N   1      26.612  25.438  -3.486  0.00  0.00     0.016 A 
HETATM    3  C   UNK N   1      27.288  24.230  -3.370  0.00  0.00     0.008 A 
HETATM    4  C   UNK N   1      28.643  24.131  -3.711  0.00  0.00    -0.051 A 
HETATM    5  C   UNK N   1      29.313  25.270  -4.174  0.00  0.00     0.008 A 
HETATM    6  C   UNK N   1      28.635  26.488  -4.292  0.00  0.00     0.016 A 
ENDROOT
BRANCH   1   7
HETATM    7  C   UNK N   1      26.551  27.855  -4.068  0.00  0.00     0.102 C 
HETATM    8  N   UNK N   1      25.614  28.147  -3.241  0.00  0.00    -0.385 N 
HETATM    9  H   UNK N   1      25.378  27.515  -2.523  0.00  0.00     0.157 HD
ATOM     10  HN  UNK N   1      25.114  29.031  -3.328  1.00  0.00     0.157 HD
BRANCH   7  11
HETATM   11  N   UNK N   1      26.879  28.770  -5.093  0.00  0.00    -0.385 N 
HETATM   12  H   UNK N   1      26.562  29.700  -5.044  0.00  0.00     0.157 HD
HETATM   13  H   UNK N   1      27.426  28.476  -5.858  0.00  0.00     0.157 HD
ENDBRANCH   7  11
ENDBRANCH   1   7
BRANCH   4  14
HETATM   14  C   UNK N   1      29.407  22.837  -3.597  0.00  0.00     0.129 C 
BRANCH  14  15
HETATM   15  C   UNK N   1      30.495  22.730  -2.545  0.00  0.00     0.226 C 
HETATM   16  O   UNK N   1      30.312  23.098  -1.395  0.00  0.00    -0.286 OA
BRANCH  15  17
HETATM   17  C   UNK N   1      31.803  22.171  -2.914  0.00  0.00     0.213 C 
HETATM   18  O   UNK N   1      32.335  22.483  -3.965  0.00  0.00    -0.644 OA
BRANCH  17  19
HETATM   19  O   UNK N   1      32.422  21.306  -2.084  0.00  0.00    -0.771 OA
HETATM   20  H   UNK N   1      32.863  21.623  -1.321  0.00  0.00     0.167 HD
ENDBRANCH  17  19
ENDBRANCH  15  17
ENDBRANCH  14  15
ENDBRANCH   4  14
TORSDOF 6
ENDMDL
MODEL 8
REMARK VINA RESULT:      -5.5     13.431     14.441
REMARK  6 active torsions:
REMARK  status: ('A' for Active; 'I' for Inactive)
REMARK    1  A    between atoms: N_1  and  C_2 
REMARK    2  A    between atoms: C_2  and  C_5 
REMARK    3  A    between atoms: C_8  and  C_9 
REMARK    4  A    between atoms: C_9  and  C_10 
REMARK    5  A    between atoms: C_10  and  C_12 
REMARK    6  A    between atoms: C_12  and  O_13 
ROOT
HETATM    1  C   UNK N   1      26.910  23.384  -5.981  0.00  0.00     0.007 A 
HETATM    2  C   UNK N   1      28.113  22.824  -6.420  0.00  0.00     0.016 A 
HETATM    3  C   UNK N   1      29.273  22.981  -5.672  0.00  0.00     0.008 A 
HETATM    4  C   UNK N   1      29.258  23.699  -4.470  0.00  0.00    -0.051 A 
HETATM    5  C   UNK N   1      28.056  24.262  -4.026  0.00  0.00     0.008 A 
HETATM    6  C   UNK N   1      26.885  24.106  -4.778  0.00  0.00     0.016 A 
ENDROOT
BRANCH   1   7
HETATM    7  C   UNK N   1      25.683  23.212  -6.783  0.00  0.00     0.102 C 
HETATM    8  N   UNK N   1      24.925  22.193  -6.596  0.00  0.00    -0.385 N 
HETATM    9  H   UNK N   1      25.163  21.522  -5.916  0.00  0.00     0.157 HD
ATOM     10  HN  UNK N   1      24.079  22.078  -7.153  1.00  0.00     0.157 HD
BRANCH   7  11
HETATM   11  N   UNK N   1      25.330  24.167  -7.762  0.00  0.00    -0.385 N 
HETATM   12  H   UNK N   1      25.267  23.903  -8.708  0.00  0.00     0.157 HD
HETATM   13  H   UNK N   1      25.148  25.098  -7.498  0.00  0.00     0.157 HD
ENDBRANCH   7  11
ENDBRANCH   1   7
BRANCH   4  14
HETATM   14  C   UNK N   1      30.498  23.888  -3.634  0.00  0.00     0.129 C 
BRANCH  14  15
HETATM   15  C   UNK N   1      30.797  22.875  -2.544  0.00  0.00     0.226 C 
HETATM   16  O   UNK N   1      30.378  23.016  -1.406  0.00  0.00    -0.286 OA
BRANCH  15  17
HETATM   17  C   UNK N   1      31.611  21.693  -2.862  0.00  0.00     0.213 C 
HETATM   18  O   UNK N   1      31.416  21.065  -3.888  0.00  0.00    -0.644 OA
BRANCH  17  19
HETATM   19  O   UNK N   1      32.582  21.298  -2.013  0.00  0.00    -0.771 OA
HETATM   20  H   UNK N   1      33.385  21.778  -1.964  0.00  0.00     0.167 HD
ENDBRANCH  17  19
ENDBRANCH  15  17
ENDBRANCH  14  15
ENDBRANCH   4  14
TORSDOF 6
ENDMDL
MODEL 9
REMARK VINA RESULT:      -5.5      9.191     11.085
REMARK  6 active torsions:
REMARK  status: ('A' for Active; 'I' for Inactive)
REMARK    1  A    between atoms: N_1  and  C_2 
REMARK    2  A    between atoms: C_2  and  C_5 
REMARK    3  A    between atoms: C_8  and  C_9 
REMARK    4  A    between atoms: C_9  and  C_10 
REMARK    5  A    between atoms: C_10  and  C_12 
REMARK    6  A    between atoms: C_12  and  O_13 
ROOT
HETATM    1  C   UNK N   1      35.293  12.310  18.614  0.00  0.00     0.007 A 
HETATM    2  C   UNK N   1      35.227  13.487  17.861  0.00  0.00     0.016 A 
HETATM    3  C   UNK N   1      35.571  13.478  16.515  0.00  0.00     0.008 A 
HETATM    4  C   UNK N   1      35.988  12.296  15.890  0.00  0.00    -0.051 A 
HETATM    5  C   UNK N   1      36.055  11.116  16.640  0.00  0.00     0.008 A 
HETATM    6  C   UNK N   1      35.710  11.121  17.996  0.00  0.00     0.016 A 
ENDROOT
BRANCH   1   7
HETATM    7  C   UNK N   1      34.925  12.330  20.043  0.00  0.00     0.102 C 
HETATM    8  N   UNK N   1      34.979  11.254  20.740  0.00  0.00    -0.385 N 
HETATM    9  H   UNK N   1      35.267  10.410  20.320  0.00  0.00     0.157 HD
ATOM     10  HN  UNK N   1      34.725  11.272  21.727  1.00  0.00     0.157 HD
BRANCH   7  11
HETATM   11  N   UNK N   1      34.512  13.533  20.657  0.00  0.00    -0.385 N 
HETATM   12  H   UNK N   1      35.015  13.895  21.421  0.00  0.00     0.157 HD
HETATM   13  H   UNK N   1      33.718  14.010  20.320  0.00  0.00     0.157 HD
ENDBRANCH   7  11
ENDBRANCH   1   7
BRANCH   4  14
HETATM   14  C   UNK N   1      36.368  12.250  14.433  0.00  0.00     0.129 C 
BRANCH  14  15
HETATM   15  C   UNK N   1      35.294  12.526  13.396  0.00  0.00     0.226 C 
HETATM   16  O   UNK N   1      34.453  11.689  13.108  0.00  0.00    -0.286 OA
BRANCH  15  17
HETATM   17  C   UNK N   1      35.262  13.830  12.720  0.00  0.00     0.213 C 
HETATM   18  O   UNK N   1      36.155  14.640  12.895  0.00  0.00    -0.644 OA
BRANCH  17  19
HETATM   19  O   UNK N   1      34.237  14.135  11.898  0.00  0.00    -0.771 OA
HETATM   20  H   UNK N   1      33.887  15.003  11.887  0.00  0.00     0.167 HD
ENDBRANCH  17  19
ENDBRANCH  15  17
ENDBRANCH  14  15
ENDBRANCH   4  14
TORSDOF 6
ENDMDL
