MODEL 1
REMARK VINA RESULT:      -5.7      0.000      0.000
REMARK  1 active torsions:
REMARK  status: ('A' for Active; 'I' for Inactive)
REMARK    1  A    between atoms: N_11  and  C_6 
ROOT
HETATM    1  C   UNK N   1      32.925  17.250   5.303  0.00  0.00     0.003 A 
HETATM    2  C   UNK N   1      31.600  17.027   5.713  0.00  0.00     0.015 A 
HETATM    3  C   UNK N   1      33.909  17.627   6.241  0.00  0.00     0.038 A 
HETATM    4  C   UNK N   1      30.125  17.048   7.752  0.00  0.00     0.120 A 
HETATM    5  C   UNK N   1      31.305  17.191   7.061  0.00  0.00     0.011 A 
HETATM    6  C   UNK N   1      33.583  17.787   7.606  0.00  0.00     0.131 A 
HETATM    7  C   UNK N   1      32.246  17.554   7.977  0.00  0.00     0.092 A 
HETATM    8  N   UNK N   1      30.386  17.327   9.054  0.00  0.00    -0.310 N 
HETATM    9  N   UNK N   1      31.675  17.635   9.190  0.00  0.00    -0.298 N 
ATOM     10  HN  UNK N   1      32.145  17.886  10.059  1.00  0.00     0.187 HD
HETATM   11  H   UNK N   1      29.727  17.306   9.784  0.00  0.00     0.186 HD
ENDROOT
BRANCH   6  12
HETATM   12  N   UNK N   1      34.590  18.168   8.539  0.00  0.00    -0.113 N 
HETATM   13  O   UNK N   1      34.781  17.502   9.513  0.00  0.00    -0.532 OA
HETATM   14  O   UNK N   1      35.248  19.147   8.360  0.00  0.00    -0.532 OA
ENDBRANCH   6  12
TORSDOF 1
ENDMDL
MODEL 2
REMARK VINA RESULT:      -5.4     11.195     12.025
REMARK  1 active torsions:
REMARK  status: ('A' for Active; 'I' for Inactive)
REMARK    1  A    between atoms: N_11  and  C_6 
ROOT
HETATM    1  C   UNK N   1      24.723  13.118   8.991  0.00  0.00     0.003 A 
HETATM    2  C   UNK N   1      24.820  12.623  10.302  0.00  0.00     0.015 A 
HETATM    3  C   UNK N   1      23.463  13.259   8.372  0.00  0.00     0.038 A 
HETATM    4  C   UNK N   1      23.414  11.783  12.213  0.00  0.00     0.120 A 
HETATM    5  C   UNK N   1      23.640  12.283  10.953  0.00  0.00     0.011 A 
HETATM    6  C   UNK N   1      22.279  12.907   9.056  0.00  0.00     0.131 A 
HETATM    7  C   UNK N   1      22.418  12.415  10.367  0.00  0.00     0.092 A 
HETATM    8  N   UNK N   1      22.073  11.628  12.350  0.00  0.00    -0.310 N 
HETATM    9  N   UNK N   1      21.468  12.012  11.228  0.00  0.00    -0.298 N 
ATOM     10  HN  UNK N   1      20.463  12.003  11.052  1.00  0.00     0.187 HD
HETATM   11  H   UNK N   1      21.619  11.286  13.153  0.00  0.00     0.186 HD
ENDROOT
BRANCH   6  12
HETATM   12  N   UNK N   1      21.015  13.056   8.414  0.00  0.00    -0.113 N 
HETATM   13  O   UNK N   1      20.803  12.495   7.381  0.00  0.00    -0.532 OA
HETATM   14  O   UNK N   1      20.163  13.736   8.898  0.00  0.00    -0.532 OA
ENDBRANCH   6  12
TORSDOF 1
ENDMDL
MODEL 3
REMARK VINA RESULT:      -5.3     11.738     12.598
REMARK  1 active torsions:
REMARK  status: ('A' for Active; 'I' for Inactive)
REMARK    1  A    between atoms: N_11  and  C_6 
ROOT
HETATM    1  C   UNK N   1      29.911  21.414  -5.727  0.00  0.00     0.003 A 
HETATM    2  C   UNK N   1      30.940  20.457  -5.729  0.00  0.00     0.015 A 
HETATM    3  C   UNK N   1      29.807  22.349  -4.676  0.00  0.00     0.038 A 
HETATM    4  C   UNK N   1      32.926  19.678  -4.393  0.00  0.00     0.120 A 
HETATM    5  C   UNK N   1      31.837  20.470  -4.667  0.00  0.00     0.011 A 
HETATM    6  C   UNK N   1      30.732  22.341  -3.608  0.00  0.00     0.131 A 
HETATM    7  C   UNK N   1      31.747  21.368  -3.646  0.00  0.00     0.092 A 
HETATM    8  N   UNK N   1      33.457  20.116  -3.224  0.00  0.00    -0.310 N 
HETATM    9  N   UNK N   1      32.741  21.143  -2.771  0.00  0.00    -0.298 N 
ATOM     10  HN  UNK N   1      32.915  21.666  -1.913  1.00  0.00     0.187 HD
HETATM   11  H   UNK N   1      34.249  19.735  -2.781  0.00  0.00     0.186 HD
ENDROOT
BRANCH   6  12
HETATM   12  N   UNK N   1      30.611  23.294  -2.555  0.00  0.00    -0.113 N 
HETATM   13  O   UNK N   1      30.585  24.461  -2.810  0.00  0.00    -0.532 OA
HETATM   14  O   UNK N   1      30.536  22.940  -1.418  0.00  0.00    -0.532 OA
ENDBRANCH   6  12
TORSDOF 1
ENDMDL
MODEL 4
REMARK VINA RESULT:      -5.2     10.815     11.960
REMARK  1 active torsions:
REMARK  status: ('A' for Active; 'I' for Inactive)
REMARK    1  A    between atoms: N_11  and  C_6 
ROOT
HETATM    1  C   UNK N   1      20.624  12.301  11.315  0.00  0.00     0.003 A 
HETATM    2  C   UNK N   1      21.836  11.824  11.842  0.00  0.00     0.015 A 
HETATM    3  C   UNK N   1      20.622  13.200  10.228  0.00  0.00     0.038 A 
HETATM    4  C   UNK N   1      24.329  11.987  11.541  0.00  0.00     0.120 A 
HETATM    5  C   UNK N   1      23.015  12.268  11.255  0.00  0.00     0.011 A 
HETATM    6  C   UNK N   1      21.835  13.636   9.650  0.00  0.00     0.131 A 
HETATM    7  C   UNK N   1      23.027  13.136  10.205  0.00  0.00     0.092 A 
HETATM    8  N   UNK N   1      25.090  12.686  10.663  0.00  0.00    -0.310 N 
HETATM    9  N   UNK N   1      24.299  13.385   9.851  0.00  0.00    -0.298 N 
ATOM     10  HN  UNK N   1      24.603  13.999   9.096  1.00  0.00     0.187 HD
HETATM   11  H   UNK N   1      26.074  12.679  10.631  0.00  0.00     0.186 HD
ENDROOT
BRANCH   6  12
HETATM   12  N   UNK N   1      21.814  14.544   8.551  0.00  0.00    -0.113 N 
HETATM   13  O   UNK N   1      21.086  15.492   8.578  0.00  0.00    -0.532 OA
HETATM   14  O   UNK N   1      22.516  14.371   7.603  0.00  0.00    -0.532 OA
ENDBRANCH   6  12
TORSDOF 1
ENDMDL
MODEL 5
REMARK VINA RESULT:      -5.1     12.466     13.227
REMARK  1 active torsions:
REMARK  status: ('A' for Active; 'I' for Inactive)
REMARK    1  A    between atoms: N_11  and  C_6 
ROOT
HETATM    1  C   UNK N   1      23.093  19.474   3.799  0.00  0.00     0.003 A 
HETATM    2  C   UNK N   1      22.321  18.424   4.326  0.00  0.00     0.015 A 
HETATM    3  C   UNK N   1      22.624  20.225   2.702  0.00  0.00     0.038 A 
HETATM    4  C   UNK N   1      20.133  17.222   4.012  0.00  0.00     0.120 A 
HETATM    5  C   UNK N   1      21.094  18.163   3.729  0.00  0.00     0.011 A 
HETATM    6  C   UNK N   1      21.373  19.938   2.113  0.00  0.00     0.131 A 
HETATM    7  C   UNK N   1      20.629  18.881   2.669  0.00  0.00     0.092 A 
HETATM    8  N   UNK N   1      19.125  17.398   3.122  0.00  0.00    -0.310 N 
HETATM    9  N   UNK N   1      19.426  18.405   2.306  0.00  0.00    -0.298 N 
ATOM     10  HN  UNK N   1      18.848  18.755   1.542  1.00  0.00     0.187 HD
HETATM   11  H   UNK N   1      18.299  16.864   3.085  0.00  0.00     0.186 HD
ENDROOT
BRANCH   6  12
HETATM   12  N   UNK N   1      20.914  20.708   1.004  0.00  0.00    -0.113 N 
HETATM   13  O   UNK N   1      20.637  21.861   1.155  0.00  0.00    -0.532 OA
HETATM   14  O   UNK N   1      20.803  20.215  -0.076  0.00  0.00    -0.532 OA
ENDBRANCH   6  12
TORSDOF 1
ENDMDL
MODEL 6
REMARK VINA RESULT:      -5.1     10.228     11.867
REMARK  1 active torsions:
REMARK  status: ('A' for Active; 'I' for Inactive)
REMARK    1  A    between atoms: N_11  and  C_6 
ROOT
HETATM    1  C   UNK N   1      23.770  11.968  11.529  0.00  0.00     0.003 A 
HETATM    2  C   UNK N   1      24.715  12.334  10.556  0.00  0.00     0.015 A 
HETATM    3  C   UNK N   1      22.403  12.265  11.345  0.00  0.00     0.038 A 
HETATM    4  C   UNK N   1      24.920  13.469   8.319  0.00  0.00     0.120 A 
HETATM    5  C   UNK N   1      24.253  12.993   9.423  0.00  0.00     0.011 A 
HETATM    6  C   UNK N   1      21.960  12.936  10.184  0.00  0.00     0.131 A 
HETATM    7  C   UNK N   1      22.937  13.286   9.234  0.00  0.00     0.092 A 
HETATM    8  N   UNK N   1      23.994  14.032   7.503  0.00  0.00    -0.310 N 
HETATM    9  N   UNK N   1      22.789  13.921   8.059  0.00  0.00    -0.298 N 
ATOM     10  HN  UNK N   1      21.911  14.256   7.664  1.00  0.00     0.187 HD
HETATM   11  H   UNK N   1      24.183  14.456   6.635  0.00  0.00     0.186 HD
ENDROOT
BRANCH   6  12
HETATM   12  N   UNK N   1      20.575  13.228  10.016  0.00  0.00    -0.113 N 
HETATM   13  O   UNK N   1      19.782  12.826  10.814  0.00  0.00    -0.532 OA
HETATM   14  O   UNK N   1      20.197  13.872   9.086  0.00  0.00    -0.532 OA
ENDBRANCH   6  12
TORSDOF 1
ENDMDL
MODEL 7
REMARK VINA RESULT:      -5.0     16.644     17.314
REMARK  1 active torsions:
REMARK  status: ('A' for Active; 'I' for Inactive)
REMARK    1  A    between atoms: N_11  and  C_6 
ROOT
HETATM    1  C   UNK N   1      27.569  27.526  -7.049  0.00  0.00     0.003 A 
HETATM    2  C   UNK N   1      27.497  28.734  -6.335  0.00  0.00     0.015 A 
HETATM    3  C   UNK N   1      27.017  26.344  -6.511  0.00  0.00     0.038 A 
HETATM    4  C   UNK N   1      26.645  29.715  -4.180  0.00  0.00     0.120 A 
HETATM    5  C   UNK N   1      26.868  28.715  -5.096  0.00  0.00     0.011 A 
HETATM    6  C   UNK N   1      26.384  26.352  -5.249  0.00  0.00     0.131 A 
HETATM    7  C   UNK N   1      26.332  27.580  -4.566  0.00  0.00     0.092 A 
HETATM    8  N   UNK N   1      25.985  29.160  -3.132  0.00  0.00    -0.310 N 
HETATM    9  N   UNK N   1      25.795  27.863  -3.367  0.00  0.00    -0.298 N 
ATOM     10  HN  UNK N   1      25.326  27.202  -2.748  1.00  0.00     0.187 HD
HETATM   11  H   UNK N   1      25.693  29.641  -2.325  0.00  0.00     0.186 HD
ENDROOT
BRANCH   6  12
HETATM   12  N   UNK N   1      25.832  25.148  -4.722  0.00  0.00    -0.113 N 
HETATM   13  O   UNK N   1      26.132  24.789  -3.622  0.00  0.00    -0.532 OA
HETATM   14  O   UNK N   1      25.072  24.492  -5.366  0.00  0.00    -0.532 OA
ENDBRANCH   6  12
TORSDOF 1
ENDMDL
MODEL 8
REMARK VINA RESULT:      -5.0      2.850      3.723
REMARK  1 active torsions:
REMARK  status: ('A' for Active; 'I' for Inactive)
REMARK    1  A    between atoms: N_11  and  C_6 
ROOT
HETATM    1  C   UNK N   1      33.200  14.274   7.937  0.00  0.00     0.003 A 
HETATM    2  C   UNK N   1      33.570  14.101   9.281  0.00  0.00     0.015 A 
HETATM    3  C   UNK N   1      33.431  15.503   7.285  0.00  0.00     0.038 A 
HETATM    4  C   UNK N   1      34.626  15.311  11.219  0.00  0.00     0.120 A 
HETATM    5  C   UNK N   1      34.164  15.176   9.931  0.00  0.00     0.011 A 
HETATM    6  C   UNK N   1      34.037  16.580   7.969  0.00  0.00     0.131 A 
HETATM    7  C   UNK N   1      34.393  16.368   9.313  0.00  0.00     0.092 A 
HETATM    8  N   UNK N   1      35.116  16.571  11.339  0.00  0.00    -0.310 N 
HETATM    9  N   UNK N   1      34.974  17.213  10.181  0.00  0.00    -0.298 N 
ATOM     10  HN  UNK N   1      35.256  18.173   9.987  1.00  0.00     0.187 HD
HETATM   11  H   UNK N   1      35.514  16.951  12.155  0.00  0.00     0.186 HD
ENDROOT
BRANCH   6  12
HETATM   12  N   UNK N   1      34.262  17.815   7.294  0.00  0.00    -0.113 N 
HETATM   13  O   UNK N   1      34.538  18.794   7.922  0.00  0.00    -0.532 OA
HETATM   14  O   UNK N   1      34.180  17.885   6.106  0.00  0.00    -0.532 OA
ENDBRANCH   6  12
TORSDOF 1
ENDMDL
MODEL 9
REMARK VINA RESULT:      -5.0     11.722     12.967
REMARK  1 active torsions:
REMARK  status: ('A' for Active; 'I' for Inactive)
REMARK    1  A    between atoms: N_11  and  C_6 
ROOT
HETATM    1  C   UNK N   1      22.709  17.076   4.041  0.00  0.00     0.003 A 
HETATM    2  C   UNK N   1      21.935  16.217   3.243  0.00  0.00     0.015 A 
HETATM    3  C   UNK N   1      22.464  18.466   4.040  0.00  0.00     0.038 A 
HETATM    4  C   UNK N   1      20.029  16.219   1.599  0.00  0.00     0.120 A 
HETATM    5  C   UNK N   1      20.933  16.786   2.465  0.00  0.00     0.011 A 
HETATM    6  C   UNK N   1      21.440  19.018   3.240  0.00  0.00     0.131 A 
HETATM    7  C   UNK N   1      20.687  18.126   2.455  0.00  0.00     0.092 A 
HETATM    8  N   UNK N   1      19.270  17.224   1.096  0.00  0.00    -0.310 N 
HETATM    9  N   UNK N   1      19.670  18.383   1.616  0.00  0.00    -0.298 N 
ATOM     10  HN  UNK N   1      19.275  19.301   1.415  1.00  0.00     0.187 HD
HETATM   11  H   UNK N   1      18.538  17.115   0.448  0.00  0.00     0.186 HD
ENDROOT
BRANCH   6  12
HETATM   12  N   UNK N   1      21.208  20.424   3.252  0.00  0.00    -0.113 N 
HETATM   13  O   UNK N   1      22.027  21.166   2.796  0.00  0.00    -0.532 OA
HETATM   14  O   UNK N   1      20.203  20.872   3.713  0.00  0.00    -0.532 OA
ENDBRANCH   6  12
TORSDOF 1
ENDMDL
