REMARK  4 active torsions:
REMARK  status: ('A' for Active; 'I' for Inactive)
REMARK    1  A    between atoms: O_1  and  C_2 
REMARK    2  A    between atoms: C_4  and  N_12 
REMARK    3  A    between atoms: C_6  and  N_9 
REMARK    4  A    between atoms: C_7  and  O_8 
ROOT
HETATM    1  C   UNK N   1       2.222   0.933   0.000  0.00  0.00     0.103 A 
HETATM    2  C   UNK N   1       2.183  -0.465  -0.000  0.00  0.00     0.075 A 
HETATM    3  C   UNK N   1       0.955  -1.138  -0.000  0.00  0.00     0.108 A 
HETATM    4  C   UNK N   1      -0.230  -0.399  -0.000  0.00  0.00     0.075 A 
HETATM    5  C   UNK N   1      -0.219   1.000   0.000  0.00  0.00     0.141 A 
HETATM    6  C   UNK N   1       1.027   1.674   0.000  0.00  0.00     0.132 A 
ENDROOT
BRANCH   3   7
HETATM    7  N   UNK N   1       0.900  -2.558  -0.000  0.00  0.00    -0.116 N 
HETATM    8  O   UNK N   1       2.010  -3.265  -0.000  0.00  0.00    -0.532 OA
HETATM    9  O   UNK N   1      -0.154  -3.119  -0.000  0.00  0.00    -0.532 OA
ENDBRANCH   3   7
BRANCH   1  10
HETATM   10  O   UNK N   1       3.410   1.562   0.000  0.00  0.00    -0.358 OA
HETATM   11  H   UNK N   1       4.204   1.064   0.000  0.00  0.00     0.217 HD
ENDBRANCH   1  10
BRANCH   5  12
HETATM   12  N   UNK N   1      -1.468   1.693   0.000  0.00  0.00    -0.113 N 
HETATM   13  O   UNK N   1      -1.514   3.008   0.000  0.00  0.00    -0.532 OA
HETATM   14  O   UNK N   1      -2.491   1.077   0.000  0.00  0.00    -0.532 OA
ENDBRANCH   5  12
BRANCH   6  15
HETATM   15  O   UNK N   1       1.086   3.019   0.000  0.00  0.00    -0.356 OA
HETATM   16  H   UNK N   1       1.917   3.452   0.000  0.00  0.00     0.218 HD
ENDBRANCH   6  15
TORSDOF 4
