MODEL 1
REMARK VINA RESULT:      -6.2      0.000      0.000
REMARK  7 active torsions:
REMARK  status: ('A' for Active; 'I' for Inactive)
REMARK    1  A    between atoms: C_2  and  C_1 
REMARK    2  A    between atoms: O_12  and  C_1 
REMARK    3  A    between atoms: C_3  and  O_13 
REMARK    4  A    between atoms: C_4  and  O_14 
REMARK    5  A    between atoms: C_5  and  O_15 
REMARK    6  A    between atoms: O_17  and  C_7 
REMARK    7  A    between atoms: O_18  and  N_11 
ROOT
HETATM    1  C   UNK N   1      34.524  16.949   8.568  0.00  0.00     0.180 C 
HETATM    2  C   UNK N   1      33.142  16.365   8.219  0.00  0.00     0.180 C 
HETATM    3  C   UNK N   1      33.173  14.861   8.538  0.00  0.00     0.183 C 
HETATM    4  C   UNK N   1      33.584  14.639  10.003  0.00  0.00     0.215 C 
HETATM    5  C   UNK N   1      36.185  14.764   9.859  0.00  0.00     0.310 A 
HETATM    6  C   UNK N   1      36.255  14.820  12.050  0.00  0.00     0.249 A 
HETATM    7  C   UNK N   1      34.886  15.419  10.339  0.00  0.00     0.252 A 
HETATM    8  N   UNK N   1      35.121  15.357  11.787  0.00  0.00    -0.312 N 
ATOM      9  HN  UNK N   1      34.466  15.697  12.492  1.00  0.00     0.166 HD
HETATM   10  N   UNK N   1      36.943  14.448  10.906  0.00  0.00    -0.147 N 
HETATM   11  O   UNK N   1      36.517  14.551   8.704  0.00  0.00    -0.265 OA
HETATM   12  O   UNK N   1      34.800  16.789   9.954  0.00  0.00    -0.340 OA
ENDROOT
BRANCH   4  13
HETATM   13  O   UNK N   1      32.557  15.090  10.840  0.00  0.00    -0.387 OA
HETATM   14  H   UNK N   1      31.794  14.959  11.423  0.00  0.00     0.210 HD
ENDBRANCH   4  13
BRANCH   3  15
HETATM   15  O   UNK N   1      31.924  14.284   8.288  0.00  0.00    -0.390 OA
HETATM   16  H   UNK N   1      31.644  13.500   8.784  0.00  0.00     0.210 HD
ENDBRANCH   3  15
BRANCH  10  17
HETATM   17  O   UNK N   1      38.157  13.881  10.862  0.00  0.00    -0.277 OA
HETATM   18  H   UNK N   1      38.469  12.985  11.066  0.00  0.00     0.245 HD
ENDBRANCH  10  17
BRANCH   6  19
HETATM   19  O   UNK N   1      36.715  14.643  13.303  0.00  0.00    -0.331 OA
HETATM   20  H   UNK N   1      36.963  15.294  13.929  0.00  0.00     0.221 HD
ENDBRANCH   6  19
BRANCH   1  21
HETATM   21  C   UNK N   1      34.599  18.433   8.232  0.00  0.00     0.198 C 
BRANCH  21  22
HETATM   22  O   UNK N   1      35.575  19.063   9.007  0.00  0.00    -0.398 OA
HETATM   23  H   UNK N   1      36.532  18.951   9.117  0.00  0.00     0.209 HD
ENDBRANCH  21  22
ENDBRANCH   1  21
BRANCH   2  24
HETATM   24  O   UNK N   1      32.147  17.012   8.963  0.00  0.00    -0.390 OA
HETATM   25  H   UNK N   1      31.254  17.338   9.155  0.00  0.00     0.210 HD
ENDBRANCH   2  24
TORSDOF 7
ENDMDL
MODEL 2
REMARK VINA RESULT:      -6.0      1.995      5.192
REMARK  7 active torsions:
REMARK  status: ('A' for Active; 'I' for Inactive)
REMARK    1  A    between atoms: C_2  and  C_1 
REMARK    2  A    between atoms: O_12  and  C_1 
REMARK    3  A    between atoms: C_3  and  O_13 
REMARK    4  A    between atoms: C_4  and  O_14 
REMARK    5  A    between atoms: C_5  and  O_15 
REMARK    6  A    between atoms: O_17  and  C_7 
REMARK    7  A    between atoms: O_18  and  N_11 
ROOT
HETATM    1  C   UNK N   1      35.237  12.943  12.055  0.00  0.00     0.180 C 
HETATM    2  C   UNK N   1      36.752  13.216  12.005  0.00  0.00     0.180 C 
HETATM    3  C   UNK N   1      37.098  13.692  10.585  0.00  0.00     0.183 C 
HETATM    4  C   UNK N   1      36.239  14.912  10.212  0.00  0.00     0.215 C 
HETATM    5  C   UNK N   1      34.027  13.789   9.405  0.00  0.00     0.310 A 
HETATM    6  C   UNK N   1      33.081  15.768   9.404  0.00  0.00     0.249 A 
HETATM    7  C   UNK N   1      34.732  14.631  10.473  0.00  0.00     0.252 A 
HETATM    8  N   UNK N   1      33.978  15.881  10.312  0.00  0.00    -0.312 N 
ATOM      9  HN  UNK N   1      34.147  16.729  10.853  1.00  0.00     0.166 HD
HETATM   10  N   UNK N   1      33.068  14.508   8.826  0.00  0.00    -0.147 N 
HETATM   11  O   UNK N   1      34.271  12.632   9.104  0.00  0.00    -0.265 OA
HETATM   12  O   UNK N   1      34.505  14.133  11.789  0.00  0.00    -0.340 OA
ENDROOT
BRANCH   4  13
HETATM   13  O   UNK N   1      36.638  16.006  10.987  0.00  0.00    -0.387 OA
HETATM   14  H   UNK N   1      37.218  16.753  11.199  0.00  0.00     0.210 HD
ENDBRANCH   4  13
BRANCH   3  15
HETATM   15  O   UNK N   1      38.457  14.005  10.493  0.00  0.00    -0.390 OA
HETATM   16  H   UNK N   1      39.048  13.828  11.241  0.00  0.00     0.210 HD
ENDBRANCH   3  15
BRANCH  10  17
HETATM   17  O   UNK N   1      32.234  14.086   7.865  0.00  0.00    -0.277 OA
HETATM   18  H   UNK N   1      32.217  14.226   6.906  0.00  0.00     0.245 HD
ENDBRANCH  10  17
BRANCH   6  19
HETATM   19  O   UNK N   1      32.250  16.768   9.058  0.00  0.00    -0.331 OA
HETATM   20  H   UNK N   1      31.371  16.919   9.344  0.00  0.00     0.221 HD
ENDBRANCH   6  19
BRANCH   1  21
HETATM   21  C   UNK N   1      34.814  12.414  13.420  0.00  0.00     0.198 C 
BRANCH  21  22
HETATM   22  O   UNK N   1      34.827  13.439  14.368  0.00  0.00    -0.398 OA
HETATM   23  H   UNK N   1      34.141  13.957  14.818  0.00  0.00     0.209 HD
ENDBRANCH  21  22
ENDBRANCH   1  21
BRANCH   2  24
HETATM   24  O   UNK N   1      37.095  14.187  12.954  0.00  0.00    -0.390 OA
HETATM   25  H   UNK N   1      37.453  14.522  13.791  0.00  0.00     0.210 HD
ENDBRANCH   2  24
TORSDOF 7
ENDMDL
MODEL 3
REMARK VINA RESULT:      -6.0      2.054      4.716
REMARK  7 active torsions:
REMARK  status: ('A' for Active; 'I' for Inactive)
REMARK    1  A    between atoms: C_2  and  C_1 
REMARK    2  A    between atoms: O_12  and  C_1 
REMARK    3  A    between atoms: C_3  and  O_13 
REMARK    4  A    between atoms: C_4  and  O_14 
REMARK    5  A    between atoms: C_5  and  O_15 
REMARK    6  A    between atoms: O_17  and  C_7 
REMARK    7  A    between atoms: O_18  and  N_11 
ROOT
HETATM    1  C   UNK N   1      37.016  14.644  10.103  0.00  0.00     0.180 C 
HETATM    2  C   UNK N   1      36.301  13.750  11.133  0.00  0.00     0.180 C 
HETATM    3  C   UNK N   1      35.007  14.462  11.557  0.00  0.00     0.183 C 
HETATM    4  C   UNK N   1      34.151  14.784  10.320  0.00  0.00     0.215 C 
HETATM    5  C   UNK N   1      35.222  17.011   9.487  0.00  0.00     0.310 A 
HETATM    6  C   UNK N   1      34.045  16.832   7.646  0.00  0.00     0.249 A 
HETATM    7  C   UNK N   1      34.992  15.518   9.238  0.00  0.00     0.252 A 
HETATM    8  N   UNK N   1      34.205  15.611   8.002  0.00  0.00    -0.312 N 
ATOM      9  HN  UNK N   1      33.833  14.808   7.494  1.00  0.00     0.166 HD
HETATM   10  N   UNK N   1      34.653  17.722   8.517  0.00  0.00    -0.147 N 
HETATM   11  O   UNK N   1      35.833  17.515  10.416  0.00  0.00    -0.265 OA
HETATM   12  O   UNK N   1      36.205  14.826   8.949  0.00  0.00    -0.340 OA
ENDROOT
BRANCH   4  13
HETATM   13  O   UNK N   1      33.659  13.591   9.781  0.00  0.00    -0.387 OA
HETATM   14  H   UNK N   1      33.758  12.699   9.414  0.00  0.00     0.210 HD
ENDBRANCH   4  13
BRANCH   3  15
HETATM   15  O   UNK N   1      34.286  13.670  12.457  0.00  0.00    -0.390 OA
HETATM   16  H   UNK N   1      34.695  12.881  12.844  0.00  0.00     0.210 HD
ENDBRANCH   3  15
BRANCH  10  17
HETATM   17  O   UNK N   1      34.672  19.057   8.399  0.00  0.00    -0.277 OA
HETATM   18  H   UNK N   1      35.323  19.728   8.658  0.00  0.00     0.245 HD
ENDBRANCH  10  17
BRANCH   6  19
HETATM   19  O   UNK N   1      33.360  17.196   6.546  0.00  0.00    -0.331 OA
HETATM   20  H   UNK N   1      33.005  16.648   5.874  0.00  0.00     0.221 HD
ENDBRANCH   6  19
BRANCH   1  21
HETATM   21  C   UNK N   1      38.343  14.035   9.667  0.00  0.00     0.198 C 
BRANCH  21  22
HETATM   22  O   UNK N   1      38.962  13.388  10.739  0.00  0.00    -0.398 OA
HETATM   23  H   UNK N   1      39.024  13.560  11.692  0.00  0.00     0.209 HD
ENDBRANCH  21  22
ENDBRANCH   1  21
BRANCH   2  24
HETATM   24  O   UNK N   1      36.021  12.499  10.568  0.00  0.00    -0.390 OA
HETATM   25  H   UNK N   1      35.974  11.835   9.862  0.00  0.00     0.210 HD
ENDBRANCH   2  24
TORSDOF 7
ENDMDL
MODEL 4
REMARK VINA RESULT:      -5.8      2.677      4.424
REMARK  7 active torsions:
REMARK  status: ('A' for Active; 'I' for Inactive)
REMARK    1  A    between atoms: C_2  and  C_1 
REMARK    2  A    between atoms: O_12  and  C_1 
REMARK    3  A    between atoms: C_3  and  O_13 
REMARK    4  A    between atoms: C_4  and  O_14 
REMARK    5  A    between atoms: C_5  and  O_15 
REMARK    6  A    between atoms: O_17  and  C_7 
REMARK    7  A    between atoms: O_18  and  N_11 
ROOT
HETATM    1  C   UNK N   1      31.708  16.064   6.275  0.00  0.00     0.180 C 
HETATM    2  C   UNK N   1      32.155  14.785   5.542  0.00  0.00     0.180 C 
HETATM    3  C   UNK N   1      33.692  14.765   5.525  0.00  0.00     0.183 C 
HETATM    4  C   UNK N   1      34.238  14.877   6.958  0.00  0.00     0.215 C 
HETATM    5  C   UNK N   1      34.177  17.453   7.360  0.00  0.00     0.310 A 
HETATM    6  C   UNK N   1      34.597  17.083   9.480  0.00  0.00     0.249 A 
HETATM    7  C   UNK N   1      33.595  16.079   7.705  0.00  0.00     0.252 A 
HETATM    8  N   UNK N   1      33.976  16.020   9.123  0.00  0.00    -0.312 N 
ATOM      9  HN  UNK N   1      33.773  15.235   9.741  1.00  0.00     0.166 HD
HETATM   10  N   UNK N   1      34.737  17.990   8.441  0.00  0.00    -0.147 N 
HETATM   11  O   UNK N   1      34.147  18.011   6.274  0.00  0.00    -0.265 OA
HETATM   12  O   UNK N   1      32.172  16.059   7.619  0.00  0.00    -0.340 OA
ENDROOT
BRANCH   4  13
HETATM   13  O   UNK N   1      33.943  13.700   7.654  0.00  0.00    -0.387 OA
HETATM   14  H   UNK N   1      33.792  13.184   8.460  0.00  0.00     0.210 HD
ENDBRANCH   4  13
BRANCH   3  15
HETATM   15  O   UNK N   1      34.157  13.597   4.914  0.00  0.00    -0.390 OA
HETATM   16  H   UNK N   1      33.539  12.882   4.698  0.00  0.00     0.210 HD
ENDBRANCH   3  15
BRANCH  10  17
HETATM   17  O   UNK N   1      35.324  19.193   8.514  0.00  0.00    -0.277 OA
HETATM   18  H   UNK N   1      36.135  19.500   8.948  0.00  0.00     0.245 HD
ENDBRANCH  10  17
BRANCH   6  19
HETATM   19  O   UNK N   1      35.056  17.285  10.730  0.00  0.00    -0.331 OA
HETATM   20  H   UNK N   1      35.793  16.888  11.149  0.00  0.00     0.221 HD
ENDBRANCH   6  19
BRANCH   1  21
HETATM   21  C   UNK N   1      30.190  16.191   6.292  0.00  0.00     0.198 C 
BRANCH  21  22
HETATM   22  O   UNK N   1      29.628  15.505   5.213  0.00  0.00    -0.398 OA
HETATM   23  H   UNK N   1      28.820  14.985   5.084  0.00  0.00     0.209 HD
ENDBRANCH  21  22
ENDBRANCH   1  21
BRANCH   2  24
HETATM   24  O   UNK N   1      31.648  13.656   6.198  0.00  0.00    -0.390 OA
HETATM   25  H   UNK N   1      31.048  13.162   6.778  0.00  0.00     0.210 HD
ENDBRANCH   2  24
TORSDOF 7
ENDMDL
MODEL 5
REMARK VINA RESULT:      -5.8     13.107     15.130
REMARK  7 active torsions:
REMARK  status: ('A' for Active; 'I' for Inactive)
REMARK    1  A    between atoms: C_2  and  C_1 
REMARK    2  A    between atoms: O_12  and  C_1 
REMARK    3  A    between atoms: C_3  and  O_13 
REMARK    4  A    between atoms: C_4  and  O_14 
REMARK    5  A    between atoms: C_5  and  O_15 
REMARK    6  A    between atoms: O_17  and  C_7 
REMARK    7  A    between atoms: O_18  and  N_11 
ROOT
HETATM    1  C   UNK N   1      21.138  18.923   3.003  0.00  0.00     0.180 C 
HETATM    2  C   UNK N   1      20.145  18.239   2.044  0.00  0.00     0.180 C 
HETATM    3  C   UNK N   1      20.268  16.720   2.246  0.00  0.00     0.183 C 
HETATM    4  C   UNK N   1      20.042  16.363   3.725  0.00  0.00     0.215 C 
HETATM    5  C   UNK N   1      22.402  16.790   4.750  0.00  0.00     0.310 A 
HETATM    6  C   UNK N   1      21.519  16.579   6.746  0.00  0.00     0.249 A 
HETATM    7  C   UNK N   1      20.939  17.233   4.649  0.00  0.00     0.252 A 
HETATM    8  N   UNK N   1      20.539  17.016   6.046  0.00  0.00    -0.312 N 
ATOM      9  HN  UNK N   1      19.602  17.191   6.410  1.00  0.00     0.166 HD
HETATM   10  N   UNK N   1      22.679  16.431   6.001  0.00  0.00    -0.147 N 
HETATM   11  O   UNK N   1      23.224  16.762   3.848  0.00  0.00    -0.265 OA
HETATM   12  O   UNK N   1      20.816  18.623   4.355  0.00  0.00    -0.340 OA
ENDROOT
BRANCH   4  13
HETATM   13  O   UNK N   1      18.700  16.589   4.051  0.00  0.00    -0.387 OA
HETATM   14  H   UNK N   1      17.820  16.962   3.890  0.00  0.00     0.210 HD
ENDBRANCH   4  13
BRANCH   3  15
HETATM   15  O   UNK N   1      19.350  16.045   1.435  0.00  0.00    -0.390 OA
HETATM   16  H   UNK N   1      18.437  16.363   1.366  0.00  0.00     0.210 HD
ENDBRANCH   3  15
BRANCH  10  17
HETATM   17  O   UNK N   1      23.866  16.010   6.459  0.00  0.00    -0.277 OA
HETATM   18  H   UNK N   1      24.710  16.466   6.606  0.00  0.00     0.245 HD
ENDBRANCH  10  17
BRANCH   6  19
HETATM   19  O   UNK N   1      21.421  16.298   8.059  0.00  0.00    -0.331 OA
HETATM   20  H   UNK N   1      21.696  16.819   8.787  0.00  0.00     0.221 HD
ENDBRANCH   6  19
BRANCH   1  21
HETATM   21  C   UNK N   1      21.120  20.438   2.831  0.00  0.00     0.198 C 
BRANCH  21  22
HETATM   22  O   UNK N   1      20.233  21.024   3.736  0.00  0.00    -0.398 OA
HETATM   23  H   UNK N   1      19.271  21.000   3.858  0.00  0.00     0.209 HD
ENDBRANCH  21  22
ENDBRANCH   1  21
BRANCH   2  24
HETATM   24  O   UNK N   1      18.842  18.675   2.313  0.00  0.00    -0.390 OA
HETATM   25  H   UNK N   1      18.151  19.316   2.542  0.00  0.00     0.210 HD
ENDBRANCH   2  24
TORSDOF 7
ENDMDL
MODEL 6
REMARK VINA RESULT:      -5.6      2.357      4.865
REMARK  7 active torsions:
REMARK  status: ('A' for Active; 'I' for Inactive)
REMARK    1  A    between atoms: C_2  and  C_1 
REMARK    2  A    between atoms: O_12  and  C_1 
REMARK    3  A    between atoms: C_3  and  O_13 
REMARK    4  A    between atoms: C_4  and  O_14 
REMARK    5  A    between atoms: C_5  and  O_15 
REMARK    6  A    between atoms: O_17  and  C_7 
REMARK    7  A    between atoms: O_18  and  N_11 
ROOT
HETATM    1  C   UNK N   1      34.343  13.363   8.791  0.00  0.00     0.180 C 
HETATM    2  C   UNK N   1      35.305  13.230   9.986  0.00  0.00     0.180 C 
HETATM    3  C   UNK N   1      36.147  14.514  10.056  0.00  0.00     0.183 C 
HETATM    4  C   UNK N   1      35.229  15.745  10.138  0.00  0.00     0.215 C 
HETATM    5  C   UNK N   1      34.643  16.149   7.629  0.00  0.00     0.310 A 
HETATM    6  C   UNK N   1      33.120  17.592   8.267  0.00  0.00     0.249 A 
HETATM    7  C   UNK N   1      34.155  15.713   9.014  0.00  0.00     0.252 A 
HETATM    8  N   UNK N   1      33.176  16.780   9.257  0.00  0.00    -0.312 N 
ATOM      9  HN  UNK N   1      32.614  16.863  10.104  1.00  0.00     0.166 HD
HETATM   10  N   UNK N   1      33.991  17.245   7.247  0.00  0.00    -0.147 N 
HETATM   11  O   UNK N   1      35.491  15.600   6.943  0.00  0.00    -0.265 OA
HETATM   12  O   UNK N   1      33.465  14.466   8.975  0.00  0.00    -0.340 OA
ENDROOT
BRANCH   4  13
HETATM   13  O   UNK N   1      34.585  15.755  11.380  0.00  0.00    -0.387 OA
HETATM   14  H   UNK N   1      33.875  15.505  11.990  0.00  0.00     0.210 HD
ENDBRANCH   4  13
BRANCH   3  15
HETATM   15  O   UNK N   1      37.008  14.473  11.158  0.00  0.00    -0.390 OA
HETATM   16  H   UNK N   1      37.809  15.019  11.169  0.00  0.00     0.210 HD
ENDBRANCH   3  15
BRANCH  10  17
HETATM   17  O   UNK N   1      34.145  17.891   6.083  0.00  0.00    -0.277 OA
HETATM   18  H   UNK N   1      34.930  18.151   5.577  0.00  0.00     0.245 HD
ENDBRANCH  10  17
BRANCH   6  19
HETATM   19  O   UNK N   1      32.301  18.660   8.234  0.00  0.00    -0.331 OA
HETATM   20  H   UNK N   1      31.728  18.932   7.546  0.00  0.00     0.221 HD
ENDBRANCH   6  19
BRANCH   1  21
HETATM   21  C   UNK N   1      33.502  12.104   8.614  0.00  0.00     0.198 C 
BRANCH  21  22
HETATM   22  O   UNK N   1      32.349  12.171   9.399  0.00  0.00    -0.398 OA
HETATM   23  H   UNK N   1      31.464  12.550   9.277  0.00  0.00     0.209 HD
ENDBRANCH  21  22
ENDBRANCH   1  21
BRANCH   2  24
HETATM   24  O   UNK N   1      34.577  13.045  11.168  0.00  0.00    -0.390 OA
HETATM   25  H   UNK N   1      34.200  13.295  12.026  0.00  0.00     0.210 HD
ENDBRANCH   2  24
TORSDOF 7
ENDMDL
MODEL 7
REMARK VINA RESULT:      -5.6      1.869      2.835
REMARK  7 active torsions:
REMARK  status: ('A' for Active; 'I' for Inactive)
REMARK    1  A    between atoms: C_2  and  C_1 
REMARK    2  A    between atoms: O_12  and  C_1 
REMARK    3  A    between atoms: C_3  and  O_13 
REMARK    4  A    between atoms: C_4  and  O_14 
REMARK    5  A    between atoms: C_5  and  O_15 
REMARK    6  A    between atoms: O_17  and  C_7 
REMARK    7  A    between atoms: O_18  and  N_11 
ROOT
HETATM    1  C   UNK N   1      32.895  17.383   8.480  0.00  0.00     0.180 C 
HETATM    2  C   UNK N   1      33.261  17.025   7.027  0.00  0.00     0.180 C 
HETATM    3  C   UNK N   1      34.635  16.337   7.044  0.00  0.00     0.183 C 
HETATM    4  C   UNK N   1      34.608  15.124   7.990  0.00  0.00     0.215 C 
HETATM    5  C   UNK N   1      35.027  16.239  10.310  0.00  0.00     0.310 A 
HETATM    6  C   UNK N   1      34.508  14.334  11.265  0.00  0.00     0.249 A 
HETATM    7  C   UNK N   1      34.042  15.519   9.383  0.00  0.00     0.252 A 
HETATM    8  N   UNK N   1      33.831  14.301  10.177  0.00  0.00    -0.312 N 
ATOM      9  HN  UNK N   1      33.225  13.530   9.898  1.00  0.00     0.166 HD
HETATM   10  N   UNK N   1      35.248  15.499  11.394  0.00  0.00    -0.147 N 
HETATM   11  O   UNK N   1      35.547  17.328  10.125  0.00  0.00    -0.265 OA
HETATM   12  O   UNK N   1      32.799  16.210   9.276  0.00  0.00    -0.340 OA
ENDROOT
BRANCH   4  13
HETATM   13  O   UNK N   1      33.794  14.129   7.436  0.00  0.00    -0.387 OA
HETATM   14  H   UNK N   1      33.381  13.660   6.695  0.00  0.00     0.210 HD
ENDBRANCH   4  13
BRANCH   3  15
HETATM   15  O   UNK N   1      34.998  15.941   5.753  0.00  0.00    -0.390 OA
HETATM   16  H   UNK N   1      35.800  15.414   5.614  0.00  0.00     0.210 HD
ENDBRANCH   3  15
BRANCH  10  17
HETATM   17  O   UNK N   1      36.037  15.826  12.427  0.00  0.00    -0.277 OA
HETATM   18  H   UNK N   1      36.617  16.584  12.593  0.00  0.00     0.245 HD
ENDBRANCH  10  17
BRANCH   6  19
HETATM   19  O   UNK N   1      34.494  13.341  12.173  0.00  0.00    -0.331 OA
HETATM   20  H   UNK N   1      34.890  13.323  13.021  0.00  0.00     0.221 HD
ENDBRANCH   6  19
BRANCH   1  21
HETATM   21  C   UNK N   1      31.564  18.122   8.550  0.00  0.00     0.198 C 
BRANCH  21  22
HETATM   22  O   UNK N   1      30.719  17.521   9.486  0.00  0.00    -0.398 OA
HETATM   23  H   UNK N   1      29.757  17.448   9.586  0.00  0.00     0.209 HD
ENDBRANCH  21  22
ENDBRANCH   1  21
BRANCH   2  24
HETATM   24  O   UNK N   1      32.286  16.180   6.483  0.00  0.00    -0.390 OA
HETATM   25  H   UNK N   1      31.734  15.385   6.424  0.00  0.00     0.210 HD
ENDBRANCH   2  24
TORSDOF 7
ENDMDL
MODEL 8
REMARK VINA RESULT:      -5.4     11.473     13.978
REMARK  7 active torsions:
REMARK  status: ('A' for Active; 'I' for Inactive)
REMARK    1  A    between atoms: C_2  and  C_1 
REMARK    2  A    between atoms: O_12  and  C_1 
REMARK    3  A    between atoms: C_3  and  O_13 
REMARK    4  A    between atoms: C_4  and  O_14 
REMARK    5  A    between atoms: C_5  and  O_15 
REMARK    6  A    between atoms: O_17  and  C_7 
REMARK    7  A    between atoms: O_18  and  N_11 
ROOT
HETATM    1  C   UNK N   1      42.698  20.780   2.501  0.00  0.00     0.180 C 
HETATM    2  C   UNK N   1      43.891  21.101   3.421  0.00  0.00     0.180 C 
HETATM    3  C   UNK N   1      44.635  22.305   2.822  0.00  0.00     0.183 C 
HETATM    4  C   UNK N   1      43.667  23.485   2.634  0.00  0.00     0.215 C 
HETATM    5  C   UNK N   1      42.555  22.910   0.346  0.00  0.00     0.310 A 
HETATM    6  C   UNK N   1      41.094  24.504   0.710  0.00  0.00     0.249 A 
HETATM    7  C   UNK N   1      42.392  23.039   1.863  0.00  0.00     0.252 A 
HETATM    8  N   UNK N   1      41.409  24.130   1.895  0.00  0.00    -0.312 N 
ATOM      9  HN  UNK N   1      41.026  24.536   2.749  1.00  0.00     0.166 HD
HETATM   10  N   UNK N   1      41.762  23.785  -0.268  0.00  0.00    -0.147 N 
HETATM   11  O   UNK N   1      43.282  22.132  -0.251  0.00  0.00    -0.265 OA
HETATM   12  O   UNK N   1      41.799  21.879   2.443  0.00  0.00    -0.340 OA
ENDROOT
BRANCH   4  13
HETATM   13  O   UNK N   1      43.291  23.974   3.889  0.00  0.00    -0.387 OA
HETATM   14  H   UNK N   1      43.284  24.640   4.594  0.00  0.00     0.210 HD
ENDBRANCH   4  13
BRANCH   3  15
HETATM   15  O   UNK N   1      45.703  22.677   3.646  0.00  0.00    -0.390 OA
HETATM   16  H   UNK N   1      46.058  23.578   3.603  0.00  0.00     0.210 HD
ENDBRANCH   3  15
BRANCH  10  17
HETATM   17  O   UNK N   1      41.628  23.937  -1.593  0.00  0.00    -0.277 OA
HETATM   18  H   UNK N   1      41.367  23.326  -2.299  0.00  0.00     0.245 HD
ENDBRANCH  10  17
BRANCH   6  19
HETATM   19  O   UNK N   1      40.211  25.489   0.457  0.00  0.00    -0.331 OA
HETATM   20  H   UNK N   1      39.280  25.473   0.553  0.00  0.00     0.221 HD
ENDBRANCH   6  19
BRANCH   1  21
HETATM   21  C   UNK N   1      41.932  19.558   2.994  0.00  0.00     0.198 C 
BRANCH  21  22
HETATM   22  O   UNK N   1      40.921  19.938   3.879  0.00  0.00    -0.398 OA
HETATM   23  H   UNK N   1      40.731  19.757   4.813  0.00  0.00     0.209 HD
ENDBRANCH  21  22
ENDBRANCH   1  21
BRANCH   2  24
HETATM   24  O   UNK N   1      43.434  21.388   4.713  0.00  0.00    -0.390 OA
HETATM   25  H   UNK N   1      42.858  21.791   5.381  0.00  0.00     0.210 HD
ENDBRANCH   2  24
TORSDOF 7
ENDMDL
MODEL 9
REMARK VINA RESULT:      -5.4      2.037      3.103
REMARK  7 active torsions:
REMARK  status: ('A' for Active; 'I' for Inactive)
REMARK    1  A    between atoms: C_2  and  C_1 
REMARK    2  A    between atoms: O_12  and  C_1 
REMARK    3  A    between atoms: C_3  and  O_13 
REMARK    4  A    between atoms: C_4  and  O_14 
REMARK    5  A    between atoms: C_5  and  O_15 
REMARK    6  A    between atoms: O_17  and  C_7 
REMARK    7  A    between atoms: O_18  and  N_11 
ROOT
HETATM    1  C   UNK N   1      34.487  15.174   7.102  0.00  0.00     0.180 C 
HETATM    2  C   UNK N   1      33.721  16.452   6.712  0.00  0.00     0.180 C 
HETATM    3  C   UNK N   1      32.920  16.913   7.939  0.00  0.00     0.183 C 
HETATM    4  C   UNK N   1      33.857  17.101   9.144  0.00  0.00     0.215 C 
HETATM    5  C   UNK N   1      34.051  14.667  10.061  0.00  0.00     0.310 A 
HETATM    6  C   UNK N   1      35.676  15.341  11.370  0.00  0.00     0.249 A 
HETATM    7  C   UNK N   1      34.742  15.840   9.360  0.00  0.00     0.252 A 
HETATM    8  N   UNK N   1      35.763  16.141  10.372  0.00  0.00    -0.312 N 
ATOM      9  HN  UNK N   1      36.452  16.889  10.290  1.00  0.00     0.166 HD
HETATM   10  N   UNK N   1      34.651  14.420  11.223  0.00  0.00    -0.147 N 
HETATM   11  O   UNK N   1      33.098  14.024   9.649  0.00  0.00    -0.265 OA
HETATM   12  O   UNK N   1      35.400  15.440   8.160  0.00  0.00    -0.340 OA
ENDROOT
BRANCH   4  13
HETATM   13  O   UNK N   1      34.687  18.203   8.911  0.00  0.00    -0.387 OA
HETATM   14  H   UNK N   1      35.550  18.630   8.799  0.00  0.00     0.210 HD
ENDBRANCH   4  13
BRANCH   3  15
HETATM   15  O   UNK N   1      32.241  18.103   7.659  0.00  0.00    -0.390 OA
HETATM   16  H   UNK N   1      32.707  18.839   7.232  0.00  0.00     0.210 HD
ENDBRANCH   3  15
BRANCH  10  17
HETATM   17  O   UNK N   1      34.327  13.451  12.090  0.00  0.00    -0.277 OA
HETATM   18  H   UNK N   1      33.920  12.578  11.975  0.00  0.00     0.245 HD
ENDBRANCH  10  17
BRANCH   6  19
HETATM   19  O   UNK N   1      36.495  15.400  12.437  0.00  0.00    -0.331 OA
HETATM   20  H   UNK N   1      37.431  15.407  12.451  0.00  0.00     0.221 HD
ENDBRANCH   6  19
BRANCH   1  21
HETATM   21  C   UNK N   1      35.272  14.615   5.921  0.00  0.00     0.198 C 
BRANCH  21  22
HETATM   22  O   UNK N   1      34.669  14.980   4.716  0.00  0.00    -0.398 OA
HETATM   23  H   UNK N   1      34.527  14.537   3.864  0.00  0.00     0.209 HD
ENDBRANCH  21  22
ENDBRANCH   1  21
BRANCH   2  24
HETATM   24  O   UNK N   1      34.622  17.442   6.302  0.00  0.00    -0.390 OA
HETATM   25  H   UNK N   1      35.306  18.121   6.414  0.00  0.00     0.210 HD
ENDBRANCH   2  24
TORSDOF 7
ENDMDL
