MODEL 1
REMARK VINA RESULT:      -3.3      0.000      0.000
REMARK  4 active torsions:
REMARK  status: ('A' for Active; 'I' for Inactive)
REMARK    1  A    between atoms: C_2  and  O_3 
REMARK    2  A    between atoms: C_2  and  C_4 
REMARK    3  A    between atoms: C_4  and  C_5 
REMARK    4  A    between atoms: C_5  and  O_6 
ROOT
HETATM    1  C   UNK N   1      33.124  21.722  -4.348  0.00  0.00     0.039 C 
HETATM    2  C   UNK N   1      32.201  21.481  -3.171  0.00  0.00     0.116 C 
ENDROOT
BRANCH   2   3
HETATM    3  O   UNK N   1      32.777  21.142  -1.947  0.00  0.00    -0.396 OA
HETATM    4  H   UNK N   1      33.519  20.518  -1.917  0.00  0.00     0.210 HD
ENDBRANCH   2   3
BRANCH   2   5
HETATM    5  C   UNK N   1      30.686  21.599  -3.293  0.00  0.00     0.057 C 
BRANCH   5   6
HETATM    6  C   UNK N   1      30.194  22.927  -2.745  0.00  0.00     0.166 C 
BRANCH   6   7
HETATM    7  O   UNK N   1      30.481  23.012  -1.383  0.00  0.00    -0.401 OA
HETATM    8  H   UNK N   1      29.803  22.781  -0.729  0.00  0.00     0.209 HD
ENDBRANCH   6   7
ENDBRANCH   5   6
ENDBRANCH   2   5
TORSDOF 4
ENDMDL
MODEL 2
REMARK VINA RESULT:      -3.3     11.815     12.983
REMARK  4 active torsions:
REMARK  status: ('A' for Active; 'I' for Inactive)
REMARK    1  A    between atoms: C_2  and  O_3 
REMARK    2  A    between atoms: C_2  and  C_4 
REMARK    3  A    between atoms: C_4  and  C_5 
REMARK    4  A    between atoms: C_5  and  O_6 
ROOT
HETATM    1  C   UNK N   1      20.402  17.242   2.703  0.00  0.00     0.039 C 
HETATM    2  C   UNK N   1      19.862  18.648   2.540  0.00  0.00     0.116 C 
ENDROOT
BRANCH   2   3
HETATM    3  O   UNK N   1      18.488  18.804   2.361  0.00  0.00    -0.396 OA
HETATM    4  H   UNK N   1      18.058  19.636   2.613  0.00  0.00     0.210 HD
ENDBRANCH   2   3
BRANCH   2   5
HETATM    5  C   UNK N   1      20.771  19.871   2.568  0.00  0.00     0.057 C 
BRANCH   5   6
HETATM    6  C   UNK N   1      20.735  20.609   1.241  0.00  0.00     0.166 C 
BRANCH   6   7
HETATM    7  O   UNK N   1      20.542  19.702   0.200  0.00  0.00    -0.401 OA
HETATM    8  H   UNK N   1      19.645  19.512  -0.117  0.00  0.00     0.209 HD
ENDBRANCH   6   7
ENDBRANCH   5   6
ENDBRANCH   2   5
TORSDOF 4
ENDMDL
MODEL 3
REMARK VINA RESULT:      -3.3     18.500     19.090
REMARK  4 active torsions:
REMARK  status: ('A' for Active; 'I' for Inactive)
REMARK    1  A    between atoms: C_2  and  O_3 
REMARK    2  A    between atoms: C_2  and  C_4 
REMARK    3  A    between atoms: C_4  and  C_5 
REMARK    4  A    between atoms: C_5  and  O_6 
ROOT
HETATM    1  C   UNK N   1      21.026  12.873  10.477  0.00  0.00     0.039 C 
HETATM    2  C   UNK N   1      22.221  12.078  10.963  0.00  0.00     0.116 C 
ENDROOT
BRANCH   2   3
HETATM    3  O   UNK N   1      22.261  11.716  12.310  0.00  0.00    -0.396 OA
HETATM    4  H   UNK N   1      21.552  11.173  12.687  0.00  0.00     0.210 HD
ENDBRANCH   2   3
BRANCH   2   5
HETATM    5  C   UNK N   1      23.357  11.675  10.032  0.00  0.00     0.057 C 
BRANCH   5   6
HETATM    6  C   UNK N   1      24.598  12.513  10.286  0.00  0.00     0.166 C 
BRANCH   6   7
HETATM    7  O   UNK N   1      25.016  12.351  11.606  0.00  0.00    -0.401 OA
HETATM    8  H   UNK N   1      25.940  12.124  11.798  0.00  0.00     0.209 HD
ENDBRANCH   6   7
ENDBRANCH   5   6
ENDBRANCH   2   5
TORSDOF 4
ENDMDL
MODEL 4
REMARK VINA RESULT:      -3.2     10.859     11.286
REMARK  4 active torsions:
REMARK  status: ('A' for Active; 'I' for Inactive)
REMARK    1  A    between atoms: C_2  and  O_3 
REMARK    2  A    between atoms: C_2  and  C_4 
REMARK    3  A    between atoms: C_4  and  C_5 
REMARK    4  A    between atoms: C_5  and  O_6 
ROOT
HETATM    1  C   UNK N   1      23.274  19.492   3.538  0.00  0.00     0.039 C 
HETATM    2  C   UNK N   1      22.318  20.429   2.828  0.00  0.00     0.116 C 
ENDROOT
BRANCH   2   3
HETATM    3  O   UNK N   1      22.587  21.797   2.876  0.00  0.00    -0.396 OA
HETATM    4  H   UNK N   1      22.057  22.375   3.446  0.00  0.00     0.210 HD
ENDBRANCH   2   3
BRANCH   2   5
HETATM    5  C   UNK N   1      21.093  19.919   2.078  0.00  0.00     0.057 C 
BRANCH   5   6
HETATM    6  C   UNK N   1      20.465  21.021   1.243  0.00  0.00     0.166 C 
BRANCH   6   7
HETATM    7  O   UNK N   1      20.810  20.854  -0.097  0.00  0.00    -0.401 OA
HETATM    8  H   UNK N   1      21.360  21.518  -0.543  0.00  0.00     0.209 HD
ENDBRANCH   6   7
ENDBRANCH   5   6
ENDBRANCH   2   5
TORSDOF 4
ENDMDL
MODEL 5
REMARK VINA RESULT:      -3.2     18.779     19.170
REMARK  4 active torsions:
REMARK  status: ('A' for Active; 'I' for Inactive)
REMARK    1  A    between atoms: C_2  and  O_3 
REMARK    2  A    between atoms: C_2  and  C_4 
REMARK    3  A    between atoms: C_4  and  C_5 
REMARK    4  A    between atoms: C_5  and  O_6 
ROOT
HETATM    1  C   UNK N   1      23.222  11.884  13.131  0.00  0.00     0.039 C 
HETATM    2  C   UNK N   1      23.756  11.964  11.716  0.00  0.00     0.116 C 
ENDROOT
BRANCH   2   3
HETATM    3  O   UNK N   1      25.080  12.366  11.539  0.00  0.00    -0.396 OA
HETATM    4  H   UNK N   1      25.304  13.001  10.841  0.00  0.00     0.210 HD
ENDBRANCH   2   3
BRANCH   2   5
HETATM    5  C   UNK N   1      22.895  11.622  10.506  0.00  0.00     0.057 C 
BRANCH   5   6
HETATM    6  C   UNK N   1      21.602  12.418  10.511  0.00  0.00     0.166 C 
BRANCH   6   7
HETATM    7  O   UNK N   1      21.846  13.719  10.075  0.00  0.00    -0.401 OA
HETATM    8  H   UNK N   1      21.367  14.072   9.308  0.00  0.00     0.209 HD
ENDBRANCH   6   7
ENDBRANCH   5   6
ENDBRANCH   2   5
TORSDOF 4
ENDMDL
MODEL 6
REMARK VINA RESULT:      -3.0     12.192     12.961
REMARK  4 active torsions:
REMARK  status: ('A' for Active; 'I' for Inactive)
REMARK    1  A    between atoms: C_2  and  O_3 
REMARK    2  A    between atoms: C_2  and  C_4 
REMARK    3  A    between atoms: C_4  and  C_5 
REMARK    4  A    between atoms: C_5  and  O_6 
ROOT
HETATM    1  C   UNK N   1      44.756  21.802   4.020  0.00  0.00     0.039 C 
HETATM    2  C   UNK N   1      43.554  22.646   3.649  0.00  0.00     0.116 C 
ENDROOT
BRANCH   2   3
HETATM    3  O   UNK N   1      43.487  23.946   4.151  0.00  0.00    -0.396 OA
HETATM    4  H   UNK N   1      43.618  24.701   3.558  0.00  0.00     0.210 HD
ENDBRANCH   2   3
BRANCH   2   5
HETATM    5  C   UNK N   1      42.438  22.115   2.757  0.00  0.00     0.057 C 
BRANCH   5   6
HETATM    6  C   UNK N   1      42.122  23.091   1.637  0.00  0.00     0.166 C 
BRANCH   6   7
HETATM    7  O   UNK N   1      41.263  24.085   2.103  0.00  0.00    -0.401 OA
HETATM    8  H   UNK N   1      40.392  23.846   2.458  0.00  0.00     0.209 HD
ENDBRANCH   6   7
ENDBRANCH   5   6
ENDBRANCH   2   5
TORSDOF 4
ENDMDL
MODEL 7
REMARK VINA RESULT:      -2.9     12.268     12.402
REMARK  4 active torsions:
REMARK  status: ('A' for Active; 'I' for Inactive)
REMARK    1  A    between atoms: C_2  and  O_3 
REMARK    2  A    between atoms: C_2  and  C_4 
REMARK    3  A    between atoms: C_4  and  C_5 
REMARK    4  A    between atoms: C_5  and  O_6 
ROOT
HETATM    1  C   UNK N   1      31.819  17.861   8.455  0.00  0.00     0.039 C 
HETATM    2  C   UNK N   1      30.370  18.101   8.823  0.00  0.00     0.116 C 
ENDROOT
BRANCH   2   3
HETATM    3  O   UNK N   1      30.087  18.538  10.117  0.00  0.00    -0.396 OA
HETATM    4  H   UNK N   1      30.463  18.070  10.879  0.00  0.00     0.210 HD
ENDBRANCH   2   3
BRANCH   2   5
HETATM    5  C   UNK N   1      29.236  17.879   7.829  0.00  0.00     0.057 C 
BRANCH   5   6
HETATM    6  C   UNK N   1      28.061  18.796   8.125  0.00  0.00     0.166 C 
BRANCH   6   7
HETATM    7  O   UNK N   1      27.390  18.352   9.263  0.00  0.00    -0.401 OA
HETATM    8  H   UNK N   1      27.223  18.964   9.998  0.00  0.00     0.209 HD
ENDBRANCH   6   7
ENDBRANCH   5   6
ENDBRANCH   2   5
TORSDOF 4
ENDMDL
MODEL 8
REMARK VINA RESULT:      -2.9     13.829     14.456
REMARK  4 active torsions:
REMARK  status: ('A' for Active; 'I' for Inactive)
REMARK    1  A    between atoms: C_2  and  O_3 
REMARK    2  A    between atoms: C_2  and  C_4 
REMARK    3  A    between atoms: C_4  and  C_5 
REMARK    4  A    between atoms: C_5  and  O_6 
ROOT
HETATM    1  C   UNK N   1      43.536  21.540   3.885  0.00  0.00     0.039 C 
HETATM    2  C   UNK N   1      43.788  22.948   3.387  0.00  0.00     0.116 C 
ENDROOT
BRANCH   2   3
HETATM    3  O   UNK N   1      43.514  24.007   4.253  0.00  0.00    -0.396 OA
HETATM    4  H   UNK N   1      42.597  24.221   4.482  0.00  0.00     0.210 HD
ENDBRANCH   2   3
BRANCH   2   5
HETATM    5  C   UNK N   1      44.322  23.228   1.988  0.00  0.00     0.057 C 
BRANCH   5   6
HETATM    6  C   UNK N   1      45.263  24.420   1.988  0.00  0.00     0.166 C 
BRANCH   6   7
HETATM    7  O   UNK N   1      46.208  24.276   3.002  0.00  0.00    -0.401 OA
HETATM    8  H   UNK N   1      46.585  25.061   3.430  0.00  0.00     0.209 HD
ENDBRANCH   6   7
ENDBRANCH   5   6
ENDBRANCH   2   5
TORSDOF 4
ENDMDL
MODEL 9
REMARK VINA RESULT:      -2.8     18.177     18.796
REMARK  4 active torsions:
REMARK  status: ('A' for Active; 'I' for Inactive)
REMARK    1  A    between atoms: C_2  and  O_3 
REMARK    2  A    between atoms: C_2  and  C_4 
REMARK    3  A    between atoms: C_4  and  C_5 
REMARK    4  A    between atoms: C_5  and  O_6 
ROOT
HETATM    1  C   UNK N   1      22.028  12.311   8.578  0.00  0.00     0.039 C 
HETATM    2  C   UNK N   1      21.675  12.498  10.040  0.00  0.00     0.116 C 
ENDROOT
BRANCH   2   3
HETATM    3  O   UNK N   1      20.378  12.906  10.352  0.00  0.00    -0.396 OA
HETATM    4  H   UNK N   1      20.224  13.489  11.111  0.00  0.00     0.210 HD
ENDBRANCH   2   3
BRANCH   2   5
HETATM    5  C   UNK N   1      22.686  12.254  11.154  0.00  0.00     0.057 C 
BRANCH   5   6
HETATM    6  C   UNK N   1      24.097  12.159  10.601  0.00  0.00     0.166 C 
BRANCH   6   7
HETATM    7  O   UNK N   1      25.019  12.423  11.613  0.00  0.00    -0.401 OA
HETATM    8  H   UNK N   1      25.010  11.896  12.428  0.00  0.00     0.209 HD
ENDBRANCH   6   7
ENDBRANCH   5   6
ENDBRANCH   2   5
TORSDOF 4
ENDMDL
