MODEL 1
REMARK VINA RESULT:      -4.3      0.000      0.000
REMARK  2 active torsions:
REMARK  status: ('A' for Active; 'I' for Inactive)
REMARK    1  A    between atoms: N_1  and  C_2 
REMARK    2  A    between atoms: C_2  and  C_3 
ROOT
HETATM    1  C   UNK N   1      23.238  12.525  10.607  0.00  0.00    -0.041 A 
HETATM    2  C   UNK N   1      22.812  13.438   9.635  0.00  0.00     0.009 A 
HETATM    3  C   UNK N   1      21.457  13.761   9.516  0.00  0.00     0.001 A 
HETATM    4  C   UNK N   1      20.519  13.171  10.370  0.00  0.00     0.000 A 
HETATM    5  C   UNK N   1      20.937  12.259  11.342  0.00  0.00     0.001 A 
HETATM    6  C   UNK N   1      22.292  11.937  11.462  0.00  0.00     0.009 A 
ENDROOT
BRANCH   1   7
HETATM    7  C   UNK N   1      24.699  12.202  10.708  0.00  0.00     0.150 C 
BRANCH   7   8
HETATM    8  N   UNK N   1      25.531  13.394  10.615  0.00  0.00    -0.426 N 
HETATM    9  H   UNK N   1      25.200  14.207  10.095  0.00  0.00     0.150 HD
HETATM   10  H   UNK N   1      26.443  13.416  11.069  0.00  0.00     0.150 HD
ENDBRANCH   7   8
ENDBRANCH   1   7
TORSDOF 2
ENDMDL
MODEL 2
REMARK VINA RESULT:      -4.3      0.742      1.776
REMARK  2 active torsions:
REMARK  status: ('A' for Active; 'I' for Inactive)
REMARK    1  A    between atoms: N_1  and  C_2 
REMARK    2  A    between atoms: C_2  and  C_3 
ROOT
HETATM    1  C   UNK N   1      23.256  12.924  10.041  0.00  0.00    -0.041 A 
HETATM    2  C   UNK N   1      22.878  12.051  11.068  0.00  0.00     0.009 A 
HETATM    3  C   UNK N   1      21.539  11.963  11.462  0.00  0.00     0.001 A 
HETATM    4  C   UNK N   1      20.570  12.749  10.829  0.00  0.00     0.000 A 
HETATM    5  C   UNK N   1      20.940  13.621   9.804  0.00  0.00     0.001 A 
HETATM    6  C   UNK N   1      22.279  13.710   9.409  0.00  0.00     0.009 A 
ENDROOT
BRANCH   1   7
HETATM    7  C   UNK N   1      24.700  12.992   9.643  0.00  0.00     0.150 C 
BRANCH   7   8
HETATM    8  N   UNK N   1      25.559  13.350  10.763  0.00  0.00    -0.426 N 
HETATM    9  H   UNK N   1      26.059  12.624  11.275  0.00  0.00     0.150 HD
HETATM   10  H   UNK N   1      25.661  14.328  11.036  0.00  0.00     0.150 HD
ENDBRANCH   7   8
ENDBRANCH   1   7
TORSDOF 2
ENDMDL
MODEL 3
REMARK VINA RESULT:      -4.0     14.096     14.815
REMARK  2 active torsions:
REMARK  status: ('A' for Active; 'I' for Inactive)
REMARK    1  A    between atoms: N_1  and  C_2 
REMARK    2  A    between atoms: C_2  and  C_3 
ROOT
HETATM    1  C   UNK N   1      35.583  12.822  16.560  0.00  0.00    -0.041 A 
HETATM    2  C   UNK N   1      35.777  11.455  16.795  0.00  0.00     0.009 A 
HETATM    3  C   UNK N   1      35.651  10.937  18.087  0.00  0.00     0.001 A 
HETATM    4  C   UNK N   1      35.328  11.784  19.153  0.00  0.00     0.000 A 
HETATM    5  C   UNK N   1      35.133  13.147  18.926  0.00  0.00     0.001 A 
HETATM    6  C   UNK N   1      35.259  13.667  17.634  0.00  0.00     0.009 A 
ENDROOT
BRANCH   1   7
HETATM    7  C   UNK N   1      35.727  13.344  15.162  0.00  0.00     0.150 C 
BRANCH   7   8
HETATM    8  N   UNK N   1      37.050  13.900  14.919  0.00  0.00    -0.426 N 
HETATM    9  H   UNK N   1      37.609  13.561  14.136  0.00  0.00     0.150 HD
HETATM   10  H   UNK N   1      37.417  14.628  15.531  0.00  0.00     0.150 HD
ENDBRANCH   7   8
ENDBRANCH   1   7
TORSDOF 2
ENDMDL
MODEL 4
REMARK VINA RESULT:      -4.0     14.085     14.789
REMARK  2 active torsions:
REMARK  status: ('A' for Active; 'I' for Inactive)
REMARK    1  A    between atoms: N_1  and  C_2 
REMARK    2  A    between atoms: C_2  and  C_3 
ROOT
HETATM    1  C   UNK N   1      35.589  12.763  16.546  0.00  0.00    -0.041 A 
HETATM    2  C   UNK N   1      35.270  13.636  17.593  0.00  0.00     0.009 A 
HETATM    3  C   UNK N   1      35.142  13.153  18.899  0.00  0.00     0.001 A 
HETATM    4  C   UNK N   1      35.333  11.792  19.164  0.00  0.00     0.000 A 
HETATM    5  C   UNK N   1      35.651  10.917  18.125  0.00  0.00     0.001 A 
HETATM    6  C   UNK N   1      35.779  11.399  16.818  0.00  0.00     0.009 A 
ENDROOT
BRANCH   1   7
HETATM    7  C   UNK N   1      35.718  13.315  15.157  0.00  0.00     0.150 C 
BRANCH   7   8
HETATM    8  N   UNK N   1      37.052  13.837  14.898  0.00  0.00    -0.426 N 
HETATM    9  H   UNK N   1      37.408  13.874  13.943  0.00  0.00     0.150 HD
HETATM   10  H   UNK N   1      37.630  14.166  15.671  0.00  0.00     0.150 HD
ENDBRANCH   7   8
ENDBRANCH   1   7
TORSDOF 2
ENDMDL
MODEL 5
REMARK VINA RESULT:      -4.0     14.393     15.056
REMARK  2 active torsions:
REMARK  status: ('A' for Active; 'I' for Inactive)
REMARK    1  A    between atoms: N_1  and  C_2 
REMARK    2  A    between atoms: C_2  and  C_3 
ROOT
HETATM    1  C   UNK N   1      36.449  13.771  15.539  0.00  0.00    -0.041 A 
HETATM    2  C   UNK N   1      37.218  14.936  15.648  0.00  0.00     0.009 A 
HETATM    3  C   UNK N   1      37.146  15.722  16.802  0.00  0.00     0.001 A 
HETATM    4  C   UNK N   1      36.304  15.347  17.854  0.00  0.00     0.000 A 
HETATM    5  C   UNK N   1      35.534  14.187  17.751  0.00  0.00     0.001 A 
HETATM    6  C   UNK N   1      35.605  13.400  16.597  0.00  0.00     0.009 A 
ENDROOT
BRANCH   1   7
HETATM    7  C   UNK N   1      36.551  12.951  14.287  0.00  0.00     0.150 C 
BRANCH   7   8
HETATM    8  N   UNK N   1      36.937  13.755  13.136  0.00  0.00    -0.426 N 
HETATM    9  H   UNK N   1      37.923  13.892  12.918  0.00  0.00     0.150 HD
HETATM   10  H   UNK N   1      36.220  14.181  12.548  0.00  0.00     0.150 HD
ENDBRANCH   7   8
ENDBRANCH   1   7
TORSDOF 2
ENDMDL
MODEL 6
REMARK VINA RESULT:      -3.9     19.737     20.567
REMARK  2 active torsions:
REMARK  status: ('A' for Active; 'I' for Inactive)
REMARK    1  A    between atoms: N_1  and  C_2 
REMARK    2  A    between atoms: C_2  and  C_3 
ROOT
HETATM    1  C   UNK N   1      25.968  25.254  -4.927  0.00  0.00    -0.041 A 
HETATM    2  C   UNK N   1      26.463  25.767  -3.722  0.00  0.00     0.009 A 
HETATM    3  C   UNK N   1      26.213  27.096  -3.367  0.00  0.00     0.001 A 
HETATM    4  C   UNK N   1      25.466  27.920  -4.215  0.00  0.00     0.000 A 
HETATM    5  C   UNK N   1      24.969  27.414  -5.418  0.00  0.00     0.001 A 
HETATM    6  C   UNK N   1      25.218  26.085  -5.774  0.00  0.00     0.009 A 
ENDROOT
BRANCH   1   7
HETATM    7  C   UNK N   1      26.255  23.824  -5.277  0.00  0.00     0.150 C 
BRANCH   7   8
HETATM    8  N   UNK N   1      25.314  23.301  -6.257  0.00  0.00    -0.426 N 
HETATM    9  H   UNK N   1      24.507  23.858  -6.536  0.00  0.00     0.150 HD
HETATM   10  H   UNK N   1      25.461  22.377  -6.663  0.00  0.00     0.150 HD
ENDBRANCH   7   8
ENDBRANCH   1   7
TORSDOF 2
ENDMDL
MODEL 7
REMARK VINA RESULT:      -3.9     13.519     14.531
REMARK  2 active torsions:
REMARK  status: ('A' for Active; 'I' for Inactive)
REMARK    1  A    between atoms: N_1  and  C_2 
REMARK    2  A    between atoms: C_2  and  C_3 
ROOT
HETATM    1  C   UNK N   1      35.229  11.989  18.285  0.00  0.00    -0.041 A 
HETATM    2  C   UNK N   1      35.185  10.723  17.690  0.00  0.00     0.009 A 
HETATM    3  C   UNK N   1      34.913  10.594  16.325  0.00  0.00     0.001 A 
HETATM    4  C   UNK N   1      34.682  11.733  15.546  0.00  0.00     0.000 A 
HETATM    5  C   UNK N   1      34.724  12.999  16.133  0.00  0.00     0.001 A 
HETATM    6  C   UNK N   1      34.996  13.129  17.499  0.00  0.00     0.009 A 
ENDROOT
BRANCH   1   7
HETATM    7  C   UNK N   1      35.524  12.091  19.752  0.00  0.00     0.150 C 
BRANCH   7   8
HETATM    8  N   UNK N   1      34.857  13.230  20.367  0.00  0.00    -0.426 N 
HETATM    9  H   UNK N   1      35.408  13.963  20.813  0.00  0.00     0.150 HD
HETATM   10  H   UNK N   1      33.839  13.295  20.350  0.00  0.00     0.150 HD
ENDBRANCH   7   8
ENDBRANCH   1   7
TORSDOF 2
ENDMDL
MODEL 8
REMARK VINA RESULT:      -3.9     12.950     13.958
REMARK  2 active torsions:
REMARK  status: ('A' for Active; 'I' for Inactive)
REMARK    1  A    between atoms: N_1  and  C_2 
REMARK    2  A    between atoms: C_2  and  C_3 
ROOT
HETATM    1  C   UNK N   1      35.008  12.608  17.181  0.00  0.00    -0.041 A 
HETATM    2  C   UNK N   1      34.522  12.839  15.889  0.00  0.00     0.009 A 
HETATM    3  C   UNK N   1      34.236  11.765  15.040  0.00  0.00     0.001 A 
HETATM    4  C   UNK N   1      34.436  10.453  15.481  0.00  0.00     0.000 A 
HETATM    5  C   UNK N   1      34.920  10.215  16.769  0.00  0.00     0.001 A 
HETATM    6  C   UNK N   1      35.206  11.288  17.618  0.00  0.00     0.009 A 
ENDROOT
BRANCH   1   7
HETATM    7  C   UNK N   1      35.304  13.784  18.065  0.00  0.00     0.150 C 
BRANCH   7   8
HETATM    8  N   UNK N   1      35.190  13.449  19.477  0.00  0.00    -0.426 N 
HETATM    9  H   UNK N   1      34.281  13.487  19.939  0.00  0.00     0.150 HD
HETATM   10  H   UNK N   1      36.019  13.176  20.005  0.00  0.00     0.150 HD
ENDBRANCH   7   8
ENDBRANCH   1   7
TORSDOF 2
ENDMDL
MODEL 9
REMARK VINA RESULT:      -3.7      8.754      9.965
REMARK  2 active torsions:
REMARK  status: ('A' for Active; 'I' for Inactive)
REMARK    1  A    between atoms: N_1  and  C_2 
REMARK    2  A    between atoms: C_2  and  C_3 
ROOT
HETATM    1  C   UNK N   1      30.045  17.958   8.434  0.00  0.00    -0.041 A 
HETATM    2  C   UNK N   1      29.488  17.531   7.222  0.00  0.00     0.009 A 
HETATM    3  C   UNK N   1      30.313  17.079   6.187  0.00  0.00     0.001 A 
HETATM    4  C   UNK N   1      31.701  17.052   6.359  0.00  0.00     0.000 A 
HETATM    5  C   UNK N   1      32.263  17.476   7.565  0.00  0.00     0.001 A 
HETATM    6  C   UNK N   1      31.439  17.928   8.600  0.00  0.00     0.009 A 
ENDROOT
BRANCH   1   7
HETATM    7  C   UNK N   1      29.131  18.436   9.522  0.00  0.00     0.150 C 
BRANCH   7   8
HETATM    8  N   UNK N   1      27.737  18.436   9.105  0.00  0.00    -0.426 N 
HETATM    9  H   UNK N   1      27.419  19.088   8.387  0.00  0.00     0.150 HD
HETATM   10  H   UNK N   1      27.077  17.785   9.531  0.00  0.00     0.150 HD
ENDBRANCH   7   8
ENDBRANCH   1   7
TORSDOF 2
ENDMDL
