MODEL 1
REMARK VINA RESULT:      -4.4      0.000      0.000
REMARK  0 active torsions:
REMARK  status: ('A' for Active; 'I' for Inactive)
ROOT
HETATM    1  C   UNK N   1      26.939  26.720  -6.664  0.00  0.00     0.018 C 
HETATM    2  C   UNK N   1      24.721  27.176  -5.650  0.00  0.00     0.018 C 
HETATM    3  C   UNK N   1      26.462  25.227  -3.891  0.00  0.00     0.039 C 
HETATM    4  C   UNK N   1      28.175  28.476  -4.693  0.00  0.00     0.009 C 
HETATM    5  C   UNK N   1      28.189  27.082  -4.054  0.00  0.00     0.031 C 
HETATM    6  C   UNK N   1      25.981  28.855  -3.688  0.00  0.00     0.120 C 
HETATM    7  C   UNK N   1      26.691  28.675  -5.031  0.00  0.00     0.013 C 
HETATM    8  C   UNK N   1      26.232  27.285  -5.425  0.00  0.00    -0.018 C 
HETATM    9  C   UNK N   1      26.703  26.714  -4.094  0.00  0.00     0.029 C 
HETATM   10  N   UNK N   1      26.025  27.521  -3.073  0.00  0.00    -0.412 N 
HETATM   11  H   UNK N   1      25.671  27.228  -2.162  0.00  0.00     0.154 HD
ENDROOT
TORSDOF 0
ENDMDL
MODEL 2
REMARK VINA RESULT:      -4.2      1.152      2.142
REMARK  0 active torsions:
REMARK  status: ('A' for Active; 'I' for Inactive)
ROOT
HETATM    1  C   UNK N   1      24.613  27.159  -5.702  0.00  0.00     0.018 C 
HETATM    2  C   UNK N   1      25.701  28.029  -3.649  0.00  0.00     0.018 C 
HETATM    3  C   UNK N   1      26.421  25.011  -4.197  0.00  0.00     0.039 C 
HETATM    4  C   UNK N   1      27.173  27.294  -7.088  0.00  0.00     0.009 C 
HETATM    5  C   UNK N   1      27.121  25.890  -6.475  0.00  0.00     0.031 C 
HETATM    6  C   UNK N   1      28.220  28.094  -5.031  0.00  0.00     0.120 C 
HETATM    7  C   UNK N   1      26.944  28.200  -5.870  0.00  0.00     0.013 C 
HETATM    8  C   UNK N   1      25.966  27.409  -5.025  0.00  0.00    -0.018 C 
HETATM    9  C   UNK N   1      26.906  26.211  -4.993  0.00  0.00     0.029 C 
HETATM   10  N   UNK N   1      28.174  26.736  -4.471  0.00  0.00    -0.412 N 
HETATM   11  H   UNK N   1      28.854  26.273  -3.869  0.00  0.00     0.154 HD
ENDROOT
TORSDOF 0
ENDMDL
MODEL 3
REMARK VINA RESULT:      -4.2      1.005      2.893
REMARK  0 active torsions:
REMARK  status: ('A' for Active; 'I' for Inactive)
ROOT
HETATM    1  C   UNK N   1      27.421  28.131  -6.549  0.00  0.00     0.018 C 
HETATM    2  C   UNK N   1      28.687  27.459  -4.525  0.00  0.00     0.018 C 
HETATM    3  C   UNK N   1      26.205  29.275  -3.836  0.00  0.00     0.039 C 
HETATM    4  C   UNK N   1      25.332  26.223  -5.849  0.00  0.00     0.009 C 
HETATM    5  C   UNK N   1      24.923  27.534  -5.168  0.00  0.00     0.031 C 
HETATM    6  C   UNK N   1      26.581  25.628  -3.836  0.00  0.00     0.120 C 
HETATM    7  C   UNK N   1      26.752  25.994  -5.312  0.00  0.00     0.013 C 
HETATM    8  C   UNK N   1      27.317  27.397  -5.207  0.00  0.00    -0.018 C 
HETATM    9  C   UNK N   1      26.161  27.834  -4.317  0.00  0.00     0.029 C 
HETATM   10  N   UNK N   1      26.162  26.885  -3.197  0.00  0.00    -0.412 N 
HETATM   11  H   UNK N   1      25.931  27.055  -2.219  0.00  0.00     0.154 HD
ENDROOT
TORSDOF 0
ENDMDL
MODEL 4
REMARK VINA RESULT:      -4.2     25.177     26.623
REMARK  0 active torsions:
REMARK  status: ('A' for Active; 'I' for Inactive)
ROOT
HETATM    1  C   UNK N   1      36.380  10.691  16.539  0.00  0.00     0.018 C 
HETATM    2  C   UNK N   1      36.866  10.514  14.113  0.00  0.00     0.018 C 
HETATM    3  C   UNK N   1      33.787  10.842  14.695  0.00  0.00     0.039 C 
HETATM    4  C   UNK N   1      35.908  13.549  16.213  0.00  0.00     0.009 C 
HETATM    5  C   UNK N   1      34.542  12.889  15.994  0.00  0.00     0.031 C 
HETATM    6  C   UNK N   1      36.339  13.324  13.818  0.00  0.00     0.120 C 
HETATM    7  C   UNK N   1      36.797  12.826  15.191  0.00  0.00     0.013 C 
HETATM    8  C   UNK N   1      36.251  11.411  15.192  0.00  0.00    -0.018 C 
HETATM    9  C   UNK N   1      34.853  11.914  14.855  0.00  0.00     0.029 C 
HETATM   10  N   UNK N   1      35.017  12.708  13.632  0.00  0.00    -0.412 N 
HETATM   11  H   UNK N   1      34.374  12.807  12.847  0.00  0.00     0.154 HD
ENDROOT
TORSDOF 0
ENDMDL
MODEL 5
REMARK VINA RESULT:      -4.1     16.288     17.818
REMARK  0 active torsions:
REMARK  status: ('A' for Active; 'I' for Inactive)
ROOT
HETATM    1  C   UNK N   1      33.088  17.238   5.738  0.00  0.00     0.018 C 
HETATM    2  C   UNK N   1      34.678  15.685   6.840  0.00  0.00     0.018 C 
HETATM    3  C   UNK N   1      34.572  18.495   8.260  0.00  0.00     0.039 C 
HETATM    4  C   UNK N   1      31.212  16.839   7.934  0.00  0.00     0.009 C 
HETATM    5  C   UNK N   1      32.076  18.034   8.354  0.00  0.00     0.031 C 
HETATM    6  C   UNK N   1      32.828  15.360   9.015  0.00  0.00     0.120 C 
HETATM    7  C   UNK N   1      32.259  15.753   7.650  0.00  0.00     0.013 C 
HETATM    8  C   UNK N   1      33.418  16.529   7.057  0.00  0.00    -0.018 C 
HETATM    9  C   UNK N   1      33.483  17.434   8.280  0.00  0.00     0.029 C 
HETATM   10  N   UNK N   1      33.631  16.523   9.421  0.00  0.00    -0.412 N 
HETATM   11  H   UNK N   1      34.160  16.662  10.282  0.00  0.00     0.154 HD
ENDROOT
TORSDOF 0
ENDMDL
MODEL 6
REMARK VINA RESULT:      -4.1     25.122     26.696
REMARK  0 active torsions:
REMARK  status: ('A' for Active; 'I' for Inactive)
ROOT
HETATM    1  C   UNK N   1      34.748  13.146  16.575  0.00  0.00     0.018 C 
HETATM    2  C   UNK N   1      35.927  10.991  16.919  0.00  0.00     0.018 C 
HETATM    3  C   UNK N   1      33.754  10.816  14.644  0.00  0.00     0.039 C 
HETATM    4  C   UNK N   1      36.270  13.561  14.124  0.00  0.00     0.009 C 
HETATM    5  C   UNK N   1      35.006  12.809  13.690  0.00  0.00     0.031 C 
HETATM    6  C   UNK N   1      37.369  11.406  14.468  0.00  0.00     0.120 C 
HETATM    7  C   UNK N   1      36.851  12.642  15.207  0.00  0.00     0.013 C 
HETATM    8  C   UNK N   1      35.619  12.085  15.892  0.00  0.00    -0.018 C 
HETATM    9  C   UNK N   1      35.080  11.557  14.569  0.00  0.00     0.029 C 
HETATM   10  N   UNK N   1      36.150  10.708  14.032  0.00  0.00    -0.412 N 
HETATM   11  H   UNK N   1      36.069   9.847  13.492  0.00  0.00     0.154 HD
ENDROOT
TORSDOF 0
ENDMDL
MODEL 7
REMARK VINA RESULT:      -4.1     16.484     18.117
REMARK  0 active torsions:
REMARK  status: ('A' for Active; 'I' for Inactive)
ROOT
HETATM    1  C   UNK N   1      33.569  17.517   6.018  0.00  0.00     0.018 C 
HETATM    2  C   UNK N   1      34.545  18.437   8.105  0.00  0.00     0.018 C 
HETATM    3  C   UNK N   1      31.503  17.688   8.437  0.00  0.00     0.039 C 
HETATM    4  C   UNK N   1      33.631  14.849   7.192  0.00  0.00     0.009 C 
HETATM    5  C   UNK N   1      32.261  15.423   7.571  0.00  0.00     0.031 C 
HETATM    6  C   UNK N   1      34.539  15.801   9.251  0.00  0.00     0.120 C 
HETATM    7  C   UNK N   1      34.600  15.914   7.726  0.00  0.00     0.013 C 
HETATM    8  C   UNK N   1      33.854  17.213   7.494  0.00  0.00    -0.018 C 
HETATM    9  C   UNK N   1      32.660  16.712   8.296  0.00  0.00     0.029 C 
HETATM   10  N   UNK N   1      33.212  16.327   9.600  0.00  0.00    -0.412 N 
HETATM   11  H   UNK N   1      32.781  16.406  10.521  0.00  0.00     0.154 HD
ENDROOT
TORSDOF 0
ENDMDL
MODEL 8
REMARK VINA RESULT:      -4.1     16.661     17.656
REMARK  0 active torsions:
REMARK  status: ('A' for Active; 'I' for Inactive)
ROOT
HETATM    1  C   UNK N   1      31.250  16.504   6.630  0.00  0.00     0.018 C 
HETATM    2  C   UNK N   1      31.339  18.071   8.551  0.00  0.00     0.018 C 
HETATM    3  C   UNK N   1      32.282  15.167   9.331  0.00  0.00     0.039 C 
HETATM    4  C   UNK N   1      34.154  16.633   6.418  0.00  0.00     0.009 C 
HETATM    5  C   UNK N   1      33.872  15.467   7.373  0.00  0.00     0.031 C 
HETATM    6  C   UNK N   1      34.206  18.130   8.349  0.00  0.00     0.120 C 
HETATM    7  C   UNK N   1      33.410  17.799   7.084  0.00  0.00     0.013 C 
HETATM    8  C   UNK N   1      32.179  17.138   7.672  0.00  0.00    -0.018 C 
HETATM    9  C   UNK N   1      33.038  16.155   8.457  0.00  0.00     0.029 C 
HETATM   10  N   UNK N   1      33.951  16.993   9.245  0.00  0.00    -0.412 N 
HETATM   11  H   UNK N   1      34.317  16.827  10.182  0.00  0.00     0.154 HD
ENDROOT
TORSDOF 0
ENDMDL
MODEL 9
REMARK VINA RESULT:      -4.1      2.041      3.217
REMARK  0 active torsions:
REMARK  status: ('A' for Active; 'I' for Inactive)
ROOT
HETATM    1  C   UNK N   1      26.923  28.009  -5.986  0.00  0.00     0.018 C 
HETATM    2  C   UNK N   1      24.608  27.175  -5.671  0.00  0.00     0.018 C 
HETATM    3  C   UNK N   1      25.901  26.131  -8.348  0.00  0.00     0.039 C 
HETATM    4  C   UNK N   1      27.945  25.370  -5.286  0.00  0.00     0.009 C 
HETATM    5  C   UNK N   1      27.757  25.338  -6.807  0.00  0.00     0.031 C 
HETATM    6  C   UNK N   1      25.649  24.571  -5.040  0.00  0.00     0.120 C 
HETATM    7  C   UNK N   1      26.553  25.780  -4.785  0.00  0.00     0.013 C 
HETATM    8  C   UNK N   1      26.067  26.744  -5.850  0.00  0.00    -0.018 C 
HETATM    9  C   UNK N   1      26.275  25.700  -6.939  0.00  0.00     0.029 C 
HETATM   10  N   UNK N   1      25.499  24.533  -6.502  0.00  0.00    -0.412 N 
HETATM   11  H   UNK N   1      24.983  23.862  -7.071  0.00  0.00     0.154 HD
ENDROOT
TORSDOF 0
ENDMDL
