MODEL 1
REMARK VINA RESULT:      -4.6      0.000      0.000
REMARK  8 active torsions:
REMARK  status: ('A' for Active; 'I' for Inactive)
REMARK    1  A    between atoms: C_2  and  C_1 
REMARK    2  A    between atoms: C_3  and  C_1 
REMARK    3  A    between atoms: C_4  and  C_2 
REMARK    4  A    between atoms: C_5  and  C_3 
REMARK    5  A    between atoms: O_8  and  C_4 
REMARK    6  A    between atoms: C_6  and  C_5 
REMARK    7  A    between atoms: C_5  and  N_7 
REMARK    8  A    between atoms: O_10  and  C_6 
ROOT
HETATM    1  C   UNK N   1      33.054  17.807   8.648  0.00  0.00     0.173 C 
ENDROOT
BRANCH   1   2
HETATM    2  C   UNK N   1      31.870  17.493   7.735  0.00  0.00     0.035 C 
BRANCH   2   3
HETATM    3  C   UNK N   1      30.601  17.233   8.538  0.00  0.00     0.004 C 
BRANCH   3   4
HETATM    4  C   UNK N   1      29.975  18.532   9.007  0.00  0.00     0.026 C 
BRANCH   4   5
HETATM    5  C   UNK N   1      28.562  18.655   8.469  0.00  0.00     0.164 C 
BRANCH   5   6
HETATM    6  O   UNK N   1      27.662  18.148   9.406  0.00  0.00    -0.401 OA
HETATM    7  H   UNK N   1      27.236  17.286   9.280  0.00  0.00     0.209 HD
ENDBRANCH   5   6
ENDBRANCH   4   5
ENDBRANCH   3   4
ENDBRANCH   2   3
ENDBRANCH   1   2
BRANCH   1   8
HETATM    8  C   UNK N   1      34.253  18.300   7.869  0.00  0.00     0.163 C 
HETATM    9  O   UNK N   1      35.032  19.098   8.368  0.00  0.00    -0.648 OA
BRANCH   8  10
HETATM   10  O   UNK N   1      34.457  17.879   6.605  0.00  0.00    -0.775 OA
HETATM   11  H   UNK N   1      34.596  18.446   5.872  0.00  0.00     0.167 HD
ENDBRANCH   8  10
ENDBRANCH   1   8
BRANCH   1  12
HETATM   12  N   UNK N   1      33.394  16.606   9.395  0.00  0.00    -0.418 N 
HETATM   13  H   UNK N   1      32.867  15.733   9.392  0.00  0.00     0.150 HD
HETATM   14  H   UNK N   1      34.234  16.641   9.972  0.00  0.00     0.150 HD
ENDBRANCH   1  12
TORSDOF 8
ENDMDL
MODEL 2
REMARK VINA RESULT:      -4.5      3.642      5.577
REMARK  8 active torsions:
REMARK  status: ('A' for Active; 'I' for Inactive)
REMARK    1  A    between atoms: C_2  and  C_1 
REMARK    2  A    between atoms: C_3  and  C_1 
REMARK    3  A    between atoms: C_4  and  C_2 
REMARK    4  A    between atoms: C_5  and  C_3 
REMARK    5  A    between atoms: O_8  and  C_4 
REMARK    6  A    between atoms: C_6  and  C_5 
REMARK    7  A    between atoms: C_5  and  N_7 
REMARK    8  A    between atoms: O_10  and  C_6 
ROOT
HETATM    1  C   UNK N   1      34.188  17.176   9.110  0.00  0.00     0.173 C 
ENDROOT
BRANCH   1   2
HETATM    2  C   UNK N   1      34.383  15.771   8.542  0.00  0.00     0.035 C 
BRANCH   2   3
HETATM    3  C   UNK N   1      35.060  14.852   9.551  0.00  0.00     0.004 C 
BRANCH   3   4
HETATM    4  C   UNK N   1      36.352  14.284   8.994  0.00  0.00     0.026 C 
BRANCH   4   5
HETATM    5  C   UNK N   1      37.478  14.474   9.992  0.00  0.00     0.164 C 
BRANCH   5   6
HETATM    6  O   UNK N   1      37.303  15.682  10.666  0.00  0.00    -0.401 OA
HETATM    7  H   UNK N   1      36.478  15.882  11.135  0.00  0.00     0.209 HD
ENDBRANCH   5   6
ENDBRANCH   4   5
ENDBRANCH   3   4
ENDBRANCH   2   3
ENDBRANCH   1   2
BRANCH   1   8
HETATM    8  C   UNK N   1      34.664  18.244   8.151  0.00  0.00     0.163 C 
HETATM    9  O   UNK N   1      34.447  18.145   6.954  0.00  0.00    -0.648 OA
BRANCH   8  10
HETATM   10  O   UNK N   1      35.355  19.306   8.612  0.00  0.00    -0.775 OA
HETATM   11  H   UNK N   1      35.847  19.894   8.074  0.00  0.00     0.167 HD
ENDBRANCH   8  10
ENDBRANCH   1   8
BRANCH   1  12
HETATM   12  N   UNK N   1      34.907  17.270  10.371  0.00  0.00    -0.418 N 
HETATM   13  H   UNK N   1      35.839  16.897  10.555  0.00  0.00     0.150 HD
HETATM   14  H   UNK N   1      34.439  17.750  11.139  0.00  0.00     0.150 HD
ENDBRANCH   1  12
TORSDOF 8
ENDMDL
MODEL 3
REMARK VINA RESULT:      -4.4      3.731      4.764
REMARK  8 active torsions:
REMARK  status: ('A' for Active; 'I' for Inactive)
REMARK    1  A    between atoms: C_2  and  C_1 
REMARK    2  A    between atoms: C_3  and  C_1 
REMARK    3  A    between atoms: C_4  and  C_2 
REMARK    4  A    between atoms: C_5  and  C_3 
REMARK    5  A    between atoms: O_8  and  C_4 
REMARK    6  A    between atoms: C_6  and  C_5 
REMARK    7  A    between atoms: C_5  and  N_7 
REMARK    8  A    between atoms: O_10  and  C_6 
ROOT
HETATM    1  C   UNK N   1      34.544  17.044   9.031  0.00  0.00     0.173 C 
ENDROOT
BRANCH   1   2
HETATM    2  C   UNK N   1      35.325  17.163  10.339  0.00  0.00     0.035 C 
BRANCH   2   3
HETATM    3  C   UNK N   1      36.157  15.914  10.606  0.00  0.00     0.004 C 
BRANCH   3   4
HETATM    4  C   UNK N   1      35.674  15.189  11.848  0.00  0.00     0.026 C 
BRANCH   4   5
HETATM    5  C   UNK N   1      34.673  14.115  11.468  0.00  0.00     0.164 C 
BRANCH   5   6
HETATM    6  O   UNK N   1      33.400  14.678  11.373  0.00  0.00    -0.401 OA
HETATM    7  H   UNK N   1      32.629  14.141  11.135  0.00  0.00     0.209 HD
ENDBRANCH   5   6
ENDBRANCH   4   5
ENDBRANCH   3   4
ENDBRANCH   2   3
ENDBRANCH   1   2
BRANCH   1   8
HETATM    8  C   UNK N   1      34.774  18.232   8.125  0.00  0.00     0.163 C 
HETATM    9  O   UNK N   1      35.290  19.251   8.557  0.00  0.00    -0.648 OA
BRANCH   8  10
HETATM   10  O   UNK N   1      34.388  18.183   6.835  0.00  0.00    -0.775 OA
HETATM   11  H   UNK N   1      33.507  18.305   6.538  0.00  0.00     0.167 HD
ENDBRANCH   8  10
ENDBRANCH   1   8
BRANCH   1  12
HETATM   12  N   UNK N   1      33.130  16.914   9.347  0.00  0.00    -0.418 N 
HETATM   13  H   UNK N   1      32.462  17.681   9.418  0.00  0.00     0.150 HD
HETATM   14  H   UNK N   1      32.775  15.972   9.512  0.00  0.00     0.150 HD
ENDBRANCH   1  12
TORSDOF 8
ENDMDL
MODEL 4
REMARK VINA RESULT:      -4.4      3.643      4.580
REMARK  8 active torsions:
REMARK  status: ('A' for Active; 'I' for Inactive)
REMARK    1  A    between atoms: C_2  and  C_1 
REMARK    2  A    between atoms: C_3  and  C_1 
REMARK    3  A    between atoms: C_4  and  C_2 
REMARK    4  A    between atoms: C_5  and  C_3 
REMARK    5  A    between atoms: O_8  and  C_4 
REMARK    6  A    between atoms: C_6  and  C_5 
REMARK    7  A    between atoms: C_5  and  N_7 
REMARK    8  A    between atoms: O_10  and  C_6 
ROOT
HETATM    1  C   UNK N   1      34.206  17.105   9.029  0.00  0.00     0.173 C 
ENDROOT
BRANCH   1   2
HETATM    2  C   UNK N   1      34.475  15.729   8.421  0.00  0.00     0.035 C 
BRANCH   2   3
HETATM    3  C   UNK N   1      33.684  14.640   9.136  0.00  0.00     0.004 C 
BRANCH   3   4
HETATM    4  C   UNK N   1      34.589  13.504   9.574  0.00  0.00     0.026 C 
BRANCH   4   5
HETATM    5  C   UNK N   1      34.871  13.606  11.061  0.00  0.00     0.164 C 
BRANCH   5   6
HETATM    6  O   UNK N   1      33.960  14.484  11.648  0.00  0.00    -0.401 OA
HETATM    7  H   UNK N   1      33.968  15.432  11.440  0.00  0.00     0.209 HD
ENDBRANCH   5   6
ENDBRANCH   4   5
ENDBRANCH   3   4
ENDBRANCH   2   3
ENDBRANCH   1   2
BRANCH   1   8
HETATM    8  C   UNK N   1      34.655  18.224   8.116  0.00  0.00     0.163 C 
HETATM    9  O   UNK N   1      35.255  19.188   8.565  0.00  0.00    -0.648 OA
BRANCH   8  10
HETATM   10  O   UNK N   1      34.373  18.175   6.799  0.00  0.00    -0.775 OA
HETATM   11  H   UNK N   1      34.668  17.504   6.216  0.00  0.00     0.167 HD
ENDBRANCH   8  10
ENDBRANCH   1   8
BRANCH   1  12
HETATM   12  N   UNK N   1      34.894  17.188  10.308  0.00  0.00    -0.418 N 
HETATM   13  H   UNK N   1      35.853  17.503  10.450  0.00  0.00     0.150 HD
HETATM   14  H   UNK N   1      34.370  16.907  11.136  0.00  0.00     0.150 HD
ENDBRANCH   1  12
TORSDOF 8
ENDMDL
MODEL 5
REMARK VINA RESULT:      -4.4     10.680     11.293
REMARK  8 active torsions:
REMARK  status: ('A' for Active; 'I' for Inactive)
REMARK    1  A    between atoms: C_2  and  C_1 
REMARK    2  A    between atoms: C_3  and  C_1 
REMARK    3  A    between atoms: C_4  and  C_2 
REMARK    4  A    between atoms: C_5  and  C_3 
REMARK    5  A    between atoms: O_8  and  C_4 
REMARK    6  A    between atoms: C_6  and  C_5 
REMARK    7  A    between atoms: C_5  and  N_7 
REMARK    8  A    between atoms: O_10  and  C_6 
ROOT
HETATM    1  C   UNK N   1      24.120  11.794  11.111  0.00  0.00     0.173 C 
ENDROOT
BRANCH   1   2
HETATM    2  C   UNK N   1      23.291  11.780   9.827  0.00  0.00     0.035 C 
BRANCH   2   3
HETATM    3  C   UNK N   1      22.981  13.193   9.348  0.00  0.00     0.004 C 
BRANCH   3   4
HETATM    4  C   UNK N   1      21.572  13.287   8.794  0.00  0.00     0.026 C 
BRANCH   4   5
HETATM    5  C   UNK N   1      20.665  13.980   9.793  0.00  0.00     0.164 C 
BRANCH   5   6
HETATM    6  O   UNK N   1      19.921  13.025  10.486  0.00  0.00    -0.401 OA
HETATM    7  H   UNK N   1      20.125  12.079  10.414  0.00  0.00     0.209 HD
ENDBRANCH   5   6
ENDBRANCH   4   5
ENDBRANCH   3   4
ENDBRANCH   2   3
ENDBRANCH   1   2
BRANCH   1   8
HETATM    8  C   UNK N   1      23.252  11.908  12.344  0.00  0.00     0.163 C 
HETATM    9  O   UNK N   1      23.749  12.151  13.432  0.00  0.00    -0.648 OA
BRANCH   8  10
HETATM   10  O   UNK N   1      21.921  11.716  12.253  0.00  0.00    -0.775 OA
HETATM   11  H   UNK N   1      21.418  11.841  11.472  0.00  0.00     0.167 HD
ENDBRANCH   8  10
ENDBRANCH   1   8
BRANCH   1  12
HETATM   12  N   UNK N   1      25.055  12.907  11.045  0.00  0.00    -0.418 N 
HETATM   13  H   UNK N   1      25.935  12.917  10.529  0.00  0.00     0.150 HD
HETATM   14  H   UNK N   1      24.808  13.752  11.560  0.00  0.00     0.150 HD
ENDBRANCH   1  12
TORSDOF 8
ENDMDL
MODEL 6
REMARK VINA RESULT:      -4.3     11.164     12.544
REMARK  8 active torsions:
REMARK  status: ('A' for Active; 'I' for Inactive)
REMARK    1  A    between atoms: C_2  and  C_1 
REMARK    2  A    between atoms: C_3  and  C_1 
REMARK    3  A    between atoms: C_4  and  C_2 
REMARK    4  A    between atoms: C_5  and  C_3 
REMARK    5  A    between atoms: O_8  and  C_4 
REMARK    6  A    between atoms: C_6  and  C_5 
REMARK    7  A    between atoms: C_5  and  N_7 
REMARK    8  A    between atoms: O_10  and  C_6 
ROOT
HETATM    1  C   UNK N   1      20.440  18.984   2.318  0.00  0.00     0.173 C 
ENDROOT
BRANCH   1   2
HETATM    2  C   UNK N   1      20.941  19.196   3.746  0.00  0.00     0.035 C 
BRANCH   2   3
HETATM    3  C   UNK N   1      22.265  18.479   3.984  0.00  0.00     0.004 C 
BRANCH   3   4
HETATM    4  C   UNK N   1      22.473  18.189   5.458  0.00  0.00     0.026 C 
BRANCH   4   5
HETATM    5  C   UNK N   1      21.140  17.928   6.132  0.00  0.00     0.164 C 
BRANCH   5   6
HETATM    6  O   UNK N   1      20.977  18.814   7.198  0.00  0.00    -0.401 OA
HETATM    7  H   UNK N   1      21.314  18.605   8.082  0.00  0.00     0.209 HD
ENDBRANCH   5   6
ENDBRANCH   4   5
ENDBRANCH   3   4
ENDBRANCH   2   3
ENDBRANCH   1   2
BRANCH   1   8
HETATM    8  C   UNK N   1      20.802  20.142   1.415  0.00  0.00     0.163 C 
HETATM    9  O   UNK N   1      21.221  21.188   1.884  0.00  0.00    -0.648 OA
BRANCH   8  10
HETATM   10  O   UNK N   1      20.640  20.034   0.081  0.00  0.00    -0.775 OA
HETATM   11  H   UNK N   1      19.981  20.481  -0.413  0.00  0.00     0.167 HD
ENDBRANCH   8  10
ENDBRANCH   1   8
BRANCH   1  12
HETATM   12  N   UNK N   1      18.998  18.803   2.356  0.00  0.00    -0.418 N 
HETATM   13  H   UNK N   1      18.380  19.093   3.114  0.00  0.00     0.150 HD
HETATM   14  H   UNK N   1      18.566  18.345   1.554  0.00  0.00     0.150 HD
ENDBRANCH   1  12
TORSDOF 8
ENDMDL
MODEL 7
REMARK VINA RESULT:      -4.2      1.604      5.338
REMARK  8 active torsions:
REMARK  status: ('A' for Active; 'I' for Inactive)
REMARK    1  A    between atoms: C_2  and  C_1 
REMARK    2  A    between atoms: C_3  and  C_1 
REMARK    3  A    between atoms: C_4  and  C_2 
REMARK    4  A    between atoms: C_5  and  C_3 
REMARK    5  A    between atoms: O_8  and  C_4 
REMARK    6  A    between atoms: C_6  and  C_5 
REMARK    7  A    between atoms: C_5  and  N_7 
REMARK    8  A    between atoms: O_10  and  C_6 
ROOT
HETATM    1  C   UNK N   1      29.700  17.297   9.007  0.00  0.00     0.173 C 
ENDROOT
BRANCH   1   2
HETATM    2  C   UNK N   1      30.706  17.388   7.861  0.00  0.00     0.035 C 
BRANCH   2   3
HETATM    3  C   UNK N   1      32.126  17.123   8.344  0.00  0.00     0.004 C 
BRANCH   3   4
HETATM    4  C   UNK N   1      33.049  18.273   7.986  0.00  0.00     0.026 C 
BRANCH   4   5
HETATM    5  C   UNK N   1      34.477  17.934   8.370  0.00  0.00     0.164 C 
BRANCH   5   6
HETATM    6  O   UNK N   1      35.221  19.109   8.475  0.00  0.00    -0.401 OA
HETATM    7  H   UNK N   1      36.010  19.256   7.931  0.00  0.00     0.209 HD
ENDBRANCH   5   6
ENDBRANCH   4   5
ENDBRANCH   3   4
ENDBRANCH   2   3
ENDBRANCH   1   2
BRANCH   1   8
HETATM    8  C   UNK N   1      28.275  17.453   8.524  0.00  0.00     0.163 C 
HETATM    9  O   UNK N   1      27.945  17.043   7.422  0.00  0.00    -0.648 OA
BRANCH   8  10
HETATM   10  O   UNK N   1      27.363  18.071   9.300  0.00  0.00    -0.775 OA
HETATM   11  H   UNK N   1      27.067  18.952   9.175  0.00  0.00     0.167 HD
ENDBRANCH   8  10
ENDBRANCH   1   8
BRANCH   1  12
HETATM   12  N   UNK N   1      30.019  18.325   9.986  0.00  0.00    -0.418 N 
HETATM   13  H   UNK N   1      30.762  18.275  10.682  0.00  0.00     0.150 HD
HETATM   14  H   UNK N   1      29.449  19.171   9.973  0.00  0.00     0.150 HD
ENDBRANCH   1  12
TORSDOF 8
ENDMDL
MODEL 8
REMARK VINA RESULT:      -4.2     12.823     13.549
REMARK  8 active torsions:
REMARK  status: ('A' for Active; 'I' for Inactive)
REMARK    1  A    between atoms: C_2  and  C_1 
REMARK    2  A    between atoms: C_3  and  C_1 
REMARK    3  A    between atoms: C_4  and  C_2 
REMARK    4  A    between atoms: C_5  and  C_3 
REMARK    5  A    between atoms: O_8  and  C_4 
REMARK    6  A    between atoms: C_6  and  C_5 
REMARK    7  A    between atoms: C_5  and  N_7 
REMARK    8  A    between atoms: O_10  and  C_6 
ROOT
HETATM    1  C   UNK N   1      20.894  19.612   1.940  0.00  0.00     0.173 C 
ENDROOT
BRANCH   1   2
HETATM    2  C   UNK N   1      19.905  18.526   2.362  0.00  0.00     0.035 C 
BRANCH   2   3
HETATM    3  C   UNK N   1      20.626  17.262   2.815  0.00  0.00     0.004 C 
BRANCH   3   4
HETATM    4  C   UNK N   1      20.644  16.218   1.716  0.00  0.00     0.026 C 
BRANCH   4   5
HETATM    5  C   UNK N   1      19.658  16.592   0.625  0.00  0.00     0.164 C 
BRANCH   5   6
HETATM    6  O   UNK N   1      20.341  17.190  -0.433  0.00  0.00    -0.401 OA
HETATM    7  H   UNK N   1      20.402  16.761  -1.301  0.00  0.00     0.209 HD
ENDBRANCH   5   6
ENDBRANCH   4   5
ENDBRANCH   3   4
ENDBRANCH   2   3
ENDBRANCH   1   2
BRANCH   1   8
HETATM    8  C   UNK N   1      20.971  20.731   2.955  0.00  0.00     0.163 C 
HETATM    9  O   UNK N   1      20.313  20.684   3.983  0.00  0.00    -0.648 OA
BRANCH   8  10
HETATM   10  O   UNK N   1      21.753  21.803   2.720  0.00  0.00    -0.775 OA
HETATM   11  H   UNK N   1      21.640  22.396   2.003  0.00  0.00     0.167 HD
ENDBRANCH   8  10
ENDBRANCH   1   8
BRANCH   1  12
HETATM   12  N   UNK N   1      20.485  20.132   0.644  0.00  0.00    -0.418 N 
HETATM   13  H   UNK N   1      20.424  21.117   0.389  0.00  0.00     0.150 HD
HETATM   14  H   UNK N   1      20.240  19.449  -0.073  0.00  0.00     0.150 HD
ENDBRANCH   1  12
TORSDOF 8
ENDMDL
MODEL 9
REMARK VINA RESULT:      -4.1     12.236     13.098
REMARK  8 active torsions:
REMARK  status: ('A' for Active; 'I' for Inactive)
REMARK    1  A    between atoms: C_2  and  C_1 
REMARK    2  A    between atoms: C_3  and  C_1 
REMARK    3  A    between atoms: C_4  and  C_2 
REMARK    4  A    between atoms: C_5  and  C_3 
REMARK    5  A    between atoms: O_8  and  C_4 
REMARK    6  A    between atoms: C_6  and  C_5 
REMARK    7  A    between atoms: C_5  and  N_7 
REMARK    8  A    between atoms: O_10  and  C_6 
ROOT
HETATM    1  C   UNK N   1      29.929  23.320  -3.623  0.00  0.00     0.173 C 
ENDROOT
BRANCH   1   2
HETATM    2  C   UNK N   1      29.932  22.014  -4.416  0.00  0.00     0.035 C 
BRANCH   2   3
HETATM    3  C   UNK N   1      30.673  20.911  -3.670  0.00  0.00     0.004 C 
BRANCH   3   4
HETATM    4  C   UNK N   1      32.052  20.682  -4.259  0.00  0.00     0.026 C 
BRANCH   4   5
HETATM    5  C   UNK N   1      33.117  21.200  -3.312  0.00  0.00     0.164 C 
BRANCH   5   6
HETATM    6  O   UNK N   1      32.638  21.152  -2.003  0.00  0.00    -0.401 OA
HETATM    7  H   UNK N   1      33.150  20.733  -1.294  0.00  0.00     0.209 HD
ENDBRANCH   5   6
ENDBRANCH   4   5
ENDBRANCH   3   4
ENDBRANCH   2   3
ENDBRANCH   1   2
BRANCH   1   8
HETATM    8  C   UNK N   1      29.559  23.101  -2.174  0.00  0.00     0.163 C 
HETATM    9  O   UNK N   1      30.427  23.011  -1.319  0.00  0.00    -0.648 OA
BRANCH   8  10
HETATM   10  O   UNK N   1      28.266  22.980  -1.817  0.00  0.00    -0.775 OA
HETATM   11  H   UNK N   1      27.692  22.304  -2.119  0.00  0.00     0.167 HD
ENDBRANCH   8  10
ENDBRANCH   1   8
BRANCH   1  12
HETATM   12  N   UNK N   1      28.993  24.240  -4.251  0.00  0.00    -0.418 N 
HETATM   13  H   UNK N   1      28.208  23.977  -4.847  0.00  0.00     0.150 HD
HETATM   14  H   UNK N   1      29.134  25.235  -4.081  0.00  0.00     0.150 HD
ENDBRANCH   1  12
TORSDOF 8
ENDMDL
