MODEL 1
REMARK VINA RESULT:      -4.1      0.000      0.000
REMARK  3 active torsions:
REMARK  status: ('A' for Active; 'I' for Inactive)
REMARK    1  A    between atoms: N_1  and  C_2 
REMARK    2  A    between atoms: C_2  and  C_5 
REMARK    3  A    between atoms: C_5  and  O_6 
ROOT
HETATM    1  C   UNK N   1      22.548  12.200  11.361  0.00  0.00     0.110 A 
HETATM    2  C   UNK N   1      22.573  13.050  10.106  0.00  0.00     0.044 A 
HETATM    3  C   UNK N   1      22.857  11.561  10.020  0.00  0.00     0.044 A 
ENDROOT
BRANCH   1   4
HETATM    4  N   UNK N   1      21.253  11.755  11.839  0.00  0.00    -0.413 N 
HETATM    5  H   UNK N   1      20.317  12.012  11.528  0.00  0.00     0.151 HD
HETATM    6  H   UNK N   1      21.284  11.082  12.606  0.00  0.00     0.151 HD
ENDBRANCH   1   4
BRANCH   1   7
HETATM    7  C   UNK N   1      23.721  12.136  12.298  0.00  0.00     0.168 C 
HETATM    8  O   UNK N   1      23.548  12.009  13.499  0.00  0.00    -0.648 OA
BRANCH   7   9
HETATM    9  O   UNK N   1      24.974  12.193  11.808  0.00  0.00    -0.775 OA
HETATM   10  H   UNK N   1      25.402  13.019  11.683  0.00  0.00     0.167 HD
ENDBRANCH   7   9
ENDBRANCH   1   7
TORSDOF 3
ENDMDL
MODEL 2
REMARK VINA RESULT:      -4.0     12.687     13.182
REMARK  3 active torsions:
REMARK  status: ('A' for Active; 'I' for Inactive)
REMARK    1  A    between atoms: N_1  and  C_2 
REMARK    2  A    between atoms: C_2  and  C_5 
REMARK    3  A    between atoms: C_5  and  O_6 
ROOT
HETATM    1  C   UNK N   1      34.418  17.097   9.114  0.00  0.00     0.110 A 
HETATM    2  C   UNK N   1      33.289  16.119   8.859  0.00  0.00     0.044 A 
HETATM    3  C   UNK N   1      34.716  15.742   8.503  0.00  0.00     0.044 A 
ENDROOT
BRANCH   1   4
HETATM    4  N   UNK N   1      34.951  17.165  10.462  0.00  0.00    -0.413 N 
HETATM    5  H   UNK N   1      35.266  16.417  11.079  0.00  0.00     0.151 HD
HETATM    6  H   UNK N   1      35.019  18.106  10.852  0.00  0.00     0.151 HD
ENDBRANCH   1   4
BRANCH   1   7
HETATM    7  C   UNK N   1      34.722  18.222   8.164  0.00  0.00     0.168 C 
HETATM    8  O   UNK N   1      34.380  18.156   6.996  0.00  0.00    -0.648 OA
BRANCH   7   9
HETATM    9  O   UNK N   1      35.354  19.324   8.613  0.00  0.00    -0.775 OA
HETATM   10  H   UNK N   1      35.428  20.086   8.072  0.00  0.00     0.167 HD
ENDBRANCH   7   9
ENDBRANCH   1   7
TORSDOF 3
ENDMDL
MODEL 3
REMARK VINA RESULT:      -4.0      1.805      2.201
REMARK  3 active torsions:
REMARK  status: ('A' for Active; 'I' for Inactive)
REMARK    1  A    between atoms: N_1  and  C_2 
REMARK    2  A    between atoms: C_2  and  C_5 
REMARK    3  A    between atoms: C_5  and  O_6 
ROOT
HETATM    1  C   UNK N   1      23.742  12.130  11.052  0.00  0.00     0.110 A 
HETATM    2  C   UNK N   1      23.154  11.533   9.790  0.00  0.00     0.044 A 
HETATM    3  C   UNK N   1      22.863  12.978  10.153  0.00  0.00     0.044 A 
ENDROOT
BRANCH   1   4
HETATM    4  N   UNK N   1      25.114  12.597  10.992  0.00  0.00    -0.413 N 
HETATM    5  H   UNK N   1      25.809  12.493  10.253  0.00  0.00     0.151 HD
HETATM    6  H   UNK N   1      25.433  13.107  11.816  0.00  0.00     0.151 HD
ENDBRANCH   1   4
BRANCH   1   7
HETATM    7  C   UNK N   1      23.118  11.905  12.401  0.00  0.00     0.168 C 
HETATM    8  O   UNK N   1      23.765  12.080  13.419  0.00  0.00    -0.648 OA
BRANCH   7   9
HETATM    9  O   UNK N   1      21.826  11.533  12.487  0.00  0.00    -0.775 OA
HETATM   10  H   UNK N   1      21.139  12.149  12.316  0.00  0.00     0.167 HD
ENDBRANCH   7   9
ENDBRANCH   1   7
TORSDOF 3
ENDMDL
MODEL 4
REMARK VINA RESULT:      -3.9     12.098     12.539
REMARK  3 active torsions:
REMARK  status: ('A' for Active; 'I' for Inactive)
REMARK    1  A    between atoms: N_1  and  C_2 
REMARK    2  A    between atoms: C_2  and  C_5 
REMARK    3  A    between atoms: C_5  and  O_6 
ROOT
HETATM    1  C   UNK N   1      33.266  17.475   8.569  0.00  0.00     0.110 A 
HETATM    2  C   UNK N   1      31.807  17.878   8.498  0.00  0.00     0.044 A 
HETATM    3  C   UNK N   1      32.319  16.726   7.651  0.00  0.00     0.044 A 
ENDROOT
BRANCH   1   4
HETATM    4  N   UNK N   1      33.670  16.623   9.672  0.00  0.00    -0.413 N 
HETATM    5  H   UNK N   1      34.211  16.846  10.507  0.00  0.00     0.151 HD
HETATM    6  H   UNK N   1      33.368  15.651   9.600  0.00  0.00     0.151 HD
ENDBRANCH   1   4
BRANCH   1   7
HETATM    7  C   UNK N   1      34.329  18.210   7.802  0.00  0.00     0.168 C 
HETATM    8  O   UNK N   1      34.508  17.983   6.618  0.00  0.00    -0.648 OA
BRANCH   7   9
HETATM    9  O   UNK N   1      35.075  19.146   8.422  0.00  0.00    -0.775 OA
HETATM   10  H   UNK N   1      34.845  20.053   8.367  0.00  0.00     0.167 HD
ENDBRANCH   7   9
ENDBRANCH   1   7
TORSDOF 3
ENDMDL
MODEL 5
REMARK VINA RESULT:      -3.9     11.832     12.563
REMARK  3 active torsions:
REMARK  status: ('A' for Active; 'I' for Inactive)
REMARK    1  A    between atoms: N_1  and  C_2 
REMARK    2  A    between atoms: C_2  and  C_5 
REMARK    3  A    between atoms: C_5  and  O_6 
ROOT
HETATM    1  C   UNK N   1      20.300  19.199   2.370  0.00  0.00     0.110 A 
HETATM    2  C   UNK N   1      21.262  18.280   3.095  0.00  0.00     0.044 A 
HETATM    3  C   UNK N   1      20.744  19.532   3.781  0.00  0.00     0.044 A 
ENDROOT
BRANCH   1   4
HETATM    4  N   UNK N   1      18.898  18.826   2.363  0.00  0.00    -0.413 N 
HETATM    5  H   UNK N   1      18.350  18.326   3.063  0.00  0.00     0.151 HD
HETATM    6  H   UNK N   1      18.380  19.106   1.530  0.00  0.00     0.151 HD
ENDBRANCH   1   4
BRANCH   1   7
HETATM    7  C   UNK N   1      20.776  20.219   1.374  0.00  0.00     0.168 C 
HETATM    8  O   UNK N   1      21.301  21.254   1.750  0.00  0.00    -0.648 OA
BRANCH   7   9
HETATM    9  O   UNK N   1      20.646  19.978   0.055  0.00  0.00    -0.775 OA
HETATM   10  H   UNK N   1      20.104  20.526  -0.479  0.00  0.00     0.167 HD
ENDBRANCH   7   9
ENDBRANCH   1   7
TORSDOF 3
ENDMDL
MODEL 6
REMARK VINA RESULT:      -3.5     24.379     24.796
REMARK  3 active torsions:
REMARK  status: ('A' for Active; 'I' for Inactive)
REMARK    1  A    between atoms: N_1  and  C_2 
REMARK    2  A    between atoms: C_2  and  C_5 
REMARK    3  A    between atoms: C_5  and  O_6 
ROOT
HETATM    1  C   UNK N   1      44.406  21.880   3.530  0.00  0.00     0.110 A 
HETATM    2  C   UNK N   1      43.996  20.430   3.368  0.00  0.00     0.044 A 
HETATM    3  C   UNK N   1      44.595  21.185   2.195  0.00  0.00     0.044 A 
ENDROOT
BRANCH   1   4
HETATM    4  N   UNK N   1      45.695  22.144   4.143  0.00  0.00    -0.413 N 
HETATM    5  H   UNK N   1      46.502  21.531   4.258  0.00  0.00     0.151 HD
HETATM    6  H   UNK N   1      45.811  23.086   4.516  0.00  0.00     0.151 HD
ENDBRANCH   1   4
BRANCH   1   7
HETATM    7  C   UNK N   1      43.408  23.000   3.446  0.00  0.00     0.168 C 
HETATM    8  O   UNK N   1      42.472  22.940   2.667  0.00  0.00    -0.648 OA
BRANCH   7   9
HETATM    9  O   UNK N   1      43.533  24.070   4.256  0.00  0.00    -0.775 OA
HETATM   10  H   UNK N   1      43.724  23.960   5.167  0.00  0.00     0.167 HD
ENDBRANCH   7   9
ENDBRANCH   1   7
TORSDOF 3
ENDMDL
MODEL 7
REMARK VINA RESULT:      -3.5     11.996     12.336
REMARK  3 active torsions:
REMARK  status: ('A' for Active; 'I' for Inactive)
REMARK    1  A    between atoms: N_1  and  C_2 
REMARK    2  A    between atoms: C_2  and  C_5 
REMARK    3  A    between atoms: C_5  and  O_6 
ROOT
HETATM    1  C   UNK N   1      20.711  19.464   2.844  0.00  0.00     0.110 A 
HETATM    2  C   UNK N   1      19.287  18.982   2.656  0.00  0.00     0.044 A 
HETATM    3  C   UNK N   1      20.433  18.241   1.990  0.00  0.00     0.044 A 
ENDROOT
BRANCH   1   4
HETATM    4  N   UNK N   1      21.391  19.075   4.065  0.00  0.00    -0.413 N 
HETATM    5  H   UNK N   1      21.156  19.275   5.037  0.00  0.00     0.151 HD
HETATM    6  H   UNK N   1      22.235  18.517   3.931  0.00  0.00     0.151 HD
ENDBRANCH   1   4
BRANCH   1   7
HETATM    7  C   UNK N   1      21.278  20.597   2.036  0.00  0.00     0.168 C 
HETATM    8  O   UNK N   1      21.334  20.525   0.821  0.00  0.00    -0.648 OA
BRANCH   7   9
HETATM    9  O   UNK N   1      21.703  21.714   2.658  0.00  0.00    -0.775 OA
HETATM   10  H   UNK N   1      22.242  21.660   3.423  0.00  0.00     0.167 HD
ENDBRANCH   7   9
ENDBRANCH   1   7
TORSDOF 3
ENDMDL
MODEL 8
REMARK VINA RESULT:      -3.4     22.151     22.767
REMARK  3 active torsions:
REMARK  status: ('A' for Active; 'I' for Inactive)
REMARK    1  A    between atoms: N_1  and  C_2 
REMARK    2  A    between atoms: C_2  and  C_5 
REMARK    3  A    between atoms: C_5  and  O_6 
ROOT
HETATM    1  C   UNK N   1      26.016  27.546  -5.079  0.00  0.00     0.110 A 
HETATM    2  C   UNK N   1      25.649  26.085  -5.243  0.00  0.00     0.044 A 
HETATM    3  C   UNK N   1      24.681  27.166  -5.692  0.00  0.00     0.044 A 
ENDROOT
BRANCH   1   4
HETATM    4  N   UNK N   1      26.878  28.135  -6.087  0.00  0.00    -0.413 N 
HETATM    5  H   UNK N   1      26.638  28.608  -6.957  0.00  0.00     0.151 HD
HETATM    6  H   UNK N   1      27.878  28.063  -5.896  0.00  0.00     0.151 HD
ENDBRANCH   1   4
BRANCH   1   7
HETATM    7  C   UNK N   1      25.850  28.262  -3.768  0.00  0.00     0.168 C 
HETATM    8  O   UNK N   1      25.700  27.635  -2.734  0.00  0.00    -0.648 OA
BRANCH   7   9
HETATM    9  O   UNK N   1      25.894  29.608  -3.732  0.00  0.00    -0.775 OA
HETATM   10  H   UNK N   1      26.485  30.083  -4.284  0.00  0.00     0.167 HD
ENDBRANCH   7   9
ENDBRANCH   1   7
TORSDOF 3
ENDMDL
MODEL 9
REMARK VINA RESULT:      -3.3     19.615     19.976
REMARK  3 active torsions:
REMARK  status: ('A' for Active; 'I' for Inactive)
REMARK    1  A    between atoms: N_1  and  C_2 
REMARK    2  A    between atoms: C_2  and  C_5 
REMARK    3  A    between atoms: C_5  and  O_6 
ROOT
HETATM    1  C   UNK N   1      31.188  22.345  -4.073  0.00  0.00     0.110 A 
HETATM    2  C   UNK N   1      30.355  21.327  -4.825  0.00  0.00     0.044 A 
HETATM    3  C   UNK N   1      29.733  22.640  -4.384  0.00  0.00     0.044 A 
ENDROOT
BRANCH   1   4
HETATM    4  N   UNK N   1      32.050  23.211  -4.855  0.00  0.00    -0.413 N 
HETATM    5  H   UNK N   1      32.480  24.102  -4.609  0.00  0.00     0.151 HD
HETATM    6  H   UNK N   1      32.259  22.877  -5.797  0.00  0.00     0.151 HD
ENDBRANCH   1   4
BRANCH   1   7
HETATM    7  C   UNK N   1      31.435  22.230  -2.595  0.00  0.00     0.168 C 
HETATM    8  O   UNK N   1      30.807  22.915  -1.806  0.00  0.00    -0.648 OA
BRANCH   7   9
HETATM    9  O   UNK N   1      32.341  21.345  -2.135  0.00  0.00    -0.775 OA
HETATM   10  H   UNK N   1      33.214  21.618  -1.928  0.00  0.00     0.167 HD
ENDBRANCH   7   9
ENDBRANCH   1   7
TORSDOF 3
ENDMDL
