MODEL 1
REMARK VINA RESULT:      -8.4      0.000      0.000
REMARK  18 active torsions:
REMARK  status: ('A' for Active; 'I' for Inactive)
REMARK    1  A    between atoms: C_3  and  C_2 
REMARK    2  A    between atoms: C_4  and  C_2 
REMARK    3  A    between atoms: C_5  and  C_3 
REMARK    4  A    between atoms: C_6  and  C_4 
REMARK    5  A    between atoms: C_7  and  C_5 
REMARK    6  A    between atoms: C_8  and  C_6 
REMARK    7  A    between atoms: C_9  and  C_7 
REMARK    8  A    between atoms: C_22  and  C_8 
REMARK    9  A    between atoms: C_29  and  C_9 
REMARK   10  A    between atoms: C_28  and  C_18 
REMARK   11  A    between atoms: O_51  and  C_18 
REMARK   12  A    between atoms: O_46  and  C_23 
REMARK   13  A    between atoms: O_51  and  C_29 
REMARK   14  A    between atoms: C_31  and  O_48 
REMARK   15  A    between atoms: C_32  and  O_49 
REMARK   16  A    between atoms: C_33  and  O_50 
REMARK   17  A    between atoms: N_38  and  C_34 
REMARK   18  A    between atoms: C_36  and  N_45 
ROOT
HETATM    1  C   UNK N   1      37.129  12.052  11.197  0.00  0.00     0.010 C 
ENDROOT
BRANCH   1   2
HETATM    2  C   UNK N   1      37.346  11.574   9.779  0.00  0.00     0.000 C 
BRANCH   2   3
HETATM    3  C   UNK N   1      37.349  10.065   9.573  0.00  0.00     0.000 C 
BRANCH   3   4
HETATM    4  C   UNK N   1      36.206   9.438   8.789  0.00  0.00     0.000 C 
BRANCH   4   5
HETATM    5  C   UNK N   1      34.911  10.254   8.904  0.00  0.00     0.000 C 
BRANCH   5   6
HETATM    6  C   UNK N   1      33.873   9.662   9.858  0.00  0.00     0.000 C 
BRANCH   6   7
HETATM    7  C   UNK N   1      34.386   8.347  10.463  0.00  0.00     0.007 C 
BRANCH   7   8
HETATM    8  C   UNK N   1      34.681   8.446  11.970  0.00  0.00     0.015 C 
HETATM    9  C   UNK N   1      34.393   9.835  12.526  0.00  0.00     0.013 C 
HETATM   10  C   UNK N   1      35.457  10.090  13.600  0.00  0.00     0.001 C 
HETATM   11  C   UNK N   1      34.814  10.464  14.961  0.00  0.00    -0.001 C 
HETATM   12  C   UNK N   1      36.356   8.818  13.673  0.00  0.00    -0.014 C 
HETATM   13  C   UNK N   1      34.222  11.894  14.931  0.00  0.00     0.010 C 
HETATM   14  C   UNK N   1      35.893  10.232  16.043  0.00  0.00     0.023 C 
HETATM   15  C   UNK N   1      35.029  12.893  15.769  0.00  0.00     0.039 C 
HETATM   16  C   UNK N   1      35.212  12.340  17.151  0.00  0.00    -0.049 A 
HETATM   17  C   UNK N   1      34.984  13.134  18.274  0.00  0.00     0.044 A 
HETATM   18  C   UNK N   1      35.605  10.999  17.299  0.00  0.00    -0.047 A 
HETATM   19  C   UNK N   1      35.167  12.596  19.552  0.00  0.00     0.066 A 
HETATM   20  C   UNK N   1      35.553  11.259  19.704  0.00  0.00     0.037 A 
HETATM   21  C   UNK N   1      35.768  10.456  18.579  0.00  0.00     0.011 A 
HETATM   22  C   UNK N   1      36.113   8.704  16.207  0.00  0.00     0.010 C 
HETATM   23  C   UNK N   1      35.933   7.934  14.864  0.00  0.00     0.013 C 
HETATM   24  C   UNK N   1      37.848   9.132  13.849  0.00  0.00     0.018 C 
HETATM   25  C   UNK N   1      36.147   8.202  12.307  0.00  0.00     0.130 C 
BRANCH  19  26
HETATM   26  O   UNK N   1      34.975  13.368  20.634  0.00  0.00    -0.361 OA
HETATM   27  H   UNK N   1      34.137  13.755  20.791  0.00  0.00     0.217 HD
ENDBRANCH  19  26
BRANCH  25  28
HETATM   28  O   UNK N   1      36.494   6.848  12.269  0.00  0.00    -0.394 OA
HETATM   29  H   UNK N   1      37.366   6.446  12.134  0.00  0.00     0.210 HD
ENDBRANCH  25  28
ENDBRANCH   7   8
ENDBRANCH   6   7
ENDBRANCH   5   6
ENDBRANCH   4   5
ENDBRANCH   3   4
ENDBRANCH   2   3
ENDBRANCH   1   2
BRANCH   1  30
HETATM   30  C   UNK N   1      36.689  13.485  11.427  0.00  0.00     0.111 C 
BRANCH  30  31
HETATM   31  C   UNK N   1      35.176  13.596  11.364  0.00  0.00     0.258 C 
HETATM   32  O   UNK N   1      34.580  13.964  12.362  0.00  0.00    -0.265 OA
BRANCH  31  33
HETATM   33  O   UNK N   1      34.455  13.301  10.242  0.00  0.00    -0.319 OA
BRANCH  33  34
HETATM   34  C   UNK N   1      34.211  14.204   9.226  0.00  0.00     0.213 C 
BRANCH  34  35
HETATM   35  C   UNK N   1      34.160  15.636   9.794  0.00  0.00     0.180 C 
HETATM   36  C   UNK N   1      35.078  16.573   9.005  0.00  0.00     0.182 C 
HETATM   37  C   UNK N   1      34.154  16.941   7.899  0.00  0.00     0.198 C 
HETATM   38  C   UNK N   1      32.880  17.168   8.708  0.00  0.00     0.262 C 
HETATM   39  O   UNK N   1      32.840  16.145   9.692  0.00  0.00    -0.353 OA
BRANCH  36  40
HETATM   40  O   UNK N   1      35.373  17.699   9.786  0.00  0.00    -0.390 OA
HETATM   41  H   UNK N   1      35.741  18.592   9.871  0.00  0.00     0.210 HD
ENDBRANCH  36  40
BRANCH  37  42
HETATM   42  O   UNK N   1      34.589  18.067   7.198  0.00  0.00    -0.388 OA
HETATM   43  H   UNK N   1      33.943  18.667   6.793  0.00  0.00     0.210 HD
ENDBRANCH  37  42
BRANCH  38  44
HETATM   44  N   UNK N   1      31.696  17.126   7.850  0.00  0.00    -0.297 N 
HETATM   45  C   UNK N   1      31.654  16.818   6.527  0.00  0.00     0.188 A 
HETATM   46  N   UNK N   1      30.381  16.884   6.044  0.00  0.00    -0.346 N 
HETATM   47  C   UNK N   1      29.640  17.243   7.109  0.00  0.00     0.122 A 
ATOM     48  HN  UNK N   1      30.062  16.703   5.093  1.00  0.00     0.167 HD
HETATM   49  C   UNK N   1      28.278  17.470   7.210  0.00  0.00     0.131 A 
HETATM   50  C   UNK N   1      30.428  17.383   8.190  0.00  0.00     0.142 A 
HETATM   51  N   UNK N   1      27.777  17.836   8.428  0.00  0.00    -0.337 N 
HETATM   52  C   UNK N   1      28.602  17.970   9.519  0.00  0.00     0.183 A 
ATOM     53  HN  UNK N   1      26.777  18.012   8.528  1.00  0.00     0.168 HD
HETATM   54  N   UNK N   1      29.946  17.739   9.403  0.00  0.00    -0.336 N 
ATOM     55  HN  UNK N   1      30.565  17.834  10.208  1.00  0.00     0.168 HD
BRANCH  49  56
HETATM   56  N   UNK N   1      27.427  17.334   6.094  0.00  0.00    -0.383 N 
HETATM   57  H   UNK N   1      26.840  18.064   5.794  0.00  0.00     0.157 HD
HETATM   58  H   UNK N   1      27.421  16.482   5.600  0.00  0.00     0.157 HD
ENDBRANCH  49  56
ENDBRANCH  38  44
ENDBRANCH  34  35
ENDBRANCH  33  34
ENDBRANCH  31  33
ENDBRANCH  30  31
ENDBRANCH   1  30
TORSDOF 18
ENDMDL
MODEL 2
REMARK VINA RESULT:      -7.9      1.627      3.051
REMARK  18 active torsions:
REMARK  status: ('A' for Active; 'I' for Inactive)
REMARK    1  A    between atoms: C_3  and  C_2 
REMARK    2  A    between atoms: C_4  and  C_2 
REMARK    3  A    between atoms: C_5  and  C_3 
REMARK    4  A    between atoms: C_6  and  C_4 
REMARK    5  A    between atoms: C_7  and  C_5 
REMARK    6  A    between atoms: C_8  and  C_6 
REMARK    7  A    between atoms: C_9  and  C_7 
REMARK    8  A    between atoms: C_22  and  C_8 
REMARK    9  A    between atoms: C_29  and  C_9 
REMARK   10  A    between atoms: C_28  and  C_18 
REMARK   11  A    between atoms: O_51  and  C_18 
REMARK   12  A    between atoms: O_46  and  C_23 
REMARK   13  A    between atoms: O_51  and  C_29 
REMARK   14  A    between atoms: C_31  and  O_48 
REMARK   15  A    between atoms: C_32  and  O_49 
REMARK   16  A    between atoms: C_33  and  O_50 
REMARK   17  A    between atoms: N_38  and  C_34 
REMARK   18  A    between atoms: C_36  and  N_45 
ROOT
HETATM    1  C   UNK N   1      34.203   9.852  10.669  0.00  0.00     0.010 C 
ENDROOT
BRANCH   1   2
HETATM    2  C   UNK N   1      34.759   8.527  10.197  0.00  0.00     0.000 C 
BRANCH   2   3
HETATM    3  C   UNK N   1      35.888   8.599   9.178  0.00  0.00     0.000 C 
BRANCH   3   4
HETATM    4  C   UNK N   1      37.255   9.076   9.645  0.00  0.00     0.000 C 
BRANCH   4   5
HETATM    5  C   UNK N   1      37.489  10.559   9.325  0.00  0.00     0.000 C 
BRANCH   5   6
HETATM    6  C   UNK N   1      37.963  11.396  10.514  0.00  0.00     0.000 C 
BRANCH   6   7
HETATM    7  C   UNK N   1      36.908  12.448  10.887  0.00  0.00     0.007 C 
BRANCH   7   8
HETATM    8  C   UNK N   1      36.569  12.462  12.388  0.00  0.00     0.015 C 
HETATM    9  C   UNK N   1      37.183  11.282  13.131  0.00  0.00     0.013 C 
HETATM   10  C   UNK N   1      36.167  10.886  14.210  0.00  0.00     0.001 C 
HETATM   11  C   UNK N   1      36.811  10.872  15.621  0.00  0.00    -0.001 C 
HETATM   12  C   UNK N   1      34.962  11.869  14.094  0.00  0.00    -0.014 C 
HETATM   13  C   UNK N   1      37.761   9.663  15.795  0.00  0.00     0.010 C 
HETATM   14  C   UNK N   1      35.652  10.939  16.641  0.00  0.00     0.023 C 
HETATM   15  C   UNK N   1      37.203   8.597  16.745  0.00  0.00     0.039 C 
HETATM   16  C   UNK N   1      36.805   9.248  18.037  0.00  0.00    -0.049 A 
HETATM   17  C   UNK N   1      37.173   8.692  19.260  0.00  0.00     0.044 A 
HETATM   18  C   UNK N   1      36.064  10.441  17.995  0.00  0.00    -0.047 A 
HETATM   19  C   UNK N   1      36.787   9.316  20.450  0.00  0.00     0.066 A 
HETATM   20  C   UNK N   1      36.053  10.508  20.413  0.00  0.00     0.037 A 
HETATM   21  C   UNK N   1      35.695  11.076  19.186  0.00  0.00     0.011 A 
HETATM   22  C   UNK N   1      35.028  12.360  16.594  0.00  0.00     0.010 C 
HETATM   23  C   UNK N   1      35.070  12.975  15.163  0.00  0.00     0.013 C 
HETATM   24  C   UNK N   1      33.599  11.189  14.282  0.00  0.00     0.018 C 
HETATM   25  C   UNK N   1      35.074  12.343  12.662  0.00  0.00     0.130 C 
BRANCH  19  26
HETATM   26  O   UNK N   1      37.116   8.766  21.629  0.00  0.00    -0.361 OA
HETATM   27  H   UNK N   1      36.857   9.180  22.429  0.00  0.00     0.217 HD
ENDBRANCH  19  26
BRANCH  25  28
HETATM   28  O   UNK N   1      34.384  13.538  12.434  0.00  0.00    -0.394 OA
HETATM   29  H   UNK N   1      34.449  14.379  12.913  0.00  0.00     0.210 HD
ENDBRANCH  25  28
ENDBRANCH   7   8
ENDBRANCH   6   7
ENDBRANCH   5   6
ENDBRANCH   4   5
ENDBRANCH   3   4
ENDBRANCH   2   3
ENDBRANCH   1   2
BRANCH   1  30
HETATM   30  C   UNK N   1      33.145  10.543   9.829  0.00  0.00     0.111 C 
BRANCH  30  31
HETATM   31  C   UNK N   1      33.760  11.666   9.015  0.00  0.00     0.258 C 
HETATM   32  O   UNK N   1      34.292  11.389   7.953  0.00  0.00    -0.265 OA
BRANCH  31  33
HETATM   33  O   UNK N   1      33.743  12.971   9.417  0.00  0.00    -0.319 OA
BRANCH  33  34
HETATM   34  C   UNK N   1      34.085  14.032   8.601  0.00  0.00     0.213 C 
BRANCH  34  35
HETATM   35  C   UNK N   1      34.119  15.337   9.420  0.00  0.00     0.180 C 
HETATM   36  C   UNK N   1      35.048  16.367   8.773  0.00  0.00     0.182 C 
HETATM   37  C   UNK N   1      34.101  16.965   7.794  0.00  0.00     0.198 C 
HETATM   38  C   UNK N   1      32.869  17.088   8.686  0.00  0.00     0.262 C 
HETATM   39  O   UNK N   1      32.819  15.904   9.470  0.00  0.00    -0.353 OA
BRANCH  36  40
HETATM   40  O   UNK N   1      35.421  17.321   9.731  0.00  0.00    -0.390 OA
HETATM   41  H   UNK N   1      35.670  17.549  10.640  0.00  0.00     0.210 HD
ENDBRANCH  36  40
BRANCH  37  42
HETATM   42  O   UNK N   1      34.559  18.183   7.290  0.00  0.00    -0.388 OA
HETATM   43  H   UNK N   1      35.455  18.252   6.923  0.00  0.00     0.210 HD
ENDBRANCH  37  42
BRANCH  38  44
HETATM   44  N   UNK N   1      31.654  17.247   7.887  0.00  0.00    -0.297 N 
HETATM   45  C   UNK N   1      31.546  17.171   6.535  0.00  0.00     0.188 A 
HETATM   46  N   UNK N   1      30.262  17.376   6.128  0.00  0.00    -0.346 N 
HETATM   47  C   UNK N   1      29.581  17.582   7.270  0.00  0.00     0.122 A 
ATOM     48  HN  UNK N   1      29.900  17.375   5.175  1.00  0.00     0.167 HD
HETATM   49  C   UNK N   1      28.237  17.850   7.470  0.00  0.00     0.131 A 
HETATM   50  C   UNK N   1      30.414  17.499   8.323  0.00  0.00     0.142 A 
HETATM   51  N   UNK N   1      27.801  18.026   8.754  0.00  0.00    -0.337 N 
HETATM   52  C   UNK N   1      28.671  17.935   9.813  0.00  0.00     0.183 A 
ATOM     53  HN  UNK N   1      26.817  18.228   8.927  1.00  0.00     0.168 HD
HETATM   54  N   UNK N   1      29.996  17.665   9.600  0.00  0.00    -0.336 N 
ATOM     55  HN  UNK N   1      30.649  17.593  10.380  1.00  0.00     0.168 HD
BRANCH  49  56
HETATM   56  N   UNK N   1      27.340  17.946   6.387  0.00  0.00    -0.383 N 
HETATM   57  H   UNK N   1      27.373  18.692   5.746  0.00  0.00     0.157 HD
HETATM   58  H   UNK N   1      26.659  17.244   6.269  0.00  0.00     0.157 HD
ENDBRANCH  49  56
ENDBRANCH  38  44
ENDBRANCH  34  35
ENDBRANCH  33  34
ENDBRANCH  31  33
ENDBRANCH  30  31
ENDBRANCH   1  30
TORSDOF 18
ENDMDL
MODEL 3
REMARK VINA RESULT:      -7.8      6.497     12.083
REMARK  18 active torsions:
REMARK  status: ('A' for Active; 'I' for Inactive)
REMARK    1  A    between atoms: C_3  and  C_2 
REMARK    2  A    between atoms: C_4  and  C_2 
REMARK    3  A    between atoms: C_5  and  C_3 
REMARK    4  A    between atoms: C_6  and  C_4 
REMARK    5  A    between atoms: C_7  and  C_5 
REMARK    6  A    between atoms: C_8  and  C_6 
REMARK    7  A    between atoms: C_9  and  C_7 
REMARK    8  A    between atoms: C_22  and  C_8 
REMARK    9  A    between atoms: C_29  and  C_9 
REMARK   10  A    between atoms: C_28  and  C_18 
REMARK   11  A    between atoms: O_51  and  C_18 
REMARK   12  A    between atoms: O_46  and  C_23 
REMARK   13  A    between atoms: O_51  and  C_29 
REMARK   14  A    between atoms: C_31  and  O_48 
REMARK   15  A    between atoms: C_32  and  O_49 
REMARK   16  A    between atoms: C_33  and  O_50 
REMARK   17  A    between atoms: N_38  and  C_34 
REMARK   18  A    between atoms: C_36  and  N_45 
ROOT
HETATM    1  C   UNK N   1      25.033  17.881   4.132  0.00  0.00     0.010 C 
ENDROOT
BRANCH   1   2
HETATM    2  C   UNK N   1      25.084  19.197   3.389  0.00  0.00     0.000 C 
BRANCH   2   3
HETATM    3  C   UNK N   1      25.838  20.326   4.077  0.00  0.00     0.000 C 
BRANCH   3   4
HETATM    4  C   UNK N   1      27.239  20.048   4.601  0.00  0.00     0.000 C 
BRANCH   4   5
HETATM    5  C   UNK N   1      27.265  19.897   6.128  0.00  0.00     0.000 C 
BRANCH   5   6
HETATM    6  C   UNK N   1      28.297  18.895   6.647  0.00  0.00     0.000 C 
BRANCH   6   7
HETATM    7  C   UNK N   1      28.185  17.564   5.888  0.00  0.00     0.007 C 
BRANCH   7   8
HETATM    8  C   UNK N   1      29.517  16.799   5.803  0.00  0.00     0.015 C 
HETATM    9  C   UNK N   1      30.290  16.836   7.115  0.00  0.00     0.013 C 
HETATM   10  C   UNK N   1      31.773  16.903   6.731  0.00  0.00     0.001 C 
HETATM   11  C   UNK N   1      32.586  15.762   7.397  0.00  0.00    -0.001 C 
HETATM   12  C   UNK N   1      31.850  16.883   5.173  0.00  0.00    -0.014 C 
HETATM   13  C   UNK N   1      32.767  16.010   8.914  0.00  0.00     0.010 C 
HETATM   14  C   UNK N   1      33.903  15.629   6.600  0.00  0.00     0.023 C 
HETATM   15  C   UNK N   1      34.205  16.382   9.291  0.00  0.00     0.039 C 
HETATM   16  C   UNK N   1      35.143  15.356   8.727  0.00  0.00    -0.049 A 
HETATM   17  C   UNK N   1      36.157  14.808   9.511  0.00  0.00     0.044 A 
HETATM   18  C   UNK N   1      34.975  14.943   7.395  0.00  0.00    -0.047 A 
HETATM   19  C   UNK N   1      37.021  13.857   8.960  0.00  0.00     0.066 A 
HETATM   20  C   UNK N   1      36.854  13.438   7.634  0.00  0.00     0.037 A 
HETATM   21  C   UNK N   1      35.828  13.976   6.850  0.00  0.00     0.011 A 
HETATM   22  C   UNK N   1      33.584  15.018   5.208  0.00  0.00     0.010 C 
HETATM   23  C   UNK N   1      32.192  15.466   4.673  0.00  0.00     0.013 C 
HETATM   24  C   UNK N   1      32.911  17.834   4.602  0.00  0.00     0.018 C 
HETATM   25  C   UNK N   1      30.480  17.393   4.782  0.00  0.00     0.130 C 
BRANCH  19  26
HETATM   26  O   UNK N   1      38.016  13.348   9.705  0.00  0.00    -0.361 OA
HETATM   27  H   UNK N   1      37.973  12.461  10.001  0.00  0.00     0.217 HD
ENDBRANCH  19  26
BRANCH  25  28
HETATM   28  O   UNK N   1      30.142  17.068   3.464  0.00  0.00    -0.394 OA
HETATM   29  H   UNK N   1      30.690  16.657   2.778  0.00  0.00     0.210 HD
ENDBRANCH  25  28
ENDBRANCH   7   8
ENDBRANCH   6   7
ENDBRANCH   5   6
ENDBRANCH   4   5
ENDBRANCH   3   4
ENDBRANCH   2   3
ENDBRANCH   1   2
BRANCH   1  30
HETATM   30  C   UNK N   1      25.569  16.635   3.451  0.00  0.00     0.111 C 
BRANCH  30  31
HETATM   31  C   UNK N   1      25.141  15.389   4.205  0.00  0.00     0.258 C 
HETATM   32  O   UNK N   1      25.980  14.534   4.433  0.00  0.00    -0.265 OA
BRANCH  31  33
HETATM   33  O   UNK N   1      23.863  15.184   4.638  0.00  0.00    -0.319 OA
BRANCH  33  34
HETATM   34  C   UNK N   1      23.518  15.012   5.965  0.00  0.00     0.213 C 
BRANCH  34  35
HETATM   35  C   UNK N   1      21.991  14.847   6.096  0.00  0.00     0.180 C 
HETATM   36  C   UNK N   1      21.467  15.561   7.344  0.00  0.00     0.182 C 
HETATM   37  C   UNK N   1      21.306  16.931   6.788  0.00  0.00     0.198 C 
HETATM   38  C   UNK N   1      20.673  16.580   5.445  0.00  0.00     0.262 C 
HETATM   39  O   UNK N   1      21.350  15.424   4.970  0.00  0.00    -0.353 OA
BRANCH  36  40
HETATM   40  O   UNK N   1      20.218  15.029   7.691  0.00  0.00    -0.390 OA
HETATM   41  H   UNK N   1      19.333  15.137   8.073  0.00  0.00     0.210 HD
ENDBRANCH  36  40
BRANCH  37  42
HETATM   42  O   UNK N   1      20.507  17.741   7.597  0.00  0.00    -0.388 OA
HETATM   43  H   UNK N   1      19.733  18.190   7.223  0.00  0.00     0.210 HD
ENDBRANCH  37  42
BRANCH  38  44
HETATM   44  N   UNK N   1      20.791  17.690   4.500  0.00  0.00    -0.297 N 
HETATM   45  C   UNK N   1      21.206  18.955   4.770  0.00  0.00     0.188 A 
HETATM   46  N   UNK N   1      21.186  19.732   3.650  0.00  0.00    -0.346 N 
HETATM   47  C   UNK N   1      20.745  18.908   2.682  0.00  0.00     0.122 A 
ATOM     48  HN  UNK N   1      21.446  20.714   3.566  1.00  0.00     0.167 HD
HETATM   49  C   UNK N   1      20.519  19.154   1.338  0.00  0.00     0.131 A 
HETATM   50  C   UNK N   1      20.514  17.685   3.191  0.00  0.00     0.142 A 
HETATM   51  N   UNK N   1      20.057  18.124   0.567  0.00  0.00    -0.337 N 
HETATM   52  C   UNK N   1      19.830  16.883   1.109  0.00  0.00     0.183 A 
ATOM     53  HN  UNK N   1      19.879  18.281  -0.425  1.00  0.00     0.168 HD
HETATM   54  N   UNK N   1      20.063  16.654   2.438  0.00  0.00    -0.336 N 
ATOM     55  HN  UNK N   1      19.900  15.735   2.849  1.00  0.00     0.168 HD
BRANCH  49  56
HETATM   56  N   UNK N   1      20.749  20.426   0.777  0.00  0.00    -0.383 N 
HETATM   57  H   UNK N   1      20.187  21.204   0.997  0.00  0.00     0.157 HD
HETATM   58  H   UNK N   1      21.495  20.539   0.144  0.00  0.00     0.157 HD
ENDBRANCH  49  56
ENDBRANCH  38  44
ENDBRANCH  34  35
ENDBRANCH  33  34
ENDBRANCH  31  33
ENDBRANCH  30  31
ENDBRANCH   1  30
TORSDOF 18
ENDMDL
MODEL 4
REMARK VINA RESULT:      -7.7      2.815      4.868
REMARK  18 active torsions:
REMARK  status: ('A' for Active; 'I' for Inactive)
REMARK    1  A    between atoms: C_3  and  C_2 
REMARK    2  A    between atoms: C_4  and  C_2 
REMARK    3  A    between atoms: C_5  and  C_3 
REMARK    4  A    between atoms: C_6  and  C_4 
REMARK    5  A    between atoms: C_7  and  C_5 
REMARK    6  A    between atoms: C_8  and  C_6 
REMARK    7  A    between atoms: C_9  and  C_7 
REMARK    8  A    between atoms: C_22  and  C_8 
REMARK    9  A    between atoms: C_29  and  C_9 
REMARK   10  A    between atoms: C_28  and  C_18 
REMARK   11  A    between atoms: O_51  and  C_18 
REMARK   12  A    between atoms: O_46  and  C_23 
REMARK   13  A    between atoms: O_51  and  C_29 
REMARK   14  A    between atoms: C_31  and  O_48 
REMARK   15  A    between atoms: C_32  and  O_49 
REMARK   16  A    between atoms: C_33  and  O_50 
REMARK   17  A    between atoms: N_38  and  C_34 
REMARK   18  A    between atoms: C_36  and  N_45 
ROOT
HETATM    1  C   UNK N   1      33.699   9.154   6.137  0.00  0.00     0.010 C 
ENDROOT
BRANCH   1   2
HETATM    2  C   UNK N   1      32.196   9.030   6.025  0.00  0.00     0.000 C 
BRANCH   2   3
HETATM    3  C   UNK N   1      31.434   8.919   7.339  0.00  0.00     0.000 C 
BRANCH   3   4
HETATM    4  C   UNK N   1      31.652   7.685   8.201  0.00  0.00     0.000 C 
BRANCH   4   5
HETATM    5  C   UNK N   1      31.736   8.031   9.694  0.00  0.00     0.000 C 
BRANCH   5   6
HETATM    6  C   UNK N   1      32.769   9.105  10.038  0.00  0.00     0.000 C 
BRANCH   6   7
HETATM    7  C   UNK N   1      34.125   8.462  10.367  0.00  0.00     0.007 C 
BRANCH   7   8
HETATM    8  C   UNK N   1      34.487   8.537  11.861  0.00  0.00     0.015 C 
HETATM    9  C   UNK N   1      34.202   9.910  12.456  0.00  0.00     0.013 C 
HETATM   10  C   UNK N   1      35.311  10.163  13.486  0.00  0.00     0.001 C 
HETATM   11  C   UNK N   1      34.725  10.499  14.882  0.00  0.00    -0.001 C 
HETATM   12  C   UNK N   1      36.232   8.904  13.493  0.00  0.00    -0.014 C 
HETATM   13  C   UNK N   1      34.109  11.918  14.908  0.00  0.00     0.010 C 
HETATM   14  C   UNK N   1      35.856  10.265  15.908  0.00  0.00     0.023 C 
HETATM   15  C   UNK N   1      34.936  12.914  15.728  0.00  0.00     0.039 C 
HETATM   16  C   UNK N   1      35.192  12.338  17.089  0.00  0.00    -0.049 A 
HETATM   17  C   UNK N   1      35.004  13.106  18.237  0.00  0.00     0.044 A 
HETATM   18  C   UNK N   1      35.614  11.002  17.192  0.00  0.00    -0.047 A 
HETATM   19  C   UNK N   1      35.253  12.548  19.494  0.00  0.00     0.066 A 
HETATM   20  C   UNK N   1      35.668  11.214  19.602  0.00  0.00     0.037 A 
HETATM   21  C   UNK N   1      35.844  10.437  18.452  0.00  0.00     0.011 A 
HETATM   22  C   UNK N   1      36.109   8.737  16.032  0.00  0.00     0.010 C 
HETATM   23  C   UNK N   1      35.880   7.991  14.684  0.00  0.00     0.013 C 
HETATM   24  C   UNK N   1      37.725   9.241  13.606  0.00  0.00     0.018 C 
HETATM   25  C   UNK N   1      35.970   8.312  12.125  0.00  0.00     0.130 C 
BRANCH  19  26
HETATM   26  O   UNK N   1      35.099  13.294  20.599  0.00  0.00    -0.361 OA
HETATM   27  H   UNK N   1      35.074  12.885  21.441  0.00  0.00     0.217 HD
ENDBRANCH  19  26
BRANCH  25  28
HETATM   28  O   UNK N   1      36.337   6.965  12.044  0.00  0.00    -0.394 OA
HETATM   29  H   UNK N   1      36.713   6.393  12.731  0.00  0.00     0.210 HD
ENDBRANCH  25  28
ENDBRANCH   7   8
ENDBRANCH   6   7
ENDBRANCH   5   6
ENDBRANCH   4   5
ENDBRANCH   3   4
ENDBRANCH   2   3
ENDBRANCH   1   2
BRANCH   1  30
HETATM   30  C   UNK N   1      34.280  10.280   6.973  0.00  0.00     0.111 C 
BRANCH  30  31
HETATM   31  C   UNK N   1      34.494  11.519   6.124  0.00  0.00     0.258 C 
HETATM   32  O   UNK N   1      34.656  11.379   4.924  0.00  0.00    -0.265 OA
BRANCH  31  33
HETATM   33  O   UNK N   1      34.515  12.782   6.644  0.00  0.00    -0.319 OA
BRANCH  33  34
HETATM   34  C   UNK N   1      33.430  13.636   6.632  0.00  0.00     0.213 C 
BRANCH  34  35
HETATM   35  C   UNK N   1      33.911  15.098   6.533  0.00  0.00     0.180 C 
HETATM   36  C   UNK N   1      32.852  16.062   7.073  0.00  0.00     0.182 C 
HETATM   37  C   UNK N   1      33.194  16.011   8.520  0.00  0.00     0.198 C 
HETATM   38  C   UNK N   1      34.715  16.084   8.416  0.00  0.00     0.262 C 
HETATM   39  O   UNK N   1      35.083  15.269   7.313  0.00  0.00    -0.353 OA
BRANCH  36  40
HETATM   40  O   UNK N   1      33.091  17.345   6.564  0.00  0.00    -0.390 OA
HETATM   41  H   UNK N   1      33.635  18.147   6.522  0.00  0.00     0.210 HD
ENDBRANCH  36  40
BRANCH  37  42
HETATM   42  O   UNK N   1      32.623  17.063   9.237  0.00  0.00    -0.388 OA
HETATM   43  H   UNK N   1      32.407  17.896   8.789  0.00  0.00     0.210 HD
ENDBRANCH  37  42
BRANCH  38  44
HETATM   44  N   UNK N   1      35.350  15.625   9.651  0.00  0.00    -0.297 N 
HETATM   45  C   UNK N   1      35.651  16.373  10.744  0.00  0.00     0.188 A 
HETATM   46  N   UNK N   1      36.246  15.618  11.712  0.00  0.00    -0.346 N 
HETATM   47  C   UNK N   1      36.303  14.383  11.181  0.00  0.00     0.122 A 
ATOM     48  HN  UNK N   1      36.573  15.921  12.628  1.00  0.00     0.167 HD
HETATM   49  C   UNK N   1      36.813  13.210  11.710  0.00  0.00     0.131 A 
HETATM   50  C   UNK N   1      35.762  14.387   9.950  0.00  0.00     0.142 A 
HETATM   51  N   UNK N   1      36.749  12.079  10.944  0.00  0.00    -0.337 N 
HETATM   52  C   UNK N   1      36.190  12.108   9.690  0.00  0.00     0.183 A 
ATOM     53  HN  UNK N   1      37.121  11.203  11.310  1.00  0.00     0.168 HD
HETATM   54  N   UNK N   1      35.685  13.274   9.183  0.00  0.00    -0.336 N 
ATOM     55  HN  UNK N   1      35.266  13.305   8.253  1.00  0.00     0.168 HD
BRANCH  49  56
HETATM   56  N   UNK N   1      37.389  13.175  12.996  0.00  0.00    -0.383 N 
HETATM   57  H   UNK N   1      38.126  12.563  13.222  0.00  0.00     0.157 HD
HETATM   58  H   UNK N   1      37.043  13.782  13.690  0.00  0.00     0.157 HD
ENDBRANCH  49  56
ENDBRANCH  38  44
ENDBRANCH  34  35
ENDBRANCH  33  34
ENDBRANCH  31  33
ENDBRANCH  30  31
ENDBRANCH   1  30
TORSDOF 18
ENDMDL
MODEL 5
REMARK VINA RESULT:      -7.7      2.042      3.712
REMARK  18 active torsions:
REMARK  status: ('A' for Active; 'I' for Inactive)
REMARK    1  A    between atoms: C_3  and  C_2 
REMARK    2  A    between atoms: C_4  and  C_2 
REMARK    3  A    between atoms: C_5  and  C_3 
REMARK    4  A    between atoms: C_6  and  C_4 
REMARK    5  A    between atoms: C_7  and  C_5 
REMARK    6  A    between atoms: C_8  and  C_6 
REMARK    7  A    between atoms: C_9  and  C_7 
REMARK    8  A    between atoms: C_22  and  C_8 
REMARK    9  A    between atoms: C_29  and  C_9 
REMARK   10  A    between atoms: C_28  and  C_18 
REMARK   11  A    between atoms: O_51  and  C_18 
REMARK   12  A    between atoms: O_46  and  C_23 
REMARK   13  A    between atoms: O_51  and  C_29 
REMARK   14  A    between atoms: C_31  and  O_48 
REMARK   15  A    between atoms: C_32  and  O_49 
REMARK   16  A    between atoms: C_33  and  O_50 
REMARK   17  A    between atoms: N_38  and  C_34 
REMARK   18  A    between atoms: C_36  and  N_45 
ROOT
HETATM    1  C   UNK N   1      35.291  16.196   9.435  0.00  0.00     0.010 C 
ENDROOT
BRANCH   1   2
HETATM    2  C   UNK N   1      35.689  16.225  10.893  0.00  0.00     0.000 C 
BRANCH   2   3
HETATM    3  C   UNK N   1      35.372  14.973  11.700  0.00  0.00     0.000 C 
BRANCH   3   4
HETATM    4  C   UNK N   1      35.720  13.618  11.102  0.00  0.00     0.000 C 
BRANCH   4   5
HETATM    5  C   UNK N   1      37.217  13.301  11.223  0.00  0.00     0.000 C 
BRANCH   5   6
HETATM    6  C   UNK N   1      37.544  11.810  11.306  0.00  0.00     0.000 C 
BRANCH   6   7
HETATM    7  C   UNK N   1      36.253  10.976  11.319  0.00  0.00     0.007 C 
BRANCH   7   8
HETATM    8  C   UNK N   1      35.966  10.323  12.682  0.00  0.00     0.015 C 
HETATM    9  C   UNK N   1      35.704  11.352  13.774  0.00  0.00     0.013 C 
HETATM   10  C   UNK N   1      36.308  10.771  15.058  0.00  0.00     0.001 C 
HETATM   11  C   UNK N   1      35.262  10.709  16.202  0.00  0.00    -0.001 C 
HETATM   12  C   UNK N   1      36.907   9.377  14.699  0.00  0.00    -0.014 C 
HETATM   13  C   UNK N   1      34.949  12.120  16.756  0.00  0.00     0.010 C 
HETATM   14  C   UNK N   1      35.802   9.708  17.248  0.00  0.00     0.023 C 
HETATM   15  C   UNK N   1      35.519  12.351  18.160  0.00  0.00     0.039 C 
HETATM   16  C   UNK N   1      35.080  11.233  19.060  0.00  0.00    -0.049 A 
HETATM   17  C   UNK N   1      34.566  11.497  20.329  0.00  0.00     0.044 A 
HETATM   18  C   UNK N   1      35.180   9.911  18.597  0.00  0.00    -0.047 A 
HETATM   19  C   UNK N   1      34.168  10.439  21.149  0.00  0.00     0.066 A 
HETATM   20  C   UNK N   1      34.261   9.119  20.691  0.00  0.00     0.037 A 
HETATM   21  C   UNK N   1      34.762   8.852  19.412  0.00  0.00     0.011 A 
HETATM   22  C   UNK N   1      35.710   8.274  16.658  0.00  0.00     0.010 C 
HETATM   23  C   UNK N   1      35.937   8.254  15.117  0.00  0.00     0.013 C 
HETATM   24  C   UNK N   1      38.251   9.095  15.384  0.00  0.00     0.018 C 
HETATM   25  C   UNK N   1      37.141   9.506  13.209  0.00  0.00     0.130 C 
BRANCH  19  26
HETATM   26  O   UNK N   1      33.700  10.689  22.382  0.00  0.00    -0.361 OA
HETATM   27  H   UNK N   1      33.880  10.093  23.082  0.00  0.00     0.217 HD
ENDBRANCH  19  26
BRANCH  25  28
HETATM   28  O   UNK N   1      37.267   8.266  12.575  0.00  0.00    -0.394 OA
HETATM   29  H   UNK N   1      36.813   7.938  11.783  0.00  0.00     0.210 HD
ENDBRANCH  25  28
ENDBRANCH   7   8
ENDBRANCH   6   7
ENDBRANCH   5   6
ENDBRANCH   4   5
ENDBRANCH   3   4
ENDBRANCH   2   3
ENDBRANCH   1   2
BRANCH   1  30
HETATM   30  C   UNK N   1      34.118  17.044   8.980  0.00  0.00     0.111 C 
BRANCH  30  31
HETATM   31  C   UNK N   1      34.562  18.053   7.936  0.00  0.00     0.258 C 
HETATM   32  O   UNK N   1      35.037  19.109   8.316  0.00  0.00    -0.265 OA
BRANCH  31  33
HETATM   33  O   UNK N   1      34.452  17.830   6.593  0.00  0.00    -0.319 OA
BRANCH  33  34
HETATM   34  C   UNK N   1      34.025  16.638   6.044  0.00  0.00     0.213 C 
BRANCH  34  35
HETATM   35  C   UNK N   1      33.410  16.888   4.653  0.00  0.00     0.180 C 
HETATM   36  C   UNK N   1      32.816  15.601   4.075  0.00  0.00     0.182 C 
HETATM   37  C   UNK N   1      31.474  15.646   4.714  0.00  0.00     0.198 C 
HETATM   38  C   UNK N   1      31.154  17.125   4.512  0.00  0.00     0.262 C 
HETATM   39  O   UNK N   1      32.360  17.835   4.758  0.00  0.00    -0.353 OA
BRANCH  36  40
HETATM   40  O   UNK N   1      32.695  15.731   2.684  0.00  0.00    -0.390 OA
HETATM   41  H   UNK N   1      32.775  15.356   1.793  0.00  0.00     0.210 HD
ENDBRANCH  36  40
BRANCH  37  42
HETATM   42  O   UNK N   1      30.566  14.781   4.102  0.00  0.00    -0.388 OA
HETATM   43  H   UNK N   1      30.879  14.116   3.469  0.00  0.00     0.210 HD
ENDBRANCH  37  42
BRANCH  38  44
HETATM   44  N   UNK N   1      30.088  17.561   5.412  0.00  0.00    -0.297 N 
HETATM   45  C   UNK N   1      28.918  18.160   5.067  0.00  0.00     0.188 A 
HETATM   46  N   UNK N   1      28.160  18.436   6.166  0.00  0.00    -0.346 N 
HETATM   47  C   UNK N   1      28.898  17.991   7.199  0.00  0.00     0.122 A 
ATOM     48  HN  UNK N   1      27.242  18.880   6.197  1.00  0.00     0.167 HD
HETATM   49  C   UNK N   1      28.633  18.015   8.558  0.00  0.00     0.131 A 
HETATM   50  C   UNK N   1      30.049  17.463   6.747  0.00  0.00     0.142 A 
HETATM   51  N   UNK N   1      29.572  17.493   9.403  0.00  0.00    -0.337 N 
HETATM   52  C   UNK N   1      30.740  16.957   8.917  0.00  0.00     0.183 A 
ATOM     53  HN  UNK N   1      29.402  17.502  10.409  1.00  0.00     0.168 HD
HETATM   54  N   UNK N   1      30.985  16.937   7.571  0.00  0.00    -0.336 N 
ATOM     55  HN  UNK N   1      31.848  16.539   7.201  1.00  0.00     0.168 HD
BRANCH  49  56
HETATM   56  N   UNK N   1      27.438  18.564   9.062  0.00  0.00    -0.383 N 
HETATM   57  H   UNK N   1      26.580  18.473   8.588  0.00  0.00     0.157 HD
HETATM   58  H   UNK N   1      27.462  19.054   9.916  0.00  0.00     0.157 HD
ENDBRANCH  49  56
ENDBRANCH  38  44
ENDBRANCH  34  35
ENDBRANCH  33  34
ENDBRANCH  31  33
ENDBRANCH  30  31
ENDBRANCH   1  30
TORSDOF 18
ENDMDL
MODEL 6
REMARK VINA RESULT:      -7.7      6.766     12.434
REMARK  18 active torsions:
REMARK  status: ('A' for Active; 'I' for Inactive)
REMARK    1  A    between atoms: C_3  and  C_2 
REMARK    2  A    between atoms: C_4  and  C_2 
REMARK    3  A    between atoms: C_5  and  C_3 
REMARK    4  A    between atoms: C_6  and  C_4 
REMARK    5  A    between atoms: C_7  and  C_5 
REMARK    6  A    between atoms: C_8  and  C_6 
REMARK    7  A    between atoms: C_9  and  C_7 
REMARK    8  A    between atoms: C_22  and  C_8 
REMARK    9  A    between atoms: C_29  and  C_9 
REMARK   10  A    between atoms: C_28  and  C_18 
REMARK   11  A    between atoms: O_51  and  C_18 
REMARK   12  A    between atoms: O_46  and  C_23 
REMARK   13  A    between atoms: O_51  and  C_29 
REMARK   14  A    between atoms: C_31  and  O_48 
REMARK   15  A    between atoms: C_32  and  O_49 
REMARK   16  A    between atoms: C_33  and  O_50 
REMARK   17  A    between atoms: N_38  and  C_34 
REMARK   18  A    between atoms: C_36  and  N_45 
ROOT
HETATM    1  C   UNK N   1      27.241  14.659   4.964  0.00  0.00     0.010 C 
ENDROOT
BRANCH   1   2
HETATM    2  C   UNK N   1      26.432  15.640   4.145  0.00  0.00     0.000 C 
BRANCH   2   3
HETATM    3  C   UNK N   1      25.555  16.605   4.930  0.00  0.00     0.000 C 
BRANCH   3   4
HETATM    4  C   UNK N   1      24.653  17.557   4.157  0.00  0.00     0.000 C 
BRANCH   4   5
HETATM    5  C   UNK N   1      25.404  18.812   3.690  0.00  0.00     0.000 C 
BRANCH   5   6
HETATM    6  C   UNK N   1      25.672  19.836   4.793  0.00  0.00     0.000 C 
BRANCH   6   7
HETATM    7  C   UNK N   1      27.100  20.391   4.676  0.00  0.00     0.007 C 
BRANCH   7   8
HETATM    8  C   UNK N   1      28.093  19.724   5.644  0.00  0.00     0.015 C 
HETATM    9  C   UNK N   1      28.832  18.558   5.000  0.00  0.00     0.013 C 
HETATM   10  C   UNK N   1      29.022  17.514   6.107  0.00  0.00     0.001 C 
HETATM   11  C   UNK N   1      30.514  17.119   6.268  0.00  0.00    -0.001 C 
HETATM   12  C   UNK N   1      28.399  18.102   7.410  0.00  0.00    -0.014 C 
HETATM   13  C   UNK N   1      30.994  16.240   5.088  0.00  0.00     0.010 C 
HETATM   14  C   UNK N   1      30.655  16.467   7.662  0.00  0.00     0.023 C 
HETATM   15  C   UNK N   1      31.232  14.780   5.489  0.00  0.00     0.039 C 
HETATM   16  C   UNK N   1      32.137  14.739   6.685  0.00  0.00    -0.049 A 
HETATM   17  C   UNK N   1      33.223  13.867   6.730  0.00  0.00     0.044 A 
HETATM   18  C   UNK N   1      31.880  15.608   7.760  0.00  0.00    -0.047 A 
HETATM   19  C   UNK N   1      34.049  13.845   7.858  0.00  0.00     0.066 A 
HETATM   20  C   UNK N   1      33.800  14.712   8.929  0.00  0.00     0.037 A 
HETATM   21  C   UNK N   1      32.719  15.599   8.880  0.00  0.00     0.011 A 
HETATM   22  C   UNK N   1      30.503  17.570   8.745  0.00  0.00     0.010 C 
HETATM   23  C   UNK N   1      29.503  18.685   8.315  0.00  0.00     0.013 C 
HETATM   24  C   UNK N   1      27.631  17.066   8.242  0.00  0.00     0.018 C 
HETATM   25  C   UNK N   1      27.414  19.112   6.863  0.00  0.00     0.130 C 
BRANCH  19  26
HETATM   26  O   UNK N   1      35.078  12.986   7.914  0.00  0.00    -0.361 OA
HETATM   27  H   UNK N   1      35.663  12.905   7.186  0.00  0.00     0.217 HD
ENDBRANCH  19  26
BRANCH  25  28
HETATM   28  O   UNK N   1      27.041  20.068   7.813  0.00  0.00    -0.394 OA
HETATM   29  H   UNK N   1      27.135  20.038   8.778  0.00  0.00     0.210 HD
ENDBRANCH  25  28
ENDBRANCH   7   8
ENDBRANCH   6   7
ENDBRANCH   5   6
ENDBRANCH   4   5
ENDBRANCH   3   4
ENDBRANCH   2   3
ENDBRANCH   1   2
BRANCH   1  30
HETATM   30  C   UNK N   1      26.551  13.428   5.522  0.00  0.00     0.111 C 
BRANCH  30  31
HETATM   31  C   UNK N   1      25.858  12.657   4.414  0.00  0.00     0.258 C 
HETATM   32  O   UNK N   1      26.504  11.834   3.788  0.00  0.00    -0.265 OA
BRANCH  31  33
HETATM   33  O   UNK N   1      24.545  12.842   4.088  0.00  0.00    -0.319 OA
BRANCH  33  34
HETATM   34  C   UNK N   1      23.520  12.876   5.012  0.00  0.00     0.213 C 
BRANCH  34  35
HETATM   35  C   UNK N   1      22.948  14.304   5.115  0.00  0.00     0.180 C 
HETATM   36  C   UNK N   1      21.541  14.376   4.517  0.00  0.00     0.182 C 
HETATM   37  C   UNK N   1      20.753  13.939   5.701  0.00  0.00     0.198 C 
HETATM   38  C   UNK N   1      21.469  14.742   6.784  0.00  0.00     0.262 C 
HETATM   39  O   UNK N   1      22.855  14.685   6.478  0.00  0.00    -0.353 OA
BRANCH  36  40
HETATM   40  O   UNK N   1      21.240  15.708   4.201  0.00  0.00    -0.390 OA
HETATM   41  H   UNK N   1      20.765  16.359   3.661  0.00  0.00     0.210 HD
ENDBRANCH  36  40
BRANCH  37  42
HETATM   42  O   UNK N   1      19.396  14.240   5.576  0.00  0.00    -0.388 OA
HETATM   43  H   UNK N   1      18.994  14.317   4.696  0.00  0.00     0.210 HD
ENDBRANCH  37  42
BRANCH  38  44
HETATM   44  N   UNK N   1      21.196  14.196   8.113  0.00  0.00    -0.297 N 
HETATM   45  C   UNK N   1      20.238  14.605   8.985  0.00  0.00     0.188 A 
HETATM   46  N   UNK N   1      20.273  13.875  10.136  0.00  0.00    -0.346 N 
HETATM   47  C   UNK N   1      21.281  13.005   9.947  0.00  0.00     0.122 A 
ATOM     48  HN  UNK N   1      19.671  13.969  10.954  1.00  0.00     0.167 HD
HETATM   49  C   UNK N   1      21.779  12.023  10.787  0.00  0.00     0.131 A 
HETATM   50  C   UNK N   1      21.829  13.194   8.734  0.00  0.00     0.142 A 
HETATM   51  N   UNK N   1      22.831  11.271  10.342  0.00  0.00    -0.337 N 
HETATM   52  C   UNK N   1      23.373  11.482   9.098  0.00  0.00     0.183 A 
ATOM     53  HN  UNK N   1      23.218  10.544  10.943  1.00  0.00     0.168 HD
HETATM   54  N   UNK N   1      22.867  12.454   8.278  0.00  0.00    -0.336 N 
ATOM     55  HN  UNK N   1      23.261  12.617   7.351  1.00  0.00     0.168 HD
BRANCH  49  56
HETATM   56  N   UNK N   1      21.227  11.803  12.065  0.00  0.00    -0.383 N 
HETATM   57  H   UNK N   1      20.857  10.930  12.331  0.00  0.00     0.157 HD
HETATM   58  H   UNK N   1      21.212  12.545  12.711  0.00  0.00     0.157 HD
ENDBRANCH  49  56
ENDBRANCH  38  44
ENDBRANCH  34  35
ENDBRANCH  33  34
ENDBRANCH  31  33
ENDBRANCH  30  31
ENDBRANCH   1  30
TORSDOF 18
ENDMDL
MODEL 7
REMARK VINA RESULT:      -7.7      1.952      3.155
REMARK  18 active torsions:
REMARK  status: ('A' for Active; 'I' for Inactive)
REMARK    1  A    between atoms: C_3  and  C_2 
REMARK    2  A    between atoms: C_4  and  C_2 
REMARK    3  A    between atoms: C_5  and  C_3 
REMARK    4  A    between atoms: C_6  and  C_4 
REMARK    5  A    between atoms: C_7  and  C_5 
REMARK    6  A    between atoms: C_8  and  C_6 
REMARK    7  A    between atoms: C_9  and  C_7 
REMARK    8  A    between atoms: C_22  and  C_8 
REMARK    9  A    between atoms: C_29  and  C_9 
REMARK   10  A    between atoms: C_28  and  C_18 
REMARK   11  A    between atoms: O_51  and  C_18 
REMARK   12  A    between atoms: O_46  and  C_23 
REMARK   13  A    between atoms: O_51  and  C_29 
REMARK   14  A    between atoms: C_31  and  O_48 
REMARK   15  A    between atoms: C_32  and  O_49 
REMARK   16  A    between atoms: C_33  and  O_50 
REMARK   17  A    between atoms: N_38  and  C_34 
REMARK   18  A    between atoms: C_36  and  N_45 
ROOT
HETATM    1  C   UNK N   1      36.801  11.948   7.898  0.00  0.00     0.010 C 
ENDROOT
BRANCH   1   2
HETATM    2  C   UNK N   1      37.103  11.603   9.339  0.00  0.00     0.000 C 
BRANCH   2   3
HETATM    3  C   UNK N   1      38.063  12.536  10.064  0.00  0.00     0.000 C 
BRANCH   3   4
HETATM    4  C   UNK N   1      37.516  13.832  10.642  0.00  0.00     0.000 C 
BRANCH   4   5
HETATM    5  C   UNK N   1      36.020  13.733  10.970  0.00  0.00     0.000 C 
BRANCH   5   6
HETATM    6  C   UNK N   1      35.571  14.596  12.149  0.00  0.00     0.000 C 
BRANCH   6   7
HETATM    7  C   UNK N   1      36.401  14.271  13.401  0.00  0.00     0.007 C 
BRANCH   7   8
HETATM    8  C   UNK N   1      35.835  13.093  14.215  0.00  0.00     0.015 C 
HETATM    9  C   UNK N   1      35.825  13.377  15.712  0.00  0.00     0.013 C 
HETATM   10  C   UNK N   1      36.133  12.040  16.398  0.00  0.00     0.001 C 
HETATM   11  C   UNK N   1      35.043  11.669  17.436  0.00  0.00    -0.001 C 
HETATM   12  C   UNK N   1      36.302  10.971  15.275  0.00  0.00    -0.014 C 
HETATM   13  C   UNK N   1      35.138  12.561  18.698  0.00  0.00     0.010 C 
HETATM   14  C   UNK N   1      35.179  10.153  17.703  0.00  0.00     0.023 C 
HETATM   15  C   UNK N   1      35.654  11.804  19.927  0.00  0.00     0.039 C 
HETATM   16  C   UNK N   1      34.834  10.563  20.121  0.00  0.00    -0.049 A 
HETATM   17  C   UNK N   1      34.340  10.223  21.380  0.00  0.00     0.044 A 
HETATM   18  C   UNK N   1      34.557   9.752  19.008  0.00  0.00    -0.047 A 
HETATM   19  C   UNK N   1      33.582   9.059  21.535  0.00  0.00     0.066 A 
HETATM   20  C   UNK N   1      33.299   8.250  20.428  0.00  0.00     0.037 A 
HETATM   21  C   UNK N   1      33.781   8.597  19.161  0.00  0.00     0.011 A 
HETATM   22  C   UNK N   1      34.693   9.380  16.446  0.00  0.00     0.010 C 
HETATM   23  C   UNK N   1      35.009  10.145  15.126  0.00  0.00     0.013 C 
HETATM   24  C   UNK N   1      37.445   9.982  15.540  0.00  0.00     0.018 C 
HETATM   25  C   UNK N   1      36.665  11.823  14.078  0.00  0.00     0.130 C 
BRANCH  19  26
HETATM   26  O   UNK N   1      33.130   8.714  22.751  0.00  0.00    -0.361 OA
HETATM   27  H   UNK N   1      33.492   9.115  23.517  0.00  0.00     0.217 HD
ENDBRANCH  19  26
BRANCH  25  28
HETATM   28  O   UNK N   1      36.450  11.163  12.864  0.00  0.00    -0.394 OA
HETATM   29  H   UNK N   1      35.879  11.420  12.123  0.00  0.00     0.210 HD
ENDBRANCH  25  28
ENDBRANCH   7   8
ENDBRANCH   6   7
ENDBRANCH   5   6
ENDBRANCH   4   5
ENDBRANCH   3   4
ENDBRANCH   2   3
ENDBRANCH   1   2
BRANCH   1  30
HETATM   30  C   UNK N   1      35.453  11.561   7.319  0.00  0.00     0.111 C 
BRANCH  30  31
HETATM   31  C   UNK N   1      34.374  12.517   7.795  0.00  0.00     0.258 C 
HETATM   32  O   UNK N   1      33.702  12.198   8.761  0.00  0.00    -0.265 OA
BRANCH  31  33
HETATM   33  O   UNK N   1      34.123  13.715   7.190  0.00  0.00    -0.319 OA
BRANCH  33  34
HETATM   34  C   UNK N   1      34.920  14.833   7.337  0.00  0.00     0.213 C 
BRANCH  34  35
HETATM   35  C   UNK N   1      34.584  15.550   8.659  0.00  0.00     0.180 C 
HETATM   36  C   UNK N   1      35.151  16.972   8.672  0.00  0.00     0.182 C 
HETATM   37  C   UNK N   1      34.047  17.678   7.968  0.00  0.00     0.198 C 
HETATM   38  C   UNK N   1      32.855  17.024   8.661  0.00  0.00     0.262 C 
HETATM   39  O   UNK N   1      33.177  15.648   8.806  0.00  0.00    -0.353 OA
BRANCH  36  40
HETATM   40  O   UNK N   1      35.246  17.421   9.996  0.00  0.00    -0.390 OA
HETATM   41  H   UNK N   1      34.982  17.360  10.927  0.00  0.00     0.210 HD
ENDBRANCH  36  40
BRANCH  37  42
HETATM   42  O   UNK N   1      34.111  19.062   8.136  0.00  0.00    -0.388 OA
HETATM   43  H   UNK N   1      34.219  19.641   7.365  0.00  0.00     0.210 HD
ENDBRANCH  37  42
BRANCH  38  44
HETATM   44  N   UNK N   1      31.629  17.204   7.884  0.00  0.00    -0.297 N 
HETATM   45  C   UNK N   1      31.479  17.047   6.544  0.00  0.00     0.188 A 
HETATM   46  N   UNK N   1      30.197  17.303   6.155  0.00  0.00    -0.346 N 
HETATM   47  C   UNK N   1      29.563  17.623   7.297  0.00  0.00     0.122 A 
ATOM     48  HN  UNK N   1      29.809  17.261   5.213  1.00  0.00     0.167 HD
HETATM   49  C   UNK N   1      28.243  17.985   7.511  0.00  0.00     0.131 A 
HETATM   50  C   UNK N   1      30.419  17.559   8.332  0.00  0.00     0.142 A 
HETATM   51  N   UNK N   1      27.855  18.270   8.791  0.00  0.00    -0.337 N 
HETATM   52  C   UNK N   1      28.748  18.195   9.832  0.00  0.00     0.183 A 
ATOM     53  HN  UNK N   1      26.889  18.542   8.974  1.00  0.00     0.168 HD
HETATM   54  N   UNK N   1      30.048  17.833   9.605  0.00  0.00    -0.336 N 
ATOM     55  HN  UNK N   1      30.718  17.772  10.372  1.00  0.00     0.168 HD
BRANCH  49  56
HETATM   56  N   UNK N   1      27.323  18.064   6.447  0.00  0.00    -0.383 N 
HETATM   57  H   UNK N   1      27.167  17.310   5.833  0.00  0.00     0.157 HD
HETATM   58  H   UNK N   1      26.819  18.900   6.314  0.00  0.00     0.157 HD
ENDBRANCH  49  56
ENDBRANCH  38  44
ENDBRANCH  34  35
ENDBRANCH  33  34
ENDBRANCH  31  33
ENDBRANCH  30  31
ENDBRANCH   1  30
TORSDOF 18
ENDMDL
MODEL 8
REMARK VINA RESULT:      -7.5     18.032     22.835
REMARK  18 active torsions:
REMARK  status: ('A' for Active; 'I' for Inactive)
REMARK    1  A    between atoms: C_3  and  C_2 
REMARK    2  A    between atoms: C_4  and  C_2 
REMARK    3  A    between atoms: C_5  and  C_3 
REMARK    4  A    between atoms: C_6  and  C_4 
REMARK    5  A    between atoms: C_7  and  C_5 
REMARK    6  A    between atoms: C_8  and  C_6 
REMARK    7  A    between atoms: C_9  and  C_7 
REMARK    8  A    between atoms: C_22  and  C_8 
REMARK    9  A    between atoms: C_29  and  C_9 
REMARK   10  A    between atoms: C_28  and  C_18 
REMARK   11  A    between atoms: O_51  and  C_18 
REMARK   12  A    between atoms: O_46  and  C_23 
REMARK   13  A    between atoms: O_51  and  C_29 
REMARK   14  A    between atoms: C_31  and  O_48 
REMARK   15  A    between atoms: C_32  and  O_49 
REMARK   16  A    between atoms: C_33  and  O_50 
REMARK   17  A    between atoms: N_38  and  C_34 
REMARK   18  A    between atoms: C_36  and  N_45 
ROOT
HETATM    1  C   UNK N   1      32.014  20.398 -10.450  0.00  0.00     0.010 C 
ENDROOT
BRANCH   1   2
HETATM    2  C   UNK N   1      30.775  19.729 -11.002  0.00  0.00     0.000 C 
BRANCH   2   3
HETATM    3  C   UNK N   1      30.385  18.405 -10.360  0.00  0.00     0.000 C 
BRANCH   3   4
HETATM    4  C   UNK N   1      30.570  18.246  -8.858  0.00  0.00     0.000 C 
BRANCH   4   5
HETATM    5  C   UNK N   1      29.252  18.423  -8.092  0.00  0.00     0.000 C 
BRANCH   5   6
HETATM    6  C   UNK N   1      29.026  19.829  -7.537  0.00  0.00     0.000 C 
BRANCH   6   7
HETATM    7  C   UNK N   1      28.206  20.673  -8.526  0.00  0.00     0.007 C 
BRANCH   7   8
HETATM    8  C   UNK N   1      28.330  22.187  -8.282  0.00  0.00     0.015 C 
HETATM    9  C   UNK N   1      27.442  22.663  -7.139  0.00  0.00     0.013 C 
HETATM   10  C   UNK N   1      26.951  24.060  -7.538  0.00  0.00     0.001 C 
HETATM   11  C   UNK N   1      27.277  25.111  -6.445  0.00  0.00    -0.001 C 
HETATM   12  C   UNK N   1      27.586  24.396  -8.922  0.00  0.00    -0.014 C 
HETATM   13  C   UNK N   1      26.370  24.934  -5.203  0.00  0.00     0.010 C 
HETATM   14  C   UNK N   1      27.188  26.499  -7.120  0.00  0.00     0.023 C 
HETATM   15  C   UNK N   1      25.331  26.051  -5.058  0.00  0.00     0.039 C 
HETATM   16  C   UNK N   1      26.025  27.380  -5.118  0.00  0.00    -0.049 A 
HETATM   17  C   UNK N   1      25.738  28.379  -4.189  0.00  0.00     0.044 A 
HETATM   18  C   UNK N   1      26.985  27.599  -6.121  0.00  0.00    -0.047 A 
HETATM   19  C   UNK N   1      26.396  29.610  -4.269  0.00  0.00     0.066 A 
HETATM   20  C   UNK N   1      27.357  29.831  -5.264  0.00  0.00     0.037 A 
HETATM   21  C   UNK N   1      27.658  28.825  -6.188  0.00  0.00     0.011 A 
HETATM   22  C   UNK N   1      28.395  26.662  -8.084  0.00  0.00     0.010 C 
HETATM   23  C   UNK N   1      28.812  25.312  -8.739  0.00  0.00     0.013 C 
HETATM   24  C   UNK N   1      26.622  25.114  -9.877  0.00  0.00     0.018 C 
HETATM   25  C   UNK N   1      27.884  23.020  -9.477  0.00  0.00     0.130 C 
BRANCH  19  26
HETATM   26  O   UNK N   1      26.100  30.583  -3.393  0.00  0.00    -0.361 OA
HETATM   27  H   UNK N   1      25.460  31.232  -3.612  0.00  0.00     0.217 HD
ENDBRANCH  19  26
BRANCH  25  28
HETATM   28  O   UNK N   1      28.834  23.049 -10.503  0.00  0.00    -0.394 OA
HETATM   29  H   UNK N   1      29.001  22.393 -11.198  0.00  0.00     0.210 HD
ENDBRANCH  25  28
ENDBRANCH   7   8
ENDBRANCH   6   7
ENDBRANCH   5   6
ENDBRANCH   4   5
ENDBRANCH   3   4
ENDBRANCH   2   3
ENDBRANCH   1   2
BRANCH   1  30
HETATM   30  C   UNK N   1      31.953  21.871 -10.092  0.00  0.00     0.111 C 
BRANCH  30  31
HETATM   31  C   UNK N   1      32.486  22.103  -8.691  0.00  0.00     0.258 C 
HETATM   32  O   UNK N   1      33.154  23.101  -8.482  0.00  0.00    -0.265 OA
BRANCH  31  33
HETATM   33  O   UNK N   1      32.253  21.244  -7.655  0.00  0.00    -0.319 OA
BRANCH  33  34
HETATM   34  C   UNK N   1      33.225  20.827  -6.767  0.00  0.00     0.213 C 
BRANCH  34  35
HETATM   35  C   UNK N   1      32.608  19.892  -5.709  0.00  0.00     0.180 C 
HETATM   36  C   UNK N   1      33.535  19.742  -4.500  0.00  0.00     0.182 C 
HETATM   37  C   UNK N   1      33.121  20.945  -3.729  0.00  0.00     0.198 C 
HETATM   38  C   UNK N   1      31.609  20.842  -3.902  0.00  0.00     0.262 C 
HETATM   39  O   UNK N   1      31.383  20.437  -5.245  0.00  0.00    -0.353 OA
BRANCH  36  40
HETATM   40  O   UNK N   1      33.196  18.577  -3.799  0.00  0.00    -0.390 OA
HETATM   41  H   UNK N   1      32.876  17.662  -3.790  0.00  0.00     0.210 HD
ENDBRANCH  36  40
BRANCH  37  42
HETATM   42  O   UNK N   1      33.544  20.894  -2.400  0.00  0.00    -0.388 OA
HETATM   43  H   UNK N   1      32.912  21.052  -1.682  0.00  0.00     0.210 HD
ENDBRANCH  37  42
BRANCH  38  44
HETATM   44  N   UNK N   1      30.956  22.119  -3.615  0.00  0.00    -0.297 N 
HETATM   45  C   UNK N   1      30.179  22.418  -2.543  0.00  0.00     0.188 A 
HETATM   46  N   UNK N   1      29.729  23.704  -2.601  0.00  0.00    -0.346 N 
HETATM   47  C   UNK N   1      30.252  24.187  -3.742  0.00  0.00     0.122 A 
ATOM     48  HN  UNK N   1      29.132  24.189  -1.931  1.00  0.00     0.167 HD
HETATM   49  C   UNK N   1      30.126  25.440  -4.319  0.00  0.00     0.131 A 
HETATM   50  C   UNK N   1      30.991  23.240  -4.346  0.00  0.00     0.142 A 
HETATM   51  N   UNK N   1      30.768  25.667  -5.505  0.00  0.00    -0.337 N 
HETATM   52  C   UNK N   1      31.518  24.684  -6.102  0.00  0.00     0.183 A 
ATOM     53  HN  UNK N   1      30.688  26.581  -5.952  1.00  0.00     0.168 HD
HETATM   54  N   UNK N   1      31.636  23.452  -5.517  0.00  0.00    -0.336 N 
ATOM     55  HN  UNK N   1      32.193  22.716  -5.951  1.00  0.00     0.168 HD
BRANCH  49  56
HETATM   56  N   UNK N   1      29.357  26.453  -3.712  0.00  0.00    -0.383 N 
HETATM   57  H   UNK N   1      28.404  26.580  -3.920  0.00  0.00     0.157 HD
HETATM   58  H   UNK N   1      29.788  27.051  -3.059  0.00  0.00     0.157 HD
ENDBRANCH  49  56
ENDBRANCH  38  44
ENDBRANCH  34  35
ENDBRANCH  33  34
ENDBRANCH  31  33
ENDBRANCH  30  31
ENDBRANCH   1  30
TORSDOF 18
ENDMDL
MODEL 9
REMARK VINA RESULT:      -7.5      6.871     13.416
REMARK  18 active torsions:
REMARK  status: ('A' for Active; 'I' for Inactive)
REMARK    1  A    between atoms: C_3  and  C_2 
REMARK    2  A    between atoms: C_4  and  C_2 
REMARK    3  A    between atoms: C_5  and  C_3 
REMARK    4  A    between atoms: C_6  and  C_4 
REMARK    5  A    between atoms: C_7  and  C_5 
REMARK    6  A    between atoms: C_8  and  C_6 
REMARK    7  A    between atoms: C_9  and  C_7 
REMARK    8  A    between atoms: C_22  and  C_8 
REMARK    9  A    between atoms: C_29  and  C_9 
REMARK   10  A    between atoms: C_28  and  C_18 
REMARK   11  A    between atoms: O_51  and  C_18 
REMARK   12  A    between atoms: O_46  and  C_23 
REMARK   13  A    between atoms: O_51  and  C_29 
REMARK   14  A    between atoms: C_31  and  O_48 
REMARK   15  A    between atoms: C_32  and  O_49 
REMARK   16  A    between atoms: C_33  and  O_50 
REMARK   17  A    between atoms: N_38  and  C_34 
REMARK   18  A    between atoms: C_36  and  N_45 
ROOT
HETATM    1  C   UNK N   1      20.782  18.846   2.231  0.00  0.00     0.010 C 
ENDROOT
BRANCH   1   2
HETATM    2  C   UNK N   1      21.835  19.304   3.215  0.00  0.00     0.000 C 
BRANCH   2   3
HETATM    3  C   UNK N   1      22.628  20.542   2.818  0.00  0.00     0.000 C 
BRANCH   3   4
HETATM    4  C   UNK N   1      24.135  20.536   3.031  0.00  0.00     0.000 C 
BRANCH   4   5
HETATM    5  C   UNK N   1      24.625  19.221   3.654  0.00  0.00     0.000 C 
BRANCH   5   6
HETATM    6  C   UNK N   1      25.401  19.391   4.960  0.00  0.00     0.000 C 
BRANCH   6   7
HETATM    7  C   UNK N   1      26.771  20.033   4.692  0.00  0.00     0.007 C 
BRANCH   7   8
HETATM    8  C   UNK N   1      27.875  19.526   5.637  0.00  0.00     0.015 C 
HETATM    9  C   UNK N   1      28.606  18.314   5.074  0.00  0.00     0.013 C 
HETATM   10  C   UNK N   1      28.941  17.425   6.278  0.00  0.00     0.001 C 
HETATM   11  C   UNK N   1      30.457  17.104   6.345  0.00  0.00    -0.001 C 
HETATM   12  C   UNK N   1      28.410  18.151   7.552  0.00  0.00    -0.014 C 
HETATM   13  C   UNK N   1      30.870  16.101   5.241  0.00  0.00     0.010 C 
HETATM   14  C   UNK N   1      30.751  16.638   7.788  0.00  0.00     0.023 C 
HETATM   15  C   UNK N   1      31.208  14.711   5.793  0.00  0.00     0.039 C 
HETATM   16  C   UNK N   1      32.217  14.852   6.896  0.00  0.00    -0.049 A 
HETATM   17  C   UNK N   1      33.341  14.029   6.944  0.00  0.00     0.044 A 
HETATM   18  C   UNK N   1      32.018  15.839   7.875  0.00  0.00    -0.047 A 
HETATM   19  C   UNK N   1      34.263  14.177   7.984  0.00  0.00     0.066 A 
HETATM   20  C   UNK N   1      34.072  15.163   8.960  0.00  0.00     0.037 A 
HETATM   21  C   UNK N   1      32.952  16.000   8.905  0.00  0.00     0.011 A 
HETATM   22  C   UNK N   1      30.646  17.862   8.739  0.00  0.00     0.010 C 
HETATM   23  C   UNK N   1      29.562  18.879   8.271  0.00  0.00     0.013 C 
HETATM   24  C   UNK N   1      27.766  17.202   8.572  0.00  0.00     0.018 C 
HETATM   25  C   UNK N   1      27.335  19.050   6.980  0.00  0.00     0.130 C 
BRANCH  19  26
HETATM   26  O   UNK N   1      35.332  13.367   8.049  0.00  0.00    -0.361 OA
HETATM   27  H   UNK N   1      35.698  13.140   8.880  0.00  0.00     0.217 HD
ENDBRANCH  19  26
BRANCH  25  28
HETATM   28  O   UNK N   1      27.005  20.105   7.837  0.00  0.00    -0.394 OA
HETATM   29  H   UNK N   1      27.406  20.350   8.685  0.00  0.00     0.210 HD
ENDBRANCH  25  28
ENDBRANCH   7   8
ENDBRANCH   6   7
ENDBRANCH   5   6
ENDBRANCH   4   5
ENDBRANCH   3   4
ENDBRANCH   2   3
ENDBRANCH   1   2
BRANCH   1  30
HETATM   30  C   UNK N   1      19.945  17.626   2.570  0.00  0.00     0.111 C 
BRANCH  30  31
HETATM   31  C   UNK N   1      20.801  16.557   3.224  0.00  0.00     0.258 C 
HETATM   32  O   UNK N   1      21.656  16.007   2.551  0.00  0.00    -0.265 OA
BRANCH  31  33
HETATM   33  O   UNK N   1      20.655  16.183   4.530  0.00  0.00    -0.319 OA
BRANCH  33  34
HETATM   34  C   UNK N   1      19.772  16.781   5.407  0.00  0.00     0.213 C 
BRANCH  34  35
HETATM   35  C   UNK N   1      20.502  17.172   6.707  0.00  0.00     0.180 C 
HETATM   36  C   UNK N   1      19.642  16.864   7.934  0.00  0.00     0.182 C 
HETATM   37  C   UNK N   1      19.996  15.432   8.125  0.00  0.00     0.198 C 
HETATM   38  C   UNK N   1      21.504  15.519   7.903  0.00  0.00     0.262 C 
HETATM   39  O   UNK N   1      21.701  16.422   6.825  0.00  0.00    -0.353 OA
BRANCH  36  40
HETATM   40  O   UNK N   1      20.097  17.624   9.021  0.00  0.00    -0.390 OA
HETATM   41  H   UNK N   1      19.963  18.336   9.665  0.00  0.00     0.210 HD
ENDBRANCH  36  40
BRANCH  37  42
HETATM   42  O   UNK N   1      19.635  14.960   9.387  0.00  0.00    -0.388 OA
HETATM   43  H   UNK N   1      18.739  14.623   9.543  0.00  0.00     0.210 HD
ENDBRANCH  37  42
BRANCH  38  44
HETATM   44  N   UNK N   1      22.070  14.204   7.605  0.00  0.00    -0.297 N 
HETATM   45  C   UNK N   1      22.318  13.679   6.378  0.00  0.00     0.188 A 
HETATM   46  N   UNK N   1      22.844  12.424   6.473  0.00  0.00    -0.346 N 
HETATM   47  C   UNK N   1      22.911  12.193   7.797  0.00  0.00     0.122 A 
ATOM     48  HN  UNK N   1      23.122  11.803   5.714  1.00  0.00     0.167 HD
HETATM   49  C   UNK N   1      23.356  11.075   8.484  0.00  0.00     0.131 A 
HETATM   50  C   UNK N   1      22.452  13.260   8.474  0.00  0.00     0.142 A 
HETATM   51  N   UNK N   1      23.308  11.101   9.850  0.00  0.00    -0.337 N 
HETATM   52  C   UNK N   1      22.837  12.205  10.519  0.00  0.00     0.183 A 
ATOM     53  HN  UNK N   1      23.627  10.290  10.379  1.00  0.00     0.168 HD
HETATM   54  N   UNK N   1      22.405  13.302   9.826  0.00  0.00    -0.336 N 
ATOM     55  HN  UNK N   1      22.055  14.127  10.314  1.00  0.00     0.168 HD
BRANCH  49  56
HETATM   56  N   UNK N   1      23.839   9.940   7.803  0.00  0.00    -0.383 N 
HETATM   57  H   UNK N   1      24.799   9.727   7.758  0.00  0.00     0.157 HD
HETATM   58  H   UNK N   1      23.196   9.342   7.358  0.00  0.00     0.157 HD
ENDBRANCH  49  56
ENDBRANCH  38  44
ENDBRANCH  34  35
ENDBRANCH  33  34
ENDBRANCH  31  33
ENDBRANCH  30  31
ENDBRANCH   1  30
TORSDOF 18
ENDMDL
