REMARK  18 active torsions:
REMARK  status: ('A' for Active; 'I' for Inactive)
REMARK    1  A    between atoms: C_5  and  C_3 
REMARK    2  A    between atoms: O_19  and  C_3 
REMARK    3  A    between atoms: C_6  and  C_4 
REMARK    4  A    between atoms: O_31  and  C_4 
REMARK    5  A    between atoms: O_20  and  C_7 
REMARK    6  A    between atoms: C_8  and  O_21 
REMARK    7  A    between atoms: C_9  and  O_22 
REMARK    8  A    between atoms: C_10  and  O_23 
REMARK    9  A    between atoms: C_11  and  O_24 
REMARK   10  A    between atoms: C_12  and  O_25 
REMARK   11  A    between atoms: C_13  and  N_18 
REMARK   12  A    between atoms: C_14  and  O_34 
REMARK   13  A    between atoms: P_36  and  O_27 
REMARK   14  A    between atoms: P_37  and  O_29 
REMARK   15  A    between atoms: P_36  and  O_31 
REMARK   16  A    between atoms: P_37  and  O_34 
REMARK   17  A    between atoms: P_36  and  O_35 
REMARK   18  A    between atoms: P_37  and  O_35 
ROOT
HETATM    1  O   UNK N   1       3.106   7.919  -2.171  0.00  0.00    -0.631 OA
HETATM    2  P   UNK N   1       1.814   7.086  -1.963  0.00  0.00     0.401 P 
ENDROOT
BRANCH   2   3
HETATM    3  O   UNK N   1       1.719   8.163  -3.319  0.00  0.00    -0.307 OA
HETATM    4  H   UNK N   1       2.214   8.511  -4.077  0.00  0.00     0.222 HD
ENDBRANCH   2   3
BRANCH   2   5
HETATM    5  O   UNK N   1       0.764   8.210  -1.152  0.00  0.00    -0.294 OA
BRANCH   5   6
HETATM    6  C   UNK N   1       0.043   7.394  -0.281  0.00  0.00     0.215 C 
BRANCH   6   7
HETATM    7  C   UNK N   1      -1.372   7.103  -0.715  0.00  0.00     0.180 C 
HETATM    8  C   UNK N   1      -2.358   8.028  -0.009  0.00  0.00     0.182 C 
HETATM    9  C   UNK N   1      -3.551   7.120   0.034  0.00  0.00     0.198 C 
HETATM   10  C   UNK N   1      -2.833   5.843   0.483  0.00  0.00     0.263 C 
HETATM   11  O   UNK N   1      -1.658   5.786  -0.295  0.00  0.00    -0.353 OA
BRANCH   8  12
HETATM   12  O   UNK N   1      -2.588   9.218  -0.702  0.00  0.00    -0.390 OA
HETATM   13  H   UNK N   1      -1.952   9.770  -1.184  0.00  0.00     0.210 HD
ENDBRANCH   8  12
BRANCH   9  14
HETATM   14  O   UNK N   1      -4.517   7.557   0.944  0.00  0.00    -0.388 OA
HETATM   15  H   UNK N   1      -4.590   8.289   1.576  0.00  0.00     0.210 HD
ENDBRANCH   9  14
BRANCH  10  16
HETATM   16  N   UNK N   1      -3.544   4.551   0.373  0.00  0.00    -0.280 N 
HETATM   17  C   UNK N   1      -2.808   3.448   0.705  0.00  0.00     0.103 A 
HETATM   18  C   UNK N   1      -3.339   2.168   0.616  0.00  0.00     0.073 A 
HETATM   19  C   UNK N   1      -4.646   2.018   0.185  0.00  0.00     0.144 A 
HETATM   20  N   UNK N   1      -5.384   3.112  -0.130  0.00  0.00    -0.289 N 
HETATM   21  C   UNK N   1      -4.858   4.374  -0.043  0.00  0.00     0.330 A 
ATOM     22  HN  UNK N   1      -6.350   2.992  -0.438  1.00  0.00     0.172 HD
HETATM   23  O   UNK N   1      -5.563   5.323  -0.334  0.00  0.00    -0.246 OA
BRANCH  19  24
HETATM   24  O   UNK N   1      -5.181   0.792   0.080  0.00  0.00    -0.346 OA
HETATM   25  H   UNK N   1      -6.110   0.688   0.007  0.00  0.00     0.219 HD
ENDBRANCH  19  24
ENDBRANCH  10  16
ENDBRANCH   6   7
ENDBRANCH   5   6
ENDBRANCH   2   5
BRANCH   2  26
HETATM   26  O   UNK N   1       2.926   6.861  -0.590  0.00  0.00    -0.195 OA
BRANCH  26  27
HETATM   27  P   UNK N   1       2.846   8.048   0.730  0.00  0.00     0.404 P 
HETATM   28  O   UNK N   1       4.236   8.006   1.416  0.00  0.00    -0.631 OA
BRANCH  27  29
HETATM   29  O   UNK N   1       1.786   7.473   1.979  0.00  0.00    -0.307 OA
HETATM   30  H   UNK N   1       1.211   7.826   2.677  0.00  0.00     0.222 HD
ENDBRANCH  27  29
BRANCH  27  31
HETATM   31  O   UNK N   1       2.396   9.719   0.344  0.00  0.00    -0.263 OA
BRANCH  31  32
HETATM   32  C   UNK N   1       3.495  10.543   0.009  0.00  0.00     0.303 C 
HETATM   33  C   UNK N   1       3.034  12.028   0.030  0.00  0.00     0.205 C 
HETATM   34  C   UNK N   1       4.254  12.997   0.062  0.00  0.00     0.183 C 
HETATM   35  C   UNK N   1       5.492  12.277  -0.473  0.00  0.00     0.180 C 
HETATM   36  C   UNK N   1       5.747  11.064   0.473  0.00  0.00     0.179 C 
HETATM   37  O   UNK N   1       4.562  10.405   0.922  0.00  0.00    -0.348 OA
BRANCH  33  38
HETATM   38  O   UNK N   1       2.228  12.263  -1.088  0.00  0.00    -0.388 OA
HETATM   39  H   UNK N   1       2.090  12.829  -1.864  0.00  0.00     0.210 HD
ENDBRANCH  33  38
BRANCH  34  40
HETATM   40  O   UNK N   1       3.989  14.172  -0.648  0.00  0.00    -0.390 OA
HETATM   41  H   UNK N   1       4.603  14.739  -1.140  0.00  0.00     0.210 HD
ENDBRANCH  34  40
BRANCH  35  42
HETATM   42  O   UNK N   1       6.607  13.120  -0.484  0.00  0.00    -0.390 OA
HETATM   43  H   UNK N   1       7.501  12.742  -0.492  0.00  0.00     0.210 HD
ENDBRANCH  35  42
BRANCH  36  44
HETATM   44  C   UNK N   1       6.706  10.069  -0.171  0.00  0.00     0.198 C 
BRANCH  44  45
HETATM   45  O   UNK N   1       6.958   9.005   0.697  0.00  0.00    -0.398 OA
HETATM   46  H   UNK N   1       6.405   8.484   1.300  0.00  0.00     0.209 HD
ENDBRANCH  44  45
ENDBRANCH  36  44
ENDBRANCH  31  32
ENDBRANCH  27  31
ENDBRANCH  26  27
ENDBRANCH   2  26
TORSDOF 18
