MODEL 1
REMARK VINA RESULT:      -7.6      0.000      0.000
REMARK  21 active torsions:
REMARK  status: ('A' for Active; 'I' for Inactive)
REMARK    1  A    between atoms: C_23  and  C_19 
REMARK    2  A    between atoms: C_28  and  C_19 
REMARK    3  A    between atoms: C_26  and  C_20 
REMARK    4  A    between atoms: C_30  and  C_20 
REMARK    5  A    between atoms: C_27  and  C_22 
REMARK    6  A    between atoms: N_41  and  C_22 
REMARK    7  A    between atoms: C_32  and  C_24 
REMARK    8  A    between atoms: C_33  and  C_25 
REMARK    9  A    between atoms: C_34  and  C_26 
REMARK   10  A    between atoms: C_30  and  C_28 
REMARK   11  A    between atoms: C_28  and  N_43 
REMARK   12  A    between atoms: C_29  and  C_35 
REMARK   13  A    between atoms: C_30  and  O_51 
REMARK   14  A    between atoms: O_52  and  C_31 
REMARK   15  A    between atoms: C_36  and  C_32 
REMARK   16  A    between atoms: C_32  and  N_47 
REMARK   17  A    between atoms: C_34  and  O_53 
REMARK   18  A    between atoms: C_35  and  O_54 
REMARK   19  A    between atoms: O_55  and  C_36 
REMARK   20  A    between atoms: C_37  and  O_56 
REMARK   21  A    between atoms: C_38  and  O_57 
ROOT
HETATM    1  C   UNK N   1      34.230  15.880   9.706  0.00  0.00     0.135 C 
HETATM    2  N   UNK N   1      33.185  16.048   8.975  0.00  0.00    -0.366 N 
ATOM      3  HN  UNK N   1      32.888  15.249   8.417  1.00  0.00     0.161 HD
ENDROOT
BRANCH   2   4
HETATM    4  C   UNK N   1      32.389  17.242   8.861  0.00  0.00     0.112 C 
BRANCH   4   5
HETATM    5  C   UNK N   1      30.927  16.777   8.700  0.00  0.00     0.031 C 
BRANCH   5   6
HETATM    6  C   UNK N   1      29.920  17.493   9.599  0.00  0.00    -0.021 C 
HETATM    7  C   UNK N   1      30.078  18.996   9.478  0.00  0.00     0.009 C 
HETATM    8  C   UNK N   1      28.517  17.138   9.152  0.00  0.00     0.009 C 
ENDBRANCH   5   6
ENDBRANCH   4   5
BRANCH   4   9
HETATM    9  C   UNK N   1      32.925  17.977   7.601  0.00  0.00     0.141 C 
BRANCH   9  10
HETATM   10  C   UNK N   1      33.302  17.123   6.349  0.00  0.00     0.046 C 
BRANCH  10  11
HETATM   11  C   UNK N   1      32.347  16.307   5.441  0.00  0.00     0.058 C 
HETATM   12  C   UNK N   1      33.092  16.148   4.131  0.00  0.00     0.018 C 
BRANCH  11  13
HETATM   13  C   UNK N   1      31.781  14.910   5.782  0.00  0.00     0.115 C 
HETATM   14  N   UNK N   1      30.679  14.390   5.329  0.00  0.00    -0.362 N 
ATOM     15  HN  UNK N   1      30.472  13.434   5.618  1.00  0.00     0.162 HD
BRANCH  14  16
HETATM   16  C   UNK N   1      29.719  15.026   4.459  0.00  0.00     0.161 C 
BRANCH  16  17
HETATM   17  C   UNK N   1      29.442  14.179   3.211  0.00  0.00     0.008 C 
HETATM   18  C   UNK N   1      28.750  15.029   2.152  0.00  0.00     0.012 C 
HETATM   19  C   UNK N   1      30.738  13.662   2.604  0.00  0.00     0.012 C 
ENDBRANCH  16  17
BRANCH  16  20
HETATM   20  C   UNK N   1      28.471  15.407   5.248  0.00  0.00     0.135 C 
HETATM   21  N   UNK N   1      28.197  16.620   5.591  0.00  0.00    -0.368 N 
ATOM     22  HN  UNK N   1      27.309  16.788   6.064  1.00  0.00     0.161 HD
BRANCH  21  23
HETATM   23  C   UNK N   1      29.053  17.756   5.357  0.00  0.00     0.160 C 
BRANCH  23  24
HETATM   24  C   UNK N   1      28.183  18.967   5.384  0.00  0.00    -0.041 A 
HETATM   25  C   UNK N   1      27.574  19.425   4.212  0.00  0.00     0.009 A 
HETATM   26  C   UNK N   1      26.683  20.503   4.265  0.00  0.00     0.001 A 
HETATM   27  C   UNK N   1      26.398  21.122   5.488  0.00  0.00     0.000 A 
HETATM   28  C   UNK N   1      27.008  20.666   6.658  0.00  0.00     0.001 A 
HETATM   29  C   UNK N   1      27.891  19.588   6.603  0.00  0.00     0.009 A 
ENDBRANCH  23  24
ENDBRANCH  21  23
BRANCH  20  30
HETATM   30  O   UNK N   1      27.612  14.438   5.614  0.00  0.00    -0.348 OA
HETATM   31  H   UNK N   1      27.229  13.586   5.675  0.00  0.00     0.219 HD
ENDBRANCH  20  30
ENDBRANCH  16  20
ENDBRANCH  14  16
BRANCH  13  32
HETATM   32  O   UNK N   1      32.502  14.168   6.649  0.00  0.00    -0.349 OA
HETATM   33  H   UNK N   1      32.626  13.262   6.849  0.00  0.00     0.219 HD
ENDBRANCH  13  32
ENDBRANCH  11  13
ENDBRANCH  10  11
ENDBRANCH   9  10
BRANCH   9  34
HETATM   34  O   UNK N   1      34.034  18.767   7.901  0.00  0.00    -0.393 OA
HETATM   35  H   UNK N   1      34.486  19.340   7.262  0.00  0.00     0.210 HD
ENDBRANCH   9  34
ENDBRANCH   4   9
ENDBRANCH   2   4
BRANCH   1  36
HETATM   36  C   UNK N   1      35.004  14.617   9.503  0.00  0.00     0.165 C 
HETATM   37  C   UNK N   1      34.672  13.514  10.516  0.00  0.00     0.117 C 
HETATM   38  C   UNK N   1      35.383  13.696  11.833  0.00  0.00     0.113 C 
HETATM   39  N   UNK N   1      34.778  13.414  12.931  0.00  0.00    -0.374 N 
HETATM   40  C   UNK N   1      35.450  13.524  14.204  0.00  0.00     0.121 C 
ATOM     41  HN  UNK N   1      33.806  13.106  12.903  1.00  0.00     0.161 HD
HETATM   42  C   UNK N   1      35.633  12.140  14.802  0.00  0.00     0.020 C 
HETATM   43  C   UNK N   1      37.108  11.760  14.919  0.00  0.00     0.002 C 
HETATM   44  C   UNK N   1      37.786  11.571  13.564  0.00  0.00     0.002 C 
HETATM   45  C   UNK N   1      37.213  10.380  12.798  0.00  0.00     0.027 C 
HETATM   46  C   UNK N   1      37.723  10.349  11.355  0.00  0.00     0.179 C 
HETATM   47  O   UNK N   1      37.594  11.601  10.809  0.00  0.00    -0.317 OA
HETATM   48  C   UNK N   1      37.614  11.893   9.490  0.00  0.00     0.258 C 
HETATM   49  N   UNK N   1      37.478  13.125   9.150  0.00  0.00    -0.338 N 
HETATM   50  C   UNK N   1      37.325  13.781   7.855  0.00  0.00     0.163 C 
ATOM     51  HN  UNK N   1      37.476  13.770   9.939  1.00  0.00     0.164 HD
HETATM   52  C   UNK N   1      35.861  13.751   7.381  0.00  0.00     0.135 C 
HETATM   53  N   UNK N   1      34.869  14.117   8.144  0.00  0.00    -0.360 N 
ATOM     54  HN  UNK N   1      33.928  14.048   7.758  1.00  0.00     0.162 HD
BRANCH  38  55
HETATM   55  O   UNK N   1      36.675  14.096  11.854  0.00  0.00    -0.349 OA
HETATM   56  H   UNK N   1      37.509  14.498  11.712  0.00  0.00     0.219 HD
ENDBRANCH  38  55
BRANCH  48  57
HETATM   57  O   UNK N   1      37.756  10.911   8.574  0.00  0.00    -0.327 OA
HETATM   58  H   UNK N   1      37.204  10.812   7.824  0.00  0.00     0.221 HD
ENDBRANCH  48  57
BRANCH  50  59
HETATM   59  C   UNK N   1      38.402  13.384   6.816  0.00  0.00     0.008 C 
HETATM   60  C   UNK N   1      38.393  14.222   5.549  0.00  0.00     0.012 C 
HETATM   61  C   UNK N   1      39.795  13.452   7.419  0.00  0.00     0.012 C 
ENDBRANCH  50  59
BRANCH  52  62
HETATM   62  O   UNK N   1      35.582  13.337   6.130  0.00  0.00    -0.348 OA
HETATM   63  H   UNK N   1      34.988  13.718   5.514  0.00  0.00     0.219 HD
ENDBRANCH  52  62
ENDBRANCH   1  36
BRANCH   1  64
HETATM   64  O   UNK N   1      34.701  16.869  10.497  0.00  0.00    -0.348 OA
HETATM   65  H   UNK N   1      34.428  17.485  11.148  0.00  0.00     0.219 HD
ENDBRANCH   1  64
TORSDOF 21
ENDMDL
MODEL 2
REMARK VINA RESULT:      -7.5      1.382      3.959
REMARK  21 active torsions:
REMARK  status: ('A' for Active; 'I' for Inactive)
REMARK    1  A    between atoms: C_23  and  C_19 
REMARK    2  A    between atoms: C_28  and  C_19 
REMARK    3  A    between atoms: C_26  and  C_20 
REMARK    4  A    between atoms: C_30  and  C_20 
REMARK    5  A    between atoms: C_27  and  C_22 
REMARK    6  A    between atoms: N_41  and  C_22 
REMARK    7  A    between atoms: C_32  and  C_24 
REMARK    8  A    between atoms: C_33  and  C_25 
REMARK    9  A    between atoms: C_34  and  C_26 
REMARK   10  A    between atoms: C_30  and  C_28 
REMARK   11  A    between atoms: C_28  and  N_43 
REMARK   12  A    between atoms: C_29  and  C_35 
REMARK   13  A    between atoms: C_30  and  O_51 
REMARK   14  A    between atoms: O_52  and  C_31 
REMARK   15  A    between atoms: C_36  and  C_32 
REMARK   16  A    between atoms: C_32  and  N_47 
REMARK   17  A    between atoms: C_34  and  O_53 
REMARK   18  A    between atoms: C_35  and  O_54 
REMARK   19  A    between atoms: O_55  and  C_36 
REMARK   20  A    between atoms: C_37  and  O_56 
REMARK   21  A    between atoms: C_38  and  O_57 
ROOT
HETATM    1  C   UNK N   1      34.699  16.411   9.916  0.00  0.00     0.135 C 
HETATM    2  N   UNK N   1      33.569  16.233   9.327  0.00  0.00    -0.366 N 
ATOM      3  HN  UNK N   1      33.220  15.275   9.294  1.00  0.00     0.161 HD
ENDROOT
BRANCH   2   4
HETATM    4  C   UNK N   1      32.744  17.238   8.711  0.00  0.00     0.112 C 
BRANCH   4   5
HETATM    5  C   UNK N   1      31.305  16.680   8.713  0.00  0.00     0.031 C 
BRANCH   5   6
HETATM    6  C   UNK N   1      30.205  17.734   8.590  0.00  0.00    -0.021 C 
HETATM    7  C   UNK N   1      28.994  17.333   9.411  0.00  0.00     0.009 C 
HETATM    8  C   UNK N   1      30.716  19.051   9.134  0.00  0.00     0.009 C 
ENDBRANCH   5   6
ENDBRANCH   4   5
BRANCH   4   9
HETATM    9  C   UNK N   1      33.314  17.419   7.277  0.00  0.00     0.141 C 
BRANCH   9  10
HETATM   10  C   UNK N   1      33.452  16.156   6.369  0.00  0.00     0.046 C 
BRANCH  10  11
HETATM   11  C   UNK N   1      32.365  15.519   5.467  0.00  0.00     0.058 C 
HETATM   12  C   UNK N   1      33.054  15.266   4.141  0.00  0.00     0.018 C 
BRANCH  11  13
HETATM   13  C   UNK N   1      31.590  14.223   5.797  0.00  0.00     0.115 C 
HETATM   14  N   UNK N   1      30.423  13.881   5.336  0.00  0.00    -0.362 N 
ATOM     15  HN  UNK N   1      30.069  12.967   5.619  1.00  0.00     0.162 HD
BRANCH  14  16
HETATM   16  C   UNK N   1      29.576  14.661   4.467  0.00  0.00     0.161 C 
BRANCH  16  17
HETATM   17  C   UNK N   1      29.258  13.911   3.168  0.00  0.00     0.008 C 
HETATM   18  C   UNK N   1      28.699  14.880   2.133  0.00  0.00     0.012 C 
HETATM   19  C   UNK N   1      30.514  13.288   2.576  0.00  0.00     0.012 C 
ENDBRANCH  16  17
BRANCH  16  20
HETATM   20  C   UNK N   1      28.347  15.145   5.229  0.00  0.00     0.135 C 
HETATM   21  N   UNK N   1      28.128  16.387   5.500  0.00  0.00    -0.368 N 
ATOM     22  HN  UNK N   1      27.249  16.622   5.960  1.00  0.00     0.161 HD
BRANCH  21  23
HETATM   23  C   UNK N   1      29.035  17.467   5.201  0.00  0.00     0.160 C 
BRANCH  23  24
HETATM   24  C   UNK N   1      28.234  18.725   5.230  0.00  0.00    -0.041 A 
HETATM   25  C   UNK N   1      27.653  19.219   4.058  0.00  0.00     0.009 A 
HETATM   26  C   UNK N   1      26.824  20.346   4.112  0.00  0.00     0.001 A 
HETATM   27  C   UNK N   1      26.573  20.977   5.336  0.00  0.00     0.000 A 
HETATM   28  C   UNK N   1      27.154  20.485   6.506  0.00  0.00     0.001 A 
HETATM   29  C   UNK N   1      27.976  19.359   6.450  0.00  0.00     0.009 A 
ENDBRANCH  23  24
ENDBRANCH  21  23
BRANCH  20  30
HETATM   30  O   UNK N   1      27.445  14.239   5.649  0.00  0.00    -0.348 OA
HETATM   31  H   UNK N   1      27.105  13.462   6.047  0.00  0.00     0.219 HD
ENDBRANCH  20  30
ENDBRANCH  16  20
ENDBRANCH  14  16
BRANCH  13  32
HETATM   32  O   UNK N   1      32.183  13.375   6.663  0.00  0.00    -0.349 OA
HETATM   33  H   UNK N   1      32.112  13.146   7.568  0.00  0.00     0.219 HD
ENDBRANCH  13  32
ENDBRANCH  11  13
ENDBRANCH  10  11
ENDBRANCH   9  10
BRANCH   9  34
HETATM   34  O   UNK N   1      34.560  18.043   7.295  0.00  0.00    -0.393 OA
HETATM   35  H   UNK N   1      34.828  18.710   7.947  0.00  0.00     0.210 HD
ENDBRANCH   9  34
ENDBRANCH   4   9
ENDBRANCH   2   4
BRANCH   1  36
HETATM   36  C   UNK N   1      35.465  15.186  10.299  0.00  0.00     0.165 C 
HETATM   37  C   UNK N   1      36.455  14.710   9.229  0.00  0.00     0.117 C 
HETATM   38  C   UNK N   1      35.793  13.910   8.134  0.00  0.00     0.113 C 
HETATM   39  N   UNK N   1      36.182  14.047   6.917  0.00  0.00    -0.374 N 
HETATM   40  C   UNK N   1      35.607  13.255   5.856  0.00  0.00     0.121 C 
ATOM     41  HN  UNK N   1      36.911  14.726   6.697  1.00  0.00     0.161 HD
HETATM   42  C   UNK N   1      36.654  12.298   5.314  0.00  0.00     0.020 C 
HETATM   43  C   UNK N   1      36.279  10.839   5.571  0.00  0.00     0.002 C 
HETATM   44  C   UNK N   1      36.300  10.468   7.051  0.00  0.00     0.002 C 
HETATM   45  C   UNK N   1      37.708  10.539   7.641  0.00  0.00     0.027 C 
HETATM   46  C   UNK N   1      37.681  10.407   9.164  0.00  0.00     0.179 C 
HETATM   47  O   UNK N   1      36.718  11.244   9.669  0.00  0.00    -0.317 OA
HETATM   48  C   UNK N   1      36.622  11.655  10.953  0.00  0.00     0.258 C 
HETATM   49  N   UNK N   1      35.654  12.443  11.255  0.00  0.00    -0.338 N 
HETATM   50  C   UNK N   1      35.318  13.173  12.474  0.00  0.00     0.163 C 
ATOM     51  HN  UNK N   1      34.989  12.587  10.496  1.00  0.00     0.164 HD
HETATM   52  C   UNK N   1      36.092  14.500  12.563  0.00  0.00     0.135 C 
HETATM   53  N   UNK N   1      36.140  15.352  11.577  0.00  0.00    -0.360 N 
ATOM     54  HN  UNK N   1      36.691  16.199  11.713  1.00  0.00     0.162 HD
BRANCH  38  55
HETATM   55  O   UNK N   1      34.835  13.007   8.443  0.00  0.00    -0.349 OA
HETATM   56  H   UNK N   1      34.111  12.527   8.794  0.00  0.00     0.219 HD
ENDBRANCH  38  55
BRANCH  48  57
HETATM   57  O   UNK N   1      37.531  11.256  11.868  0.00  0.00    -0.327 OA
HETATM   58  H   UNK N   1      38.433  11.090  11.671  0.00  0.00     0.221 HD
ENDBRANCH  48  57
BRANCH  50  59
HETATM   59  C   UNK N   1      35.293  12.294  13.748  0.00  0.00     0.008 C 
HETATM   60  C   UNK N   1      34.922  13.039  15.020  0.00  0.00     0.012 C 
HETATM   61  C   UNK N   1      34.335  11.125  13.588  0.00  0.00     0.012 C 
ENDBRANCH  50  59
BRANCH  52  62
HETATM   62  O   UNK N   1      36.746  14.807  13.701  0.00  0.00    -0.348 OA
HETATM   63  H   UNK N   1      37.670  14.868  13.838  0.00  0.00     0.219 HD
ENDBRANCH  52  62
ENDBRANCH   1  36
BRANCH   1  64
HETATM   64  O   UNK N   1      35.245  17.642  10.030  0.00  0.00    -0.348 OA
HETATM   65  H   UNK N   1      36.054  18.102   9.919  0.00  0.00     0.219 HD
ENDBRANCH   1  64
TORSDOF 21
ENDMDL
MODEL 3
REMARK VINA RESULT:      -7.5      7.234     11.518
REMARK  21 active torsions:
REMARK  status: ('A' for Active; 'I' for Inactive)
REMARK    1  A    between atoms: C_23  and  C_19 
REMARK    2  A    between atoms: C_28  and  C_19 
REMARK    3  A    between atoms: C_26  and  C_20 
REMARK    4  A    between atoms: C_30  and  C_20 
REMARK    5  A    between atoms: C_27  and  C_22 
REMARK    6  A    between atoms: N_41  and  C_22 
REMARK    7  A    between atoms: C_32  and  C_24 
REMARK    8  A    between atoms: C_33  and  C_25 
REMARK    9  A    between atoms: C_34  and  C_26 
REMARK   10  A    between atoms: C_30  and  C_28 
REMARK   11  A    between atoms: C_28  and  N_43 
REMARK   12  A    between atoms: C_29  and  C_35 
REMARK   13  A    between atoms: C_30  and  O_51 
REMARK   14  A    between atoms: O_52  and  C_31 
REMARK   15  A    between atoms: C_36  and  C_32 
REMARK   16  A    between atoms: C_32  and  N_47 
REMARK   17  A    between atoms: C_34  and  O_53 
REMARK   18  A    between atoms: C_35  and  O_54 
REMARK   19  A    between atoms: O_55  and  C_36 
REMARK   20  A    between atoms: C_37  and  O_56 
REMARK   21  A    between atoms: C_38  and  O_57 
ROOT
HETATM    1  C   UNK N   1      23.752  16.944   3.717  0.00  0.00     0.135 C 
HETATM    2  N   UNK N   1      22.999  17.883   4.171  0.00  0.00    -0.366 N 
ATOM      3  HN  UNK N   1      23.454  18.775   4.369  1.00  0.00     0.161 HD
ENDROOT
BRANCH   2   4
HETATM    4  C   UNK N   1      21.586  17.813   4.430  0.00  0.00     0.112 C 
BRANCH   4   5
HETATM    5  C   UNK N   1      21.028  19.230   4.186  0.00  0.00     0.031 C 
BRANCH   5   6
HETATM    6  C   UNK N   1      20.192  19.385   2.916  0.00  0.00    -0.021 C 
HETATM    7  C   UNK N   1      20.982  20.118   1.849  0.00  0.00     0.009 C 
HETATM    8  C   UNK N   1      19.850  18.012   2.377  0.00  0.00     0.009 C 
ENDBRANCH   5   6
ENDBRANCH   4   5
BRANCH   4   9
HETATM    9  C   UNK N   1      21.458  17.367   5.914  0.00  0.00     0.141 C 
BRANCH   9  10
HETATM   10  C   UNK N   1      20.246  16.467   6.315  0.00  0.00     0.046 C 
BRANCH  10  11
HETATM   11  C   UNK N   1      19.788  15.148   5.643  0.00  0.00     0.058 C 
HETATM   12  C   UNK N   1      18.396  15.438   5.118  0.00  0.00     0.018 C 
BRANCH  11  13
HETATM   13  C   UNK N   1      20.535  14.434   4.493  0.00  0.00     0.115 C 
HETATM   14  N   UNK N   1      21.399  13.469   4.613  0.00  0.00    -0.362 N 
ATOM     15  HN  UNK N   1      21.769  13.076   3.748  1.00  0.00     0.162 HD
BRANCH  14  16
HETATM   16  C   UNK N   1      21.889  12.898   5.845  0.00  0.00     0.161 C 
BRANCH  16  17
HETATM   17  C   UNK N   1      22.124  11.389   5.712  0.00  0.00     0.008 C 
HETATM   18  C   UNK N   1      22.897  10.876   6.921  0.00  0.00     0.012 C 
HETATM   19  C   UNK N   1      20.803  10.634   5.663  0.00  0.00     0.012 C 
ENDBRANCH  16  17
BRANCH  16  20
HETATM   20  C   UNK N   1      23.102  13.680   6.339  0.00  0.00     0.135 C 
HETATM   21  N   UNK N   1      23.174  14.199   7.517  0.00  0.00    -0.368 N 
ATOM     22  HN  UNK N   1      24.049  14.652   7.781  1.00  0.00     0.161 HD
BRANCH  21  23
HETATM   23  C   UNK N   1      22.110  14.188   8.489  0.00  0.00     0.160 C 
BRANCH  23  24
HETATM   24  C   UNK N   1      22.550  13.299   9.603  0.00  0.00    -0.041 A 
HETATM   25  C   UNK N   1      23.906  13.014   9.785  0.00  0.00     0.009 A 
HETATM   26  C   UNK N   1      24.318  12.258  10.889  0.00  0.00     0.001 A 
HETATM   27  C   UNK N   1      23.376  11.792  11.813  0.00  0.00     0.000 A 
HETATM   28  C   UNK N   1      22.022  12.075  11.632  0.00  0.00     0.001 A 
HETATM   29  C   UNK N   1      21.615  12.832  10.533  0.00  0.00     0.009 A 
ENDBRANCH  23  24
ENDBRANCH  21  23
BRANCH  20  30
HETATM   30  O   UNK N   1      24.147  13.848   5.509  0.00  0.00    -0.348 OA
HETATM   31  H   UNK N   1      24.622  14.074   4.734  0.00  0.00     0.219 HD
ENDBRANCH  20  30
ENDBRANCH  16  20
ENDBRANCH  14  16
BRANCH  13  32
HETATM   32  O   UNK N   1      20.272  14.873   3.245  0.00  0.00    -0.349 OA
HETATM   33  H   UNK N   1      19.751  15.537   2.839  0.00  0.00     0.219 HD
ENDBRANCH  13  32
ENDBRANCH  11  13
ENDBRANCH  10  11
ENDBRANCH   9  10
BRANCH   9  34
HETATM   34  O   UNK N   1      21.455  18.459   6.779  0.00  0.00    -0.393 OA
HETATM   35  H   UNK N   1      21.216  18.412   7.719  0.00  0.00     0.210 HD
ENDBRANCH   9  34
ENDBRANCH   4   9
ENDBRANCH   2   4
BRANCH   1  36
HETATM   36  C   UNK N   1      25.227  17.193   3.724  0.00  0.00     0.165 C 
HETATM   37  C   UNK N   1      26.004  16.356   2.702  0.00  0.00     0.117 C 
HETATM   38  C   UNK N   1      26.275  14.951   3.181  0.00  0.00     0.113 C 
HETATM   39  N   UNK N   1      26.217  13.970   2.354  0.00  0.00    -0.374 N 
HETATM   40  C   UNK N   1      26.526  12.623   2.770  0.00  0.00     0.121 C 
ATOM     41  HN  UNK N   1      25.949  14.146   1.386  1.00  0.00     0.161 HD
HETATM   42  C   UNK N   1      27.806  12.165   2.093  0.00  0.00     0.020 C 
HETATM   43  C   UNK N   1      28.927  11.918   3.101  0.00  0.00     0.002 C 
HETATM   44  C   UNK N   1      29.412  13.195   3.780  0.00  0.00     0.002 C 
HETATM   45  C   UNK N   1      30.081  14.151   2.793  0.00  0.00     0.027 C 
HETATM   46  C   UNK N   1      30.340  15.518   3.430  0.00  0.00     0.179 C 
HETATM   47  O   UNK N   1      29.202  15.934   4.073  0.00  0.00    -0.317 OA
HETATM   48  C   UNK N   1      28.928  17.201   4.455  0.00  0.00     0.258 C 
HETATM   49  N   UNK N   1      27.809  17.416   5.048  0.00  0.00    -0.338 N 
HETATM   50  C   UNK N   1      27.136  18.639   5.475  0.00  0.00     0.163 C 
ATOM     51  HN  UNK N   1      27.289  16.566   5.264  1.00  0.00     0.164 HD
HETATM   52  C   UNK N   1      26.356  19.283   4.315  0.00  0.00     0.135 C 
HETATM   53  N   UNK N   1      25.534  18.606   3.563  0.00  0.00    -0.360 N 
ATOM     54  HN  UNK N   1      25.071  19.105   2.804  1.00  0.00     0.162 HD
BRANCH  38  55
HETATM   55  O   UNK N   1      26.639  14.735   4.466  0.00  0.00    -0.349 OA
HETATM   56  H   UNK N   1      26.992  14.765   5.333  0.00  0.00     0.219 HD
ENDBRANCH  38  55
BRANCH  48  57
HETATM   57  O   UNK N   1      29.803  18.197   4.197  0.00  0.00    -0.327 OA
HETATM   58  H   UNK N   1      30.564  18.097   3.659  0.00  0.00     0.221 HD
ENDBRANCH  48  57
BRANCH  50  59
HETATM   59  C   UNK N   1      28.022  19.582   6.326  0.00  0.00     0.008 C 
HETATM   60  C   UNK N   1      27.354  20.889   6.719  0.00  0.00     0.012 C 
HETATM   61  C   UNK N   1      28.494  18.891   7.595  0.00  0.00     0.012 C 
ENDBRANCH  50  59
BRANCH  52  62
HETATM   62  O   UNK N   1      26.515  20.597   4.062  0.00  0.00    -0.348 OA
HETATM   63  H   UNK N   1      27.308  21.095   4.077  0.00  0.00     0.219 HD
ENDBRANCH  52  62
ENDBRANCH   1  36
BRANCH   1  64
HETATM   64  O   UNK N   1      23.250  15.729   3.408  0.00  0.00    -0.348 OA
HETATM   65  H   UNK N   1      22.771  15.277   2.742  0.00  0.00     0.219 HD
ENDBRANCH   1  64
TORSDOF 21
ENDMDL
MODEL 4
REMARK VINA RESULT:      -7.4      4.788     11.720
REMARK  21 active torsions:
REMARK  status: ('A' for Active; 'I' for Inactive)
REMARK    1  A    between atoms: C_23  and  C_19 
REMARK    2  A    between atoms: C_28  and  C_19 
REMARK    3  A    between atoms: C_26  and  C_20 
REMARK    4  A    between atoms: C_30  and  C_20 
REMARK    5  A    between atoms: C_27  and  C_22 
REMARK    6  A    between atoms: N_41  and  C_22 
REMARK    7  A    between atoms: C_32  and  C_24 
REMARK    8  A    between atoms: C_33  and  C_25 
REMARK    9  A    between atoms: C_34  and  C_26 
REMARK   10  A    between atoms: C_30  and  C_28 
REMARK   11  A    between atoms: C_28  and  N_43 
REMARK   12  A    between atoms: C_29  and  C_35 
REMARK   13  A    between atoms: C_30  and  O_51 
REMARK   14  A    between atoms: O_52  and  C_31 
REMARK   15  A    between atoms: C_36  and  C_32 
REMARK   16  A    between atoms: C_32  and  N_47 
REMARK   17  A    between atoms: C_34  and  O_53 
REMARK   18  A    between atoms: C_35  and  O_54 
REMARK   19  A    between atoms: O_55  and  C_36 
REMARK   20  A    between atoms: C_37  and  O_56 
REMARK   21  A    between atoms: C_38  and  O_57 
ROOT
HETATM    1  C   UNK N   1      24.634  17.671   4.882  0.00  0.00     0.135 C 
HETATM    2  N   UNK N   1      25.721  16.997   4.740  0.00  0.00    -0.366 N 
ATOM      3  HN  UNK N   1      25.618  16.018   4.474  1.00  0.00     0.161 HD
ENDROOT
BRANCH   2   4
HETATM    4  C   UNK N   1      27.067  17.476   4.915  0.00  0.00     0.112 C 
BRANCH   4   5
HETATM    5  C   UNK N   1      27.966  16.572   4.046  0.00  0.00     0.031 C 
BRANCH   5   6
HETATM    6  C   UNK N   1      27.285  15.317   3.502  0.00  0.00    -0.021 C 
HETATM    7  C   UNK N   1      27.796  14.999   2.110  0.00  0.00     0.009 C 
HETATM    8  C   UNK N   1      27.621  14.142   4.397  0.00  0.00     0.009 C 
ENDBRANCH   5   6
ENDBRANCH   4   5
BRANCH   4   9
HETATM    9  C   UNK N   1      27.363  17.332   6.434  0.00  0.00     0.141 C 
BRANCH   9  10
HETATM   10  C   UNK N   1      28.840  17.093   6.881  0.00  0.00     0.046 C 
BRANCH  10  11
HETATM   11  C   UNK N   1      29.587  17.758   8.065  0.00  0.00     0.058 C 
HETATM   12  C   UNK N   1      28.566  18.678   8.705  0.00  0.00     0.018 C 
BRANCH  11  13
HETATM   13  C   UNK N   1      30.259  16.995   9.228  0.00  0.00     0.115 C 
HETATM   14  N   UNK N   1      31.374  16.328   9.174  0.00  0.00    -0.362 N 
ATOM     15  HN  UNK N   1      31.704  15.917  10.047  1.00  0.00     0.162 HD
BRANCH  14  16
HETATM   16  C   UNK N   1      32.192  16.108   8.005  0.00  0.00     0.161 C 
BRANCH  16  17
HETATM   17  C   UNK N   1      33.526  16.858   8.102  0.00  0.00     0.008 C 
HETATM   18  C   UNK N   1      34.399  16.520   6.900  0.00  0.00     0.012 C 
HETATM   19  C   UNK N   1      33.307  18.364   8.096  0.00  0.00     0.012 C 
ENDBRANCH  16  17
BRANCH  16  20
HETATM   20  C   UNK N   1      32.331  14.613   7.737  0.00  0.00     0.135 C 
HETATM   21  N   UNK N   1      31.749  14.017   6.753  0.00  0.00    -0.368 N 
ATOM     22  HN  UNK N   1      31.949  13.026   6.616  1.00  0.00     0.161 HD
BRANCH  21  23
HETATM   23  C   UNK N   1      30.836  14.645   5.831  0.00  0.00     0.160 C 
BRANCH  23  24
HETATM   24  C   UNK N   1      31.658  15.206   4.720  0.00  0.00    -0.041 A 
HETATM   25  C   UNK N   1      31.607  16.570   4.423  0.00  0.00     0.009 A 
HETATM   26  C   UNK N   1      32.453  17.103   3.443  0.00  0.00     0.001 A 
HETATM   27  C   UNK N   1      33.353  16.273   2.764  0.00  0.00     0.000 A 
HETATM   28  C   UNK N   1      33.404  14.910   3.060  0.00  0.00     0.001 A 
HETATM   29  C   UNK N   1      32.563  14.383   4.040  0.00  0.00     0.009 A 
ENDBRANCH  23  24
ENDBRANCH  21  23
BRANCH  20  30
HETATM   30  O   UNK N   1      33.089  13.873   8.566  0.00  0.00    -0.348 OA
HETATM   31  H   UNK N   1      33.623  13.656   9.304  0.00  0.00     0.219 HD
ENDBRANCH  20  30
ENDBRANCH  16  20
ENDBRANCH  14  16
BRANCH  13  32
HETATM   32  O   UNK N   1      29.610  17.013  10.411  0.00  0.00    -0.349 OA
HETATM   33  H   UNK N   1      29.393  17.638  11.073  0.00  0.00     0.219 HD
ENDBRANCH  13  32
ENDBRANCH  11  13
ENDBRANCH  10  11
ENDBRANCH   9  10
BRANCH   9  34
HETATM   34  O   UNK N   1      26.596  16.323   7.013  0.00  0.00    -0.393 OA
HETATM   35  H   UNK N   1      25.627  16.340   7.077  0.00  0.00     0.210 HD
ENDBRANCH   9  34
ENDBRANCH   4   9
ENDBRANCH   2   4
BRANCH   1  36
HETATM   36  C   UNK N   1      23.351  16.903   4.844  0.00  0.00     0.165 C 
HETATM   37  C   UNK N   1      23.071  16.096   6.117  0.00  0.00     0.117 C 
HETATM   38  C   UNK N   1      23.814  14.783   6.153  0.00  0.00     0.113 C 
HETATM   39  N   UNK N   1      24.300  14.352   7.261  0.00  0.00    -0.374 N 
HETATM   40  C   UNK N   1      24.966  13.074   7.337  0.00  0.00     0.121 C 
ATOM     41  HN  UNK N   1      24.214  14.923   8.101  1.00  0.00     0.161 HD
HETATM   42  C   UNK N   1      24.135  12.119   8.176  0.00  0.00     0.020 C 
HETATM   43  C   UNK N   1      23.618  10.941   7.352  0.00  0.00     0.002 C 
HETATM   44  C   UNK N   1      22.593  11.352   6.298  0.00  0.00     0.002 C 
HETATM   45  C   UNK N   1      21.307  11.886   6.926  0.00  0.00     0.027 C 
HETATM   46  C   UNK N   1      20.394  12.518   5.874  0.00  0.00     0.179 C 
HETATM   47  O   UNK N   1      21.136  13.362   5.087  0.00  0.00    -0.317 OA
HETATM   48  C   UNK N   1      20.644  14.335   4.289  0.00  0.00     0.258 C 
HETATM   49  N   UNK N   1      21.485  15.037   3.617  0.00  0.00    -0.338 N 
HETATM   50  C   UNK N   1      21.335  16.221   2.777  0.00  0.00     0.163 C 
ATOM     51  HN  UNK N   1      22.445  14.701   3.683  1.00  0.00     0.164 HD
HETATM   52  C   UNK N   1      21.319  17.508   3.621  0.00  0.00     0.135 C 
HETATM   53  N   UNK N   1      22.220  17.763   4.528  0.00  0.00    -0.360 N 
ATOM     54  HN  UNK N   1      22.126  18.630   5.056  1.00  0.00     0.162 HD
BRANCH  38  55
HETATM   55  O   UNK N   1      23.912  14.033   5.031  0.00  0.00    -0.349 OA
HETATM   56  H   UNK N   1      23.970  13.698   4.158  0.00  0.00     0.219 HD
ENDBRANCH  38  55
BRANCH  48  57
HETATM   57  O   UNK N   1      19.314  14.559   4.225  0.00  0.00    -0.327 OA
HETATM   58  H   UNK N   1      18.805  14.887   4.940  0.00  0.00     0.221 HD
ENDBRANCH  48  57
BRANCH  50  59
HETATM   59  C   UNK N   1      20.241  16.088   1.689  0.00  0.00     0.008 C 
HETATM   60  C   UNK N   1      20.211  17.227   0.684  0.00  0.00     0.012 C 
HETATM   61  C   UNK N   1      20.387  14.784   0.924  0.00  0.00     0.012 C 
ENDBRANCH  50  59
BRANCH  52  62
HETATM   62  O   UNK N   1      20.345  18.417   3.420  0.00  0.00    -0.348 OA
HETATM   63  H   UNK N   1      19.707  18.725   4.033  0.00  0.00     0.219 HD
ENDBRANCH  52  62
ENDBRANCH   1  36
BRANCH   1  64
HETATM   64  O   UNK N   1      24.657  18.979   5.217  0.00  0.00    -0.348 OA
HETATM   65  H   UNK N   1      24.870  19.824   4.874  0.00  0.00     0.219 HD
ENDBRANCH   1  64
TORSDOF 21
ENDMDL
MODEL 5
REMARK VINA RESULT:      -7.4      4.471     11.652
REMARK  21 active torsions:
REMARK  status: ('A' for Active; 'I' for Inactive)
REMARK    1  A    between atoms: C_23  and  C_19 
REMARK    2  A    between atoms: C_28  and  C_19 
REMARK    3  A    between atoms: C_26  and  C_20 
REMARK    4  A    between atoms: C_30  and  C_20 
REMARK    5  A    between atoms: C_27  and  C_22 
REMARK    6  A    between atoms: N_41  and  C_22 
REMARK    7  A    between atoms: C_32  and  C_24 
REMARK    8  A    between atoms: C_33  and  C_25 
REMARK    9  A    between atoms: C_34  and  C_26 
REMARK   10  A    between atoms: C_30  and  C_28 
REMARK   11  A    between atoms: C_28  and  N_43 
REMARK   12  A    between atoms: C_29  and  C_35 
REMARK   13  A    between atoms: C_30  and  O_51 
REMARK   14  A    between atoms: O_52  and  C_31 
REMARK   15  A    between atoms: C_36  and  C_32 
REMARK   16  A    between atoms: C_32  and  N_47 
REMARK   17  A    between atoms: C_34  and  O_53 
REMARK   18  A    between atoms: C_35  and  O_54 
REMARK   19  A    between atoms: O_55  and  C_36 
REMARK   20  A    between atoms: C_37  and  O_56 
REMARK   21  A    between atoms: C_38  and  O_57 
ROOT
HETATM    1  C   UNK N   1      25.230  15.720   3.185  0.00  0.00     0.135 C 
HETATM    2  N   UNK N   1      26.487  15.799   3.447  0.00  0.00    -0.366 N 
ATOM      3  HN  UNK N   1      26.739  16.221   4.340  1.00  0.00     0.161 HD
ENDROOT
BRANCH   2   4
HETATM    4  C   UNK N   1      27.575  15.356   2.617  0.00  0.00     0.112 C 
BRANCH   4   5
HETATM    5  C   UNK N   1      27.754  13.850   2.902  0.00  0.00     0.031 C 
BRANCH   5   6
HETATM    6  C   UNK N   1      27.770  12.956   1.662  0.00  0.00    -0.021 C 
HETATM    7  C   UNK N   1      29.079  12.195   1.575  0.00  0.00     0.009 C 
HETATM    8  C   UNK N   1      26.651  11.941   1.767  0.00  0.00     0.009 C 
ENDBRANCH   5   6
ENDBRANCH   4   5
BRANCH   4   9
HETATM    9  C   UNK N   1      28.804  16.198   3.060  0.00  0.00     0.141 C 
BRANCH   9  10
HETATM   10  C   UNK N   1      29.718  15.635   4.194  0.00  0.00     0.046 C 
BRANCH  10  11
HETATM   11  C   UNK N   1      31.262  15.505   4.184  0.00  0.00     0.058 C 
HETATM   12  C   UNK N   1      31.564  14.512   3.079  0.00  0.00     0.018 C 
BRANCH  11  13
HETATM   13  C   UNK N   1      32.248  16.679   3.983  0.00  0.00     0.115 C 
HETATM   14  N   UNK N   1      33.257  16.981   4.745  0.00  0.00    -0.362 N 
ATOM     15  HN  UNK N   1      33.838  17.763   4.446  1.00  0.00     0.162 HD
BRANCH  14  16
HETATM   16  C   UNK N   1      33.639  16.323   5.972  0.00  0.00     0.161 C 
BRANCH  16  17
HETATM   17  C   UNK N   1      34.953  15.549   5.810  0.00  0.00     0.008 C 
HETATM   18  C   UNK N   1      35.341  14.906   7.136  0.00  0.00     0.012 C 
HETATM   19  C   UNK N   1      34.805  14.431   4.788  0.00  0.00     0.012 C 
ENDBRANCH  16  17
BRANCH  16  20
HETATM   20  C   UNK N   1      33.637  17.322   7.124  0.00  0.00     0.135 C 
HETATM   21  N   UNK N   1      32.808  17.261   8.109  0.00  0.00    -0.368 N 
ATOM     22  HN  UNK N   1      32.922  17.936   8.866  1.00  0.00     0.161 HD
BRANCH  21  23
HETATM   23  C   UNK N   1      31.731  16.309   8.222  0.00  0.00     0.160 C 
BRANCH  23  24
HETATM   24  C   UNK N   1      30.460  17.090   8.213  0.00  0.00    -0.041 A 
HETATM   25  C   UNK N   1      29.892  17.527   9.413  0.00  0.00     0.009 A 
HETATM   26  C   UNK N   1      28.752  18.340   9.390  0.00  0.00     0.001 A 
HETATM   27  C   UNK N   1      28.184  18.720   8.169  0.00  0.00     0.000 A 
HETATM   28  C   UNK N   1      28.750  18.283   6.970  0.00  0.00     0.001 A 
HETATM   29  C   UNK N   1      29.888  17.477   6.996  0.00  0.00     0.009 A 
ENDBRANCH  23  24
ENDBRANCH  21  23
BRANCH  20  30
HETATM   30  O   UNK N   1      34.536  18.323   7.116  0.00  0.00    -0.348 OA
HETATM   31  H   UNK N   1      34.896  19.176   6.970  0.00  0.00     0.219 HD
ENDBRANCH  20  30
ENDBRANCH  16  20
ENDBRANCH  14  16
BRANCH  13  32
HETATM   32  O   UNK N   1      32.021  17.474   2.917  0.00  0.00    -0.349 OA
HETATM   33  H   UNK N   1      31.341  17.614   2.289  0.00  0.00     0.219 HD
ENDBRANCH  13  32
ENDBRANCH  11  13
ENDBRANCH  10  11
ENDBRANCH   9  10
BRANCH   9  34
HETATM   34  O   UNK N   1      28.431  17.486   3.442  0.00  0.00    -0.393 OA
HETATM   35  H   UNK N   1      27.830  17.687   4.176  0.00  0.00     0.210 HD
ENDBRANCH   9  34
ENDBRANCH   4   9
ENDBRANCH   2   4
BRANCH   1  36
HETATM   36  C   UNK N   1      24.297  16.433   4.112  0.00  0.00     0.165 C 
HETATM   37  C   UNK N   1      24.359  15.935   5.561  0.00  0.00     0.117 C 
HETATM   38  C   UNK N   1      23.558  14.675   5.782  0.00  0.00     0.113 C 
HETATM   39  N   UNK N   1      24.004  13.763   6.569  0.00  0.00    -0.374 N 
HETATM   40  C   UNK N   1      23.236  12.573   6.844  0.00  0.00     0.121 C 
ATOM     41  HN  UNK N   1      24.917  13.883   7.009  1.00  0.00     0.161 HD
HETATM   42  C   UNK N   1      22.789  12.582   8.296  0.00  0.00     0.020 C 
HETATM   43  C   UNK N   1      21.269  12.669   8.423  0.00  0.00     0.002 C 
HETATM   44  C   UNK N   1      20.706  14.006   7.949  0.00  0.00     0.002 C 
HETATM   45  C   UNK N   1      21.164  15.167   8.831  0.00  0.00     0.027 C 
HETATM   46  C   UNK N   1      20.798  16.516   8.209  0.00  0.00     0.179 C 
HETATM   47  O   UNK N   1      21.167  16.515   6.888  0.00  0.00    -0.317 OA
HETATM   48  C   UNK N   1      21.320  17.608   6.108  0.00  0.00     0.258 C 
HETATM   49  N   UNK N   1      21.673  17.424   4.887  0.00  0.00    -0.338 N 
HETATM   50  C   UNK N   1      22.048  18.345   3.818  0.00  0.00     0.163 C 
ATOM     51  HN  UNK N   1      21.695  16.444   4.609  1.00  0.00     0.164 HD
HETATM   52  C   UNK N   1      23.530  18.748   3.921  0.00  0.00     0.135 C 
HETATM   53  N   UNK N   1      24.486  17.874   4.061  0.00  0.00    -0.360 N 
ATOM     54  HN  UNK N   1      25.439  18.227   4.141  1.00  0.00     0.162 HD
BRANCH  38  55
HETATM   55  O   UNK N   1      22.346  14.535   5.198  0.00  0.00    -0.349 OA
HETATM   56  H   UNK N   1      21.443  14.401   4.989  0.00  0.00     0.219 HD
ENDBRANCH  38  55
BRANCH  48  57
HETATM   57  O   UNK N   1      21.120  18.843   6.617  0.00  0.00    -0.327 OA
HETATM   58  H   UNK N   1      21.106  19.034   7.534  0.00  0.00     0.221 HD
ENDBRANCH  48  57
BRANCH  50  59
HETATM   59  C   UNK N   1      21.030  19.487   3.583  0.00  0.00     0.008 C 
HETATM   60  C   UNK N   1      21.481  20.538   2.582  0.00  0.00     0.012 C 
HETATM   61  C   UNK N   1      19.689  18.939   3.123  0.00  0.00     0.012 C 
ENDBRANCH  50  59
BRANCH  52  62
HETATM   62  O   UNK N   1      23.863  20.052   3.860  0.00  0.00    -0.348 OA
HETATM   63  H   UNK N   1      23.293  20.792   3.789  0.00  0.00     0.219 HD
ENDBRANCH  52  62
ENDBRANCH   1  36
BRANCH   1  64
HETATM   64  O   UNK N   1      24.785  15.165   2.037  0.00  0.00    -0.348 OA
HETATM   65  H   UNK N   1      25.043  14.993   1.153  0.00  0.00     0.219 HD
ENDBRANCH   1  64
TORSDOF 21
ENDMDL
MODEL 6
REMARK VINA RESULT:      -7.4      2.431     11.307
REMARK  21 active torsions:
REMARK  status: ('A' for Active; 'I' for Inactive)
REMARK    1  A    between atoms: C_23  and  C_19 
REMARK    2  A    between atoms: C_28  and  C_19 
REMARK    3  A    between atoms: C_26  and  C_20 
REMARK    4  A    between atoms: C_30  and  C_20 
REMARK    5  A    between atoms: C_27  and  C_22 
REMARK    6  A    between atoms: N_41  and  C_22 
REMARK    7  A    between atoms: C_32  and  C_24 
REMARK    8  A    between atoms: C_33  and  C_25 
REMARK    9  A    between atoms: C_34  and  C_26 
REMARK   10  A    between atoms: C_30  and  C_28 
REMARK   11  A    between atoms: C_28  and  N_43 
REMARK   12  A    between atoms: C_29  and  C_35 
REMARK   13  A    between atoms: C_30  and  O_51 
REMARK   14  A    between atoms: O_52  and  C_31 
REMARK   15  A    between atoms: C_36  and  C_32 
REMARK   16  A    between atoms: C_32  and  N_47 
REMARK   17  A    between atoms: C_34  and  O_53 
REMARK   18  A    between atoms: C_35  and  O_54 
REMARK   19  A    between atoms: O_55  and  C_36 
REMARK   20  A    between atoms: C_37  and  O_56 
REMARK   21  A    between atoms: C_38  and  O_57 
ROOT
HETATM    1  C   UNK N   1      30.643  16.293   6.026  0.00  0.00     0.135 C 
HETATM    2  N   UNK N   1      31.000  15.298   6.759  0.00  0.00    -0.366 N 
ATOM      3  HN  UNK N   1      30.254  14.689   7.093  1.00  0.00     0.161 HD
ENDROOT
BRANCH   2   4
HETATM    4  C   UNK N   1      32.339  14.952   7.159  0.00  0.00     0.112 C 
BRANCH   4   5
HETATM    5  C   UNK N   1      32.730  13.708   6.335  0.00  0.00     0.031 C 
BRANCH   5   6
HETATM    6  C   UNK N   1      34.131  13.753   5.725  0.00  0.00    -0.021 C 
HETATM    7  C   UNK N   1      34.534  15.185   5.428  0.00  0.00     0.009 C 
HETATM    8  C   UNK N   1      35.124  13.191   6.721  0.00  0.00     0.009 C 
ENDBRANCH   5   6
ENDBRANCH   4   5
BRANCH   4   9
HETATM    9  C   UNK N   1      32.252  14.657   8.683  0.00  0.00     0.141 C 
BRANCH   9  10
HETATM   10  C   UNK N   1      33.214  15.428   9.641  0.00  0.00     0.046 C 
BRANCH  10  11
HETATM   11  C   UNK N   1      34.671  15.875   9.358  0.00  0.00     0.058 C 
HETATM   12  C   UNK N   1      34.540  17.172   8.584  0.00  0.00     0.018 C 
BRANCH  11  13
HETATM   13  C   UNK N   1      35.745  16.132  10.439  0.00  0.00     0.115 C 
HETATM   14  N   UNK N   1      36.455  15.232  11.054  0.00  0.00    -0.362 N 
ATOM     15  HN  UNK N   1      37.155  15.574  11.711  1.00  0.00     0.162 HD
BRANCH  14  16
HETATM   16  C   UNK N   1      36.353  13.801  10.901  0.00  0.00     0.161 C 
BRANCH  16  17
HETATM   17  C   UNK N   1      37.730  13.128  10.967  0.00  0.00     0.008 C 
HETATM   18  C   UNK N   1      37.578  11.620  10.806  0.00  0.00     0.012 C 
HETATM   19  C   UNK N   1      38.631  13.617   9.842  0.00  0.00     0.012 C 
ENDBRANCH  16  17
BRANCH  16  20
HETATM   20  C   UNK N   1      35.333  13.240  11.886  0.00  0.00     0.135 C 
HETATM   21  N   UNK N   1      35.494  13.278  13.165  0.00  0.00    -0.368 N 
ATOM     22  HN  UNK N   1      34.730  12.934  13.747  1.00  0.00     0.161 HD
BRANCH  21  23
HETATM   23  C   UNK N   1      36.672  13.769  13.834  0.00  0.00     0.160 C 
BRANCH  23  24
HETATM   24  C   UNK N   1      36.327  13.905  15.279  0.00  0.00    -0.041 A 
HETATM   25  C   UNK N   1      36.921  14.903  16.056  0.00  0.00     0.009 A 
HETATM   26  C   UNK N   1      36.519  15.084  17.385  0.00  0.00     0.001 A 
HETATM   27  C   UNK N   1      35.522  14.270  17.935  0.00  0.00     0.000 A 
HETATM   28  C   UNK N   1      34.929  13.273  17.159  0.00  0.00     0.001 A 
HETATM   29  C   UNK N   1      35.328  13.098  15.834  0.00  0.00     0.009 A 
ENDBRANCH  23  24
ENDBRANCH  21  23
BRANCH  20  30
HETATM   30  O   UNK N   1      34.212  12.671  11.406  0.00  0.00    -0.348 OA
HETATM   31  H   UNK N   1      33.399  12.206  11.403  0.00  0.00     0.219 HD
ENDBRANCH  20  30
ENDBRANCH  16  20
ENDBRANCH  14  16
BRANCH  13  32
HETATM   32  O   UNK N   1      35.947  17.420  10.787  0.00  0.00    -0.349 OA
HETATM   33  H   UNK N   1      35.709  17.994  11.487  0.00  0.00     0.219 HD
ENDBRANCH  13  32
ENDBRANCH  11  13
ENDBRANCH  10  11
ENDBRANCH   9  10
BRANCH   9  34
HETATM   34  O   UNK N   1      32.414  13.300   8.952  0.00  0.00    -0.393 OA
HETATM   35  H   UNK N   1      33.078  12.938   9.561  0.00  0.00     0.210 HD
ENDBRANCH   9  34
ENDBRANCH   4   9
ENDBRANCH   2   4
BRANCH   1  36
HETATM   36  C   UNK N   1      29.176  16.562   5.915  0.00  0.00     0.165 C 
HETATM   37  C   UNK N   1      28.316  15.296   5.818  0.00  0.00     0.117 C 
HETATM   38  C   UNK N   1      28.279  14.720   4.424  0.00  0.00     0.113 C 
HETATM   39  N   UNK N   1      28.287  13.446   4.258  0.00  0.00    -0.374 N 
HETATM   40  C   UNK N   1      28.195  12.865   2.940  0.00  0.00     0.121 C 
ATOM     41  HN  UNK N   1      28.357  12.835   5.071  1.00  0.00     0.161 HD
HETATM   42  C   UNK N   1      26.868  12.141   2.796  0.00  0.00     0.020 C 
HETATM   43  C   UNK N   1      25.977  12.790   1.738  0.00  0.00     0.002 C 
HETATM   44  C   UNK N   1      25.495  14.183   2.135  0.00  0.00     0.002 C 
HETATM   45  C   UNK N   1      24.567  14.145   3.348  0.00  0.00     0.027 C 
HETATM   46  C   UNK N   1      24.290  15.551   3.881  0.00  0.00     0.179 C 
HETATM   47  O   UNK N   1      25.477  16.231   3.989  0.00  0.00    -0.317 OA
HETATM   48  C   UNK N   1      25.685  17.347   4.720  0.00  0.00     0.258 C 
HETATM   49  N   UNK N   1      26.865  17.856   4.709  0.00  0.00    -0.338 N 
HETATM   50  C   UNK N   1      27.476  18.950   5.457  0.00  0.00     0.163 C 
ATOM     51  HN  UNK N   1      27.499  17.408   4.048  1.00  0.00     0.164 HD
HETATM   52  C   UNK N   1      27.966  18.479   6.837  0.00  0.00     0.135 C 
HETATM   53  N   UNK N   1      28.704  17.416   6.994  0.00  0.00    -0.360 N 
ATOM     54  HN  UNK N   1      28.970  17.163   7.946  1.00  0.00     0.162 HD
BRANCH  38  55
HETATM   55  O   UNK N   1      28.177  15.544   3.356  0.00  0.00    -0.349 OA
HETATM   56  H   UNK N   1      28.259  15.995   2.539  0.00  0.00     0.219 HD
ENDBRANCH  38  55
BRANCH  48  57
HETATM   57  O   UNK N   1      24.682  17.886   5.445  0.00  0.00    -0.327 OA
HETATM   58  H   UNK N   1      23.986  17.387   5.827  0.00  0.00     0.221 HD
ENDBRANCH  48  57
BRANCH  50  59
HETATM   59  C   UNK N   1      26.668  20.270   5.417  0.00  0.00     0.008 C 
HETATM   60  C   UNK N   1      27.371  21.459   6.050  0.00  0.00     0.012 C 
HETATM   61  C   UNK N   1      26.297  20.643   3.992  0.00  0.00     0.012 C 
ENDBRANCH  50  59
BRANCH  52  62
HETATM   62  O   UNK N   1      27.632  19.189   7.933  0.00  0.00    -0.348 OA
HETATM   63  H   UNK N   1      28.182  19.443   8.647  0.00  0.00     0.219 HD
ENDBRANCH  52  62
ENDBRANCH   1  36
BRANCH   1  64
HETATM   64  O   UNK N   1      31.552  17.154   5.518  0.00  0.00    -0.348 OA
HETATM   65  H   UNK N   1      32.476  17.280   5.424  0.00  0.00     0.219 HD
ENDBRANCH   1  64
TORSDOF 21
ENDMDL
MODEL 7
REMARK VINA RESULT:      -7.4      4.843     11.305
REMARK  21 active torsions:
REMARK  status: ('A' for Active; 'I' for Inactive)
REMARK    1  A    between atoms: C_23  and  C_19 
REMARK    2  A    between atoms: C_28  and  C_19 
REMARK    3  A    between atoms: C_26  and  C_20 
REMARK    4  A    between atoms: C_30  and  C_20 
REMARK    5  A    between atoms: C_27  and  C_22 
REMARK    6  A    between atoms: N_41  and  C_22 
REMARK    7  A    between atoms: C_32  and  C_24 
REMARK    8  A    between atoms: C_33  and  C_25 
REMARK    9  A    between atoms: C_34  and  C_26 
REMARK   10  A    between atoms: C_30  and  C_28 
REMARK   11  A    between atoms: C_28  and  N_43 
REMARK   12  A    between atoms: C_29  and  C_35 
REMARK   13  A    between atoms: C_30  and  O_51 
REMARK   14  A    between atoms: O_52  and  C_31 
REMARK   15  A    between atoms: C_36  and  C_32 
REMARK   16  A    between atoms: C_32  and  N_47 
REMARK   17  A    between atoms: C_34  and  O_53 
REMARK   18  A    between atoms: C_35  and  O_54 
REMARK   19  A    between atoms: O_55  and  C_36 
REMARK   20  A    between atoms: C_37  and  O_56 
REMARK   21  A    between atoms: C_38  and  O_57 
ROOT
HETATM    1  C   UNK N   1      25.679  15.685   3.825  0.00  0.00     0.135 C 
HETATM    2  N   UNK N   1      26.126  14.576   4.297  0.00  0.00    -0.366 N 
ATOM      3  HN  UNK N   1      25.629  14.190   5.100  1.00  0.00     0.161 HD
ENDROOT
BRANCH   2   4
HETATM    4  C   UNK N   1      27.252  13.820   3.816  0.00  0.00     0.112 C 
BRANCH   4   5
HETATM    5  C   UNK N   1      26.764  12.365   3.661  0.00  0.00     0.031 C 
BRANCH   5   6
HETATM    6  C   UNK N   1      26.844  11.805   2.241  0.00  0.00    -0.021 C 
HETATM    7  C   UNK N   1      25.600  12.174   1.456  0.00  0.00     0.009 C 
HETATM    8  C   UNK N   1      28.035  12.416   1.533  0.00  0.00     0.009 C 
ENDBRANCH   5   6
ENDBRANCH   4   5
BRANCH   4   9
HETATM    9  C   UNK N   1      28.349  13.970   4.907  0.00  0.00     0.141 C 
BRANCH   9  10
HETATM   10  C   UNK N   1      29.083  15.343   5.034  0.00  0.00     0.046 C 
BRANCH  10  11
HETATM   11  C   UNK N   1      30.351  15.809   4.276  0.00  0.00     0.058 C 
HETATM   12  C   UNK N   1      29.883  16.082   2.860  0.00  0.00     0.018 C 
BRANCH  11  13
HETATM   13  C   UNK N   1      31.227  17.018   4.675  0.00  0.00     0.115 C 
HETATM   14  N   UNK N   1      31.636  17.315   5.872  0.00  0.00    -0.362 N 
ATOM     15  HN  UNK N   1      32.248  18.127   5.958  1.00  0.00     0.162 HD
BRANCH  14  16
HETATM   16  C   UNK N   1      31.313  16.616   7.093  0.00  0.00     0.161 C 
BRANCH  16  17
HETATM   17  C   UNK N   1      32.476  15.733   7.561  0.00  0.00     0.008 C 
HETATM   18  C   UNK N   1      32.294  14.315   7.036  0.00  0.00     0.012 C 
HETATM   19  C   UNK N   1      33.803  16.250   7.026  0.00  0.00     0.012 C 
ENDBRANCH  16  17
BRANCH  16  20
HETATM   20  C   UNK N   1      30.810  17.601   8.143  0.00  0.00     0.135 C 
HETATM   21  N   UNK N   1      29.575  17.960   8.240  0.00  0.00    -0.368 N 
ATOM     22  HN  UNK N   1      29.322  18.576   9.012  1.00  0.00     0.161 HD
BRANCH  21  23
HETATM   23  C   UNK N   1      28.527  17.556   7.337  0.00  0.00     0.160 C 
BRANCH  23  24
HETATM   24  C   UNK N   1      28.120  18.771   6.573  0.00  0.00    -0.041 A 
HETATM   25  C   UNK N   1      28.162  18.773   5.176  0.00  0.00     0.009 A 
HETATM   26  C   UNK N   1      27.688  19.882   4.465  0.00  0.00     0.001 A 
HETATM   27  C   UNK N   1      27.168  20.986   5.151  0.00  0.00     0.000 A 
HETATM   28  C   UNK N   1      27.128  20.986   6.546  0.00  0.00     0.001 A 
HETATM   29  C   UNK N   1      27.597  19.877   7.251  0.00  0.00     0.009 A 
ENDBRANCH  23  24
ENDBRANCH  21  23
BRANCH  20  30
HETATM   30  O   UNK N   1      31.692  18.132   9.010  0.00  0.00    -0.348 OA
HETATM   31  H   UNK N   1      32.480  18.230   9.507  0.00  0.00     0.219 HD
ENDBRANCH  20  30
ENDBRANCH  16  20
ENDBRANCH  14  16
BRANCH  13  32
HETATM   32  O   UNK N   1      31.585  17.852   3.676  0.00  0.00    -0.349 OA
HETATM   33  H   UNK N   1      31.169  18.454   3.093  0.00  0.00     0.219 HD
ENDBRANCH  13  32
ENDBRANCH  11  13
ENDBRANCH  10  11
ENDBRANCH   9  10
BRANCH   9  34
HETATM   34  O   UNK N   1      29.335  12.994   4.780  0.00  0.00    -0.393 OA
HETATM   35  H   UNK N   1      29.889  12.678   5.511  0.00  0.00     0.210 HD
ENDBRANCH   9  34
ENDBRANCH   4   9
ENDBRANCH   2   4
BRANCH   1  36
HETATM   36  C   UNK N   1      24.622  16.384   4.620  0.00  0.00     0.165 C 
HETATM   37  C   UNK N   1      24.561  15.952   6.090  0.00  0.00     0.117 C 
HETATM   38  C   UNK N   1      23.807  14.660   6.290  0.00  0.00     0.113 C 
HETATM   39  N   UNK N   1      24.217  13.809   7.161  0.00  0.00    -0.374 N 
HETATM   40  C   UNK N   1      23.486  12.590   7.414  0.00  0.00     0.121 C 
ATOM     41  HN  UNK N   1      25.072  13.998   7.682  1.00  0.00     0.161 HD
HETATM   42  C   UNK N   1      22.894  12.636   8.812  0.00  0.00     0.020 C 
HETATM   43  C   UNK N   1      21.366  12.645   8.784  0.00  0.00     0.002 C 
HETATM   44  C   UNK N   1      20.787  13.927   8.193  0.00  0.00     0.002 C 
HETATM   45  C   UNK N   1      21.093  15.148   9.059  0.00  0.00     0.027 C 
HETATM   46  C   UNK N   1      20.724  16.447   8.340  0.00  0.00     0.179 C 
HETATM   47  O   UNK N   1      21.226  16.410   7.064  0.00  0.00    -0.317 OA
HETATM   48  C   UNK N   1      21.401  17.476   6.252  0.00  0.00     0.258 C 
HETATM   49  N   UNK N   1      21.885  17.260   5.082  0.00  0.00    -0.338 N 
HETATM   50  C   UNK N   1      22.319  18.154   4.013  0.00  0.00     0.163 C 
ATOM     51  HN  UNK N   1      21.985  16.272   4.855  1.00  0.00     0.164 HD
HETATM   52  C   UNK N   1      23.760  18.643   4.243  0.00  0.00     0.135 C 
HETATM   53  N   UNK N   1      24.741  17.830   4.519  0.00  0.00    -0.360 N 
ATOM     54  HN  UNK N   1      25.662  18.239   4.676  1.00  0.00     0.162 HD
BRANCH  38  55
HETATM   55  O   UNK N   1      22.669  14.429   5.597  0.00  0.00    -0.349 OA
HETATM   56  H   UNK N   1      21.891  14.472   5.077  0.00  0.00     0.219 HD
ENDBRANCH  38  55
BRANCH  48  57
HETATM   57  O   UNK N   1      21.088  18.718   6.679  0.00  0.00    -0.327 OA
HETATM   58  H   UNK N   1      20.393  18.905   7.279  0.00  0.00     0.221 HD
ENDBRANCH  48  57
BRANCH  50  59
HETATM   59  C   UNK N   1      21.273  19.227   3.624  0.00  0.00     0.008 C 
HETATM   60  C   UNK N   1      21.740  20.204   2.558  0.00  0.00     0.012 C 
HETATM   61  C   UNK N   1      19.982  18.585   3.145  0.00  0.00     0.012 C 
ENDBRANCH  50  59
BRANCH  52  62
HETATM   62  O   UNK N   1      24.032  19.960   4.153  0.00  0.00    -0.348 OA
HETATM   63  H   UNK N   1      24.107  20.583   4.849  0.00  0.00     0.219 HD
ENDBRANCH  52  62
ENDBRANCH   1  36
BRANCH   1  64
HETATM   64  O   UNK N   1      26.253  16.276   2.755  0.00  0.00    -0.348 OA
HETATM   65  H   UNK N   1      26.928  16.150   2.117  0.00  0.00     0.219 HD
ENDBRANCH   1  64
TORSDOF 21
ENDMDL
MODEL 8
REMARK VINA RESULT:      -7.3      4.849     11.679
REMARK  21 active torsions:
REMARK  status: ('A' for Active; 'I' for Inactive)
REMARK    1  A    between atoms: C_23  and  C_19 
REMARK    2  A    between atoms: C_28  and  C_19 
REMARK    3  A    between atoms: C_26  and  C_20 
REMARK    4  A    between atoms: C_30  and  C_20 
REMARK    5  A    between atoms: C_27  and  C_22 
REMARK    6  A    between atoms: N_41  and  C_22 
REMARK    7  A    between atoms: C_32  and  C_24 
REMARK    8  A    between atoms: C_33  and  C_25 
REMARK    9  A    between atoms: C_34  and  C_26 
REMARK   10  A    between atoms: C_30  and  C_28 
REMARK   11  A    between atoms: C_28  and  N_43 
REMARK   12  A    between atoms: C_29  and  C_35 
REMARK   13  A    between atoms: C_30  and  O_51 
REMARK   14  A    between atoms: O_52  and  C_31 
REMARK   15  A    between atoms: C_36  and  C_32 
REMARK   16  A    between atoms: C_32  and  N_47 
REMARK   17  A    between atoms: C_34  and  O_53 
REMARK   18  A    between atoms: C_35  and  O_54 
REMARK   19  A    between atoms: O_55  and  C_36 
REMARK   20  A    between atoms: C_37  and  O_56 
REMARK   21  A    between atoms: C_38  and  O_57 
ROOT
HETATM    1  C   UNK N   1      24.143  17.787   5.239  0.00  0.00     0.135 C 
HETATM    2  N   UNK N   1      25.308  17.241   5.247  0.00  0.00    -0.366 N 
ATOM      3  HN  UNK N   1      25.349  16.255   4.990  1.00  0.00     0.161 HD
ENDROOT
BRANCH   2   4
HETATM    4  C   UNK N   1      26.558  17.871   5.579  0.00  0.00     0.112 C 
BRANCH   4   5
HETATM    5  C   UNK N   1      27.264  18.169   4.240  0.00  0.00     0.031 C 
BRANCH   5   6
HETATM    6  C   UNK N   1      27.509  19.651   3.956  0.00  0.00    -0.021 C 
HETATM    7  C   UNK N   1      26.323  20.254   3.230  0.00  0.00     0.009 C 
HETATM    8  C   UNK N   1      27.672  20.387   5.269  0.00  0.00     0.009 C 
ENDBRANCH   5   6
ENDBRANCH   4   5
BRANCH   4   9
HETATM    9  C   UNK N   1      27.328  16.833   6.443  0.00  0.00     0.141 C 
BRANCH   9  10
HETATM   10  C   UNK N   1      28.857  17.051   6.675  0.00  0.00     0.046 C 
BRANCH  10  11
HETATM   11  C   UNK N   1      29.535  17.805   7.847  0.00  0.00     0.058 C 
HETATM   12  C   UNK N   1      28.438  18.662   8.449  0.00  0.00     0.018 C 
BRANCH  11  13
HETATM   13  C   UNK N   1      30.249  17.130   9.040  0.00  0.00     0.115 C 
HETATM   14  N   UNK N   1      31.402  16.529   9.012  0.00  0.00    -0.362 N 
ATOM     15  HN  UNK N   1      31.753  16.174   9.901  1.00  0.00     0.162 HD
BRANCH  14  16
HETATM   16  C   UNK N   1      32.234  16.313   7.853  0.00  0.00     0.161 C 
BRANCH  16  17
HETATM   17  C   UNK N   1      33.676  16.772   8.102  0.00  0.00     0.008 C 
HETATM   18  C   UNK N   1      34.594  16.202   7.028  0.00  0.00     0.012 C 
HETATM   19  C   UNK N   1      33.785  18.289   8.035  0.00  0.00     0.012 C 
ENDBRANCH  16  17
BRANCH  16  20
HETATM   20  C   UNK N   1      32.109  14.869   7.380  0.00  0.00     0.135 C 
HETATM   21  N   UNK N   1      31.849  14.547   6.159  0.00  0.00    -0.368 N 
ATOM     22  HN  UNK N   1      31.845  13.554   5.923  1.00  0.00     0.161 HD
BRANCH  21  23
HETATM   23  C   UNK N   1      31.562  15.485   5.103  0.00  0.00     0.160 C 
BRANCH  23  24
HETATM   24  C   UNK N   1      30.446  14.906   4.300  0.00  0.00    -0.041 A 
HETATM   25  C   UNK N   1      29.890  13.672   4.651  0.00  0.00     0.009 A 
HETATM   26  C   UNK N   1      28.781  13.183   3.951  0.00  0.00     0.001 A 
HETATM   27  C   UNK N   1      28.224  13.928   2.905  0.00  0.00     0.000 A 
HETATM   28  C   UNK N   1      28.780  15.160   2.553  0.00  0.00     0.001 A 
HETATM   29  C   UNK N   1      29.882  15.647   3.255  0.00  0.00     0.009 A 
ENDBRANCH  23  24
ENDBRANCH  21  23
BRANCH  20  30
HETATM   30  O   UNK N   1      32.269  13.877   8.275  0.00  0.00    -0.348 OA
HETATM   31  H   UNK N   1      32.580  13.424   9.033  0.00  0.00     0.219 HD
ENDBRANCH  20  30
ENDBRANCH  16  20
ENDBRANCH  14  16
BRANCH  13  32
HETATM   32  O   UNK N   1      29.596  17.156  10.220  0.00  0.00    -0.349 OA
HETATM   33  H   UNK N   1      28.920  16.670  10.650  0.00  0.00     0.219 HD
ENDBRANCH  13  32
ENDBRANCH  11  13
ENDBRANCH  10  11
ENDBRANCH   9  10
BRANCH   9  34
HETATM   34  O   UNK N   1      27.174  15.539   5.948  0.00  0.00    -0.393 OA
HETATM   35  H   UNK N   1      27.778  15.119   5.315  0.00  0.00     0.210 HD
ENDBRANCH   9  34
ENDBRANCH   4   9
ENDBRANCH   2   4
BRANCH   1  36
HETATM   36  C   UNK N   1      22.969  16.879   5.057  0.00  0.00     0.165 C 
HETATM   37  C   UNK N   1      22.677  15.989   6.272  0.00  0.00     0.117 C 
HETATM   38  C   UNK N   1      23.564  14.771   6.332  0.00  0.00     0.113 C 
HETATM   39  N   UNK N   1      23.999  14.352   7.466  0.00  0.00    -0.374 N 
HETATM   40  C   UNK N   1      24.804  13.157   7.562  0.00  0.00     0.121 C 
ATOM     41  HN  UNK N   1      23.771  14.871   8.313  1.00  0.00     0.161 HD
HETATM   42  C   UNK N   1      24.021  12.076   8.287  0.00  0.00     0.020 C 
HETATM   43  C   UNK N   1      23.724  10.883   7.381  0.00  0.00     0.002 C 
HETATM   44  C   UNK N   1      22.755  11.218   6.250  0.00  0.00     0.002 C 
HETATM   45  C   UNK N   1      21.363  11.572   6.773  0.00  0.00     0.027 C 
HETATM   46  C   UNK N   1      20.478  12.139   5.662  0.00  0.00     0.179 C 
HETATM   47  O   UNK N   1      21.180  13.097   4.976  0.00  0.00    -0.317 OA
HETATM   48  C   UNK N   1      20.649  14.041   4.168  0.00  0.00     0.258 C 
HETATM   49  N   UNK N   1      21.455  14.864   3.601  0.00  0.00    -0.338 N 
HETATM   50  C   UNK N   1      21.240  16.058   2.790  0.00  0.00     0.163 C 
ATOM     51  HN  UNK N   1      22.439  14.639   3.745  1.00  0.00     0.164 HD
HETATM   52  C   UNK N   1      20.996  17.296   3.672  0.00  0.00     0.135 C 
HETATM   53  N   UNK N   1      21.776  17.614   4.666  0.00  0.00    -0.360 N 
ATOM     54  HN  UNK N   1      21.532  18.440   5.211  1.00  0.00     0.162 HD
BRANCH  38  55
HETATM   55  O   UNK N   1      23.851  14.087   5.200  0.00  0.00    -0.349 OA
HETATM   56  H   UNK N   1      23.848  13.645   4.375  0.00  0.00     0.219 HD
ENDBRANCH  38  55
BRANCH  48  57
HETATM   57  O   UNK N   1      19.312  14.112   3.988  0.00  0.00    -0.327 OA
HETATM   58  H   UNK N   1      18.864  13.748   3.250  0.00  0.00     0.221 HD
ENDBRANCH  48  57
BRANCH  50  59
HETATM   59  C   UNK N   1      20.270  15.848   1.602  0.00  0.00     0.008 C 
HETATM   60  C   UNK N   1      20.180  17.025   0.646  0.00  0.00     0.012 C 
HETATM   61  C   UNK N   1      20.648  14.613   0.800  0.00  0.00     0.012 C 
ENDBRANCH  50  59
BRANCH  52  62
HETATM   62  O   UNK N   1      19.941  18.094   3.411  0.00  0.00    -0.348 OA
HETATM   63  H   UNK N   1      19.047  17.846   3.287  0.00  0.00     0.219 HD
ENDBRANCH  52  62
ENDBRANCH   1  36
BRANCH   1  64
HETATM   64  O   UNK N   1      23.976  19.092   5.549  0.00  0.00    -0.348 OA
HETATM   65  H   UNK N   1      24.298  19.760   6.122  0.00  0.00     0.219 HD
ENDBRANCH   1  64
TORSDOF 21
ENDMDL
MODEL 9
REMARK VINA RESULT:      -7.3      6.379     10.799
REMARK  21 active torsions:
REMARK  status: ('A' for Active; 'I' for Inactive)
REMARK    1  A    between atoms: C_23  and  C_19 
REMARK    2  A    between atoms: C_28  and  C_19 
REMARK    3  A    between atoms: C_26  and  C_20 
REMARK    4  A    between atoms: C_30  and  C_20 
REMARK    5  A    between atoms: C_27  and  C_22 
REMARK    6  A    between atoms: N_41  and  C_22 
REMARK    7  A    between atoms: C_32  and  C_24 
REMARK    8  A    between atoms: C_33  and  C_25 
REMARK    9  A    between atoms: C_34  and  C_26 
REMARK   10  A    between atoms: C_30  and  C_28 
REMARK   11  A    between atoms: C_28  and  N_43 
REMARK   12  A    between atoms: C_29  and  C_35 
REMARK   13  A    between atoms: C_30  and  O_51 
REMARK   14  A    between atoms: O_52  and  C_31 
REMARK   15  A    between atoms: C_36  and  C_32 
REMARK   16  A    between atoms: C_32  and  N_47 
REMARK   17  A    between atoms: C_34  and  O_53 
REMARK   18  A    between atoms: C_35  and  O_54 
REMARK   19  A    between atoms: O_55  and  C_36 
REMARK   20  A    between atoms: C_37  and  O_56 
REMARK   21  A    between atoms: C_38  and  O_57 
ROOT
HETATM    1  C   UNK N   1      25.233  14.290   7.736  0.00  0.00     0.135 C 
HETATM    2  N   UNK N   1      23.999  14.093   7.429  0.00  0.00    -0.366 N 
ATOM      3  HN  UNK N   1      23.756  14.190   6.443  1.00  0.00     0.161 HD
ENDROOT
BRANCH   2   4
HETATM    4  C   UNK N   1      22.926  13.751   8.324  0.00  0.00     0.112 C 
BRANCH   4   5
HETATM    5  C   UNK N   1      22.946  12.215   8.459  0.00  0.00     0.031 C 
BRANCH   5   6
HETATM    6  C   UNK N   1      22.884  11.692   9.895  0.00  0.00    -0.021 C 
HETATM    7  C   UNK N   1      24.182  11.984  10.621  0.00  0.00     0.009 C 
HETATM    8  C   UNK N   1      21.770  12.405  10.634  0.00  0.00     0.009 C 
ENDBRANCH   5   6
ENDBRANCH   4   5
BRANCH   4   9
HETATM    9  C   UNK N   1      21.633  14.275   7.640  0.00  0.00     0.141 C 
BRANCH   9  10
HETATM   10  C   UNK N   1      20.908  15.506   8.270  0.00  0.00     0.046 C 
BRANCH  10  11
HETATM   11  C   UNK N   1      20.062  16.580   7.539  0.00  0.00     0.058 C 
HETATM   12  C   UNK N   1      18.869  16.821   8.442  0.00  0.00     0.018 C 
BRANCH  11  13
HETATM   13  C   UNK N   1      20.574  17.979   7.127  0.00  0.00     0.115 C 
HETATM   14  N   UNK N   1      21.062  18.314   5.970  0.00  0.00    -0.362 N 
ATOM     15  HN  UNK N   1      21.313  19.295   5.846  1.00  0.00     0.162 HD
BRANCH  14  16
HETATM   16  C   UNK N   1      21.286  17.442   4.842  0.00  0.00     0.161 C 
BRANCH  16  17
HETATM   17  C   UNK N   1      21.102  18.182   3.511  0.00  0.00     0.008 C 
HETATM   18  C   UNK N   1      19.864  17.658   2.794  0.00  0.00     0.012 C 
HETATM   19  C   UNK N   1      20.900  19.672   3.740  0.00  0.00     0.012 C 
ENDBRANCH  16  17
BRANCH  16  20
HETATM   20  C   UNK N   1      22.630  16.734   4.986  0.00  0.00     0.135 C 
HETATM   21  N   UNK N   1      22.864  15.561   4.506  0.00  0.00    -0.368 N 
ATOM     22  HN  UNK N   1      23.811  15.193   4.597  1.00  0.00     0.161 HD
BRANCH  21  23
HETATM   23  C   UNK N   1      21.887  14.729   3.849  0.00  0.00     0.160 C 
BRANCH  23  24
HETATM   24  C   UNK N   1      22.515  14.234   2.590  0.00  0.00    -0.041 A 
HETATM   25  C   UNK N   1      21.821  13.354   1.754  0.00  0.00     0.009 A 
HETATM   26  C   UNK N   1      22.379  12.971   0.528  0.00  0.00     0.001 A 
HETATM   27  C   UNK N   1      23.627  13.470   0.137  0.00  0.00     0.000 A 
HETATM   28  C   UNK N   1      24.321  14.347   0.972  0.00  0.00     0.001 A 
HETATM   29  C   UNK N   1      23.760  14.731   2.190  0.00  0.00     0.009 A 
ENDBRANCH  23  24
ENDBRANCH  21  23
BRANCH  20  30
HETATM   30  O   UNK N   1      23.621  17.354   5.651  0.00  0.00    -0.348 OA
HETATM   31  H   UNK N   1      24.457  17.747   5.810  0.00  0.00     0.219 HD
ENDBRANCH  20  30
ENDBRANCH  16  20
ENDBRANCH  14  16
BRANCH  13  32
HETATM   32  O   UNK N   1      20.519  18.938   8.074  0.00  0.00    -0.349 OA
HETATM   33  H   UNK N   1      20.836  19.071   8.945  0.00  0.00     0.219 HD
ENDBRANCH  13  32
ENDBRANCH  11  13
ENDBRANCH  10  11
ENDBRANCH   9  10
BRANCH   9  34
HETATM   34  O   UNK N   1      20.679  13.268   7.507  0.00  0.00    -0.393 OA
HETATM   35  H   UNK N   1      20.050  13.014   8.201  0.00  0.00     0.210 HD
ENDBRANCH   9  34
ENDBRANCH   4   9
ENDBRANCH   2   4
BRANCH   1  36
HETATM   36  C   UNK N   1      26.121  14.833   6.663  0.00  0.00     0.165 C 
HETATM   37  C   UNK N   1      25.676  14.468   5.242  0.00  0.00     0.117 C 
HETATM   38  C   UNK N   1      26.097  13.077   4.836  0.00  0.00     0.113 C 
HETATM   39  N   UNK N   1      25.308  12.351   4.128  0.00  0.00    -0.374 N 
HETATM   40  C   UNK N   1      25.705  11.038   3.678  0.00  0.00     0.121 C 
ATOM     41  HN  UNK N   1      24.386  12.708   3.880  1.00  0.00     0.161 HD
HETATM   42  C   UNK N   1      25.865  11.048   2.168  0.00  0.00     0.020 C 
HETATM   43  C   UNK N   1      27.312  10.792   1.747  0.00  0.00     0.002 C 
HETATM   44  C   UNK N   1      28.256  11.926   2.135  0.00  0.00     0.002 C 
HETATM   45  C   UNK N   1      27.935  13.221   1.390  0.00  0.00     0.027 C 
HETATM   46  C   UNK N   1      28.721  14.402   1.963  0.00  0.00     0.179 C 
HETATM   47  O   UNK N   1      28.612  14.392   3.330  0.00  0.00    -0.317 OA
HETATM   48  C   UNK N   1      28.873  15.432   4.152  0.00  0.00     0.258 C 
HETATM   49  N   UNK N   1      28.717  15.248   5.414  0.00  0.00    -0.338 N 
HETATM   50  C   UNK N   1      28.777  16.151   6.559  0.00  0.00     0.163 C 
ATOM     51  HN  UNK N   1      28.513  14.281   5.666  1.00  0.00     0.164 HD
HETATM   52  C   UNK N   1      27.443  16.891   6.759  0.00  0.00     0.135 C 
HETATM   53  N   UNK N   1      26.296  16.272   6.787  0.00  0.00    -0.360 N 
ATOM     54  HN  UNK N   1      25.457  16.840   6.905  1.00  0.00     0.162 HD
BRANCH  38  55
HETATM   55  O   UNK N   1      27.327  12.620   5.167  0.00  0.00    -0.349 OA
HETATM   56  H   UNK N   1      28.193  12.486   5.496  0.00  0.00     0.219 HD
ENDBRANCH  38  55
BRANCH  48  57
HETATM   57  O   UNK N   1      29.265  16.621   3.646  0.00  0.00    -0.327 OA
HETATM   58  H   UNK N   1      30.038  17.075   3.918  0.00  0.00     0.221 HD
ENDBRANCH  48  57
BRANCH  50  59
HETATM   59  C   UNK N   1      30.065  17.009   6.619  0.00  0.00     0.008 C 
HETATM   60  C   UNK N   1      30.280  17.731   7.938  0.00  0.00     0.012 C 
HETATM   61  C   UNK N   1      31.297  16.167   6.333  0.00  0.00     0.012 C 
ENDBRANCH  50  59
BRANCH  52  62
HETATM   62  O   UNK N   1      27.448  18.229   6.918  0.00  0.00    -0.348 OA
HETATM   63  H   UNK N   1      27.557  18.716   7.710  0.00  0.00     0.219 HD
ENDBRANCH  52  62
ENDBRANCH   1  36
BRANCH   1  64
HETATM   64  O   UNK N   1      25.667  14.173   9.010  0.00  0.00    -0.348 OA
HETATM   65  H   UNK N   1      26.232  14.581   9.636  0.00  0.00     0.219 HD
ENDBRANCH   1  64
TORSDOF 21
ENDMDL
