MODEL 1
REMARK VINA RESULT:      -4.1      0.000      0.000
REMARK  7 active torsions:
REMARK  status: ('A' for Active; 'I' for Inactive)
REMARK    1  A    between atoms: S_2  and  C_3 
REMARK    2  A    between atoms: C_3  and  C_4 
REMARK    3  A    between atoms: C_4  and  C_5 
REMARK    4  A    between atoms: C_5  and  N_6 
REMARK    5  A    between atoms: C_5  and  P_7 
REMARK    6  A    between atoms: P_7  and  O_8 
REMARK    7  A    between atoms: P_7  and  O_9 
ROOT
HETATM    1  C   UNK N   1      34.880  16.614   9.399  0.00  0.00     0.187 C 
ENDROOT
BRANCH   1   2
HETATM    2  C   UNK N   1      33.850  15.513   9.579  0.00  0.00     0.047 C 
BRANCH   2   3
HETATM    3  C   UNK N   1      34.133  14.763  10.869  0.00  0.00     0.076 C 
BRANCH   3   4
HETATM    4  S   UNK N   1      35.444  13.537  10.602  0.00  0.00    -0.173 SA
HETATM    5  C   UNK N   1      36.288  13.993  12.144  0.00  0.00     0.089 C 
ENDBRANCH   3   4
ENDBRANCH   2   3
ENDBRANCH   1   2
BRANCH   1   6
HETATM    6  N   UNK N   1      35.143  17.249  10.677  0.00  0.00    -0.417 N 
HETATM    7  H   UNK N   1      36.043  17.583  11.021  0.00  0.00     0.150 HD
HETATM    8  H   UNK N   1      34.343  17.374  11.297  0.00  0.00     0.150 HD
ENDBRANCH   1   6
BRANCH   1   9
HETATM    9  P   UNK N   1      34.304  17.906   8.184  0.00  0.00     0.258 P 
HETATM   10  O   UNK N   1      35.037  19.255   8.416  0.00  0.00    -0.652 OA
BRANCH   9  11
HETATM   11  O   UNK N   1      34.599  17.542   6.512  0.00  0.00    -0.328 OA
HETATM   12  H   UNK N   1      35.183  17.236   5.801  0.00  0.00     0.220 HD
ENDBRANCH   9  11
BRANCH   9  13
HETATM   13  O   UNK N   1      32.624  18.316   8.321  0.00  0.00    -0.328 OA
HETATM   14  H   UNK N   1      32.132  19.143   8.445  0.00  0.00     0.220 HD
ENDBRANCH   9  13
ENDBRANCH   1   9
TORSDOF 7
ENDMDL
MODEL 2
REMARK VINA RESULT:      -4.1     14.777     15.529
REMARK  7 active torsions:
REMARK  status: ('A' for Active; 'I' for Inactive)
REMARK    1  A    between atoms: S_2  and  C_3 
REMARK    2  A    between atoms: C_3  and  C_4 
REMARK    3  A    between atoms: C_4  and  C_5 
REMARK    4  A    between atoms: C_5  and  N_6 
REMARK    5  A    between atoms: C_5  and  P_7 
REMARK    6  A    between atoms: P_7  and  O_8 
REMARK    7  A    between atoms: P_7  and  O_9 
ROOT
HETATM    1  C   UNK N   1      19.919  19.910   2.934  0.00  0.00     0.187 C 
ENDROOT
BRANCH   1   2
HETATM    2  C   UNK N   1      20.899  19.346   3.946  0.00  0.00     0.047 C 
BRANCH   2   3
HETATM    3  C   UNK N   1      21.237  17.911   3.577  0.00  0.00     0.076 C 
BRANCH   3   4
HETATM    4  S   UNK N   1      22.392  17.212   4.788  0.00  0.00    -0.173 SA
HETATM    5  C   UNK N   1      23.795  18.133   4.096  0.00  0.00     0.089 C 
ENDBRANCH   3   4
ENDBRANCH   2   3
ENDBRANCH   1   2
BRANCH   1   6
HETATM    6  N   UNK N   1      18.999  18.868   2.515  0.00  0.00    -0.417 N 
HETATM    7  H   UNK N   1      19.216  17.884   2.361  0.00  0.00     0.150 HD
HETATM    8  H   UNK N   1      18.032  19.152   2.357  0.00  0.00     0.150 HD
ENDBRANCH   1   6
BRANCH   1   9
HETATM    9  P   UNK N   1      20.792  20.592   1.434  0.00  0.00     0.258 P 
HETATM   10  O   UNK N   1      22.329  20.628   1.652  0.00  0.00    -0.652 OA
BRANCH   9  11
HETATM   11  O   UNK N   1      20.589  19.678  -0.027  0.00  0.00    -0.328 OA
HETATM   12  H   UNK N   1      20.184  18.948  -0.522  0.00  0.00     0.220 HD
ENDBRANCH   9  11
BRANCH   9  13
HETATM   13  O   UNK N   1      20.386  22.237   1.059  0.00  0.00    -0.328 OA
HETATM   14  H   UNK N   1      20.061  22.992   1.574  0.00  0.00     0.220 HD
ENDBRANCH   9  13
ENDBRANCH   1   9
TORSDOF 7
ENDMDL
MODEL 3
REMARK VINA RESULT:      -4.0      1.666      2.617
REMARK  7 active torsions:
REMARK  status: ('A' for Active; 'I' for Inactive)
REMARK    1  A    between atoms: S_2  and  C_3 
REMARK    2  A    between atoms: C_3  and  C_4 
REMARK    3  A    between atoms: C_4  and  C_5 
REMARK    4  A    between atoms: C_5  and  N_6 
REMARK    5  A    between atoms: C_5  and  P_7 
REMARK    6  A    between atoms: P_7  and  O_8 
REMARK    7  A    between atoms: P_7  and  O_9 
ROOT
HETATM    1  C   UNK N   1      34.729  16.507   9.262  0.00  0.00     0.187 C 
ENDROOT
BRANCH   1   2
HETATM    2  C   UNK N   1      33.606  15.488   9.194  0.00  0.00     0.047 C 
BRANCH   2   3
HETATM    3  C   UNK N   1      33.969  14.402   8.196  0.00  0.00     0.076 C 
BRANCH   3   4
HETATM    4  S   UNK N   1      35.766  14.156   8.168  0.00  0.00    -0.173 SA
HETATM    5  C   UNK N   1      35.847  14.394   6.370  0.00  0.00     0.089 C 
ENDBRANCH   3   4
ENDBRANCH   2   3
ENDBRANCH   1   2
BRANCH   1   6
HETATM    6  N   UNK N   1      34.900  16.952  10.633  0.00  0.00    -0.417 N 
HETATM    7  H   UNK N   1      35.224  16.394  11.423  0.00  0.00     0.150 HD
HETATM    8  H   UNK N   1      34.674  17.927  10.826  0.00  0.00     0.150 HD
ENDBRANCH   1   6
BRANCH   1   9
HETATM    9  P   UNK N   1      34.385  17.986   8.179  0.00  0.00     0.258 P 
HETATM   10  O   UNK N   1      32.915  18.461   8.334  0.00  0.00    -0.652 OA
BRANCH   9  11
HETATM   11  O   UNK N   1      35.330  19.400   8.526  0.00  0.00    -0.328 OA
HETATM   12  H   UNK N   1      35.783  20.209   8.241  0.00  0.00     0.220 HD
ENDBRANCH   9  11
BRANCH   9  13
HETATM   13  O   UNK N   1      34.546  17.678   6.479  0.00  0.00    -0.328 OA
HETATM   14  H   UNK N   1      34.989  16.997   5.949  0.00  0.00     0.220 HD
ENDBRANCH   9  13
ENDBRANCH   1   9
TORSDOF 7
ENDMDL
MODEL 4
REMARK VINA RESULT:      -3.9      1.497      2.070
REMARK  7 active torsions:
REMARK  status: ('A' for Active; 'I' for Inactive)
REMARK    1  A    between atoms: S_2  and  C_3 
REMARK    2  A    between atoms: C_3  and  C_4 
REMARK    3  A    between atoms: C_4  and  C_5 
REMARK    4  A    between atoms: C_5  and  N_6 
REMARK    5  A    between atoms: C_5  and  P_7 
REMARK    6  A    between atoms: P_7  and  O_8 
REMARK    7  A    between atoms: P_7  and  O_9 
ROOT
HETATM    1  C   UNK N   1      34.306  16.431   9.195  0.00  0.00     0.187 C 
ENDROOT
BRANCH   1   2
HETATM    2  C   UNK N   1      35.084  15.306   8.538  0.00  0.00     0.047 C 
BRANCH   2   3
HETATM    3  C   UNK N   1      35.971  14.634   9.572  0.00  0.00     0.076 C 
BRANCH   3   4
HETATM    4  S   UNK N   1      36.178  15.716  11.013  0.00  0.00    -0.173 SA
HETATM    5  C   UNK N   1      35.480  14.475  12.140  0.00  0.00     0.089 C 
ENDBRANCH   3   4
ENDBRANCH   2   3
ENDBRANCH   1   2
BRANCH   1   6
HETATM    6  N   UNK N   1      32.954  15.986   9.482  0.00  0.00    -0.417 N 
HETATM    7  H   UNK N   1      32.277  16.441  10.094  0.00  0.00     0.150 HD
HETATM    8  H   UNK N   1      32.650  15.128   9.023  0.00  0.00     0.150 HD
ENDBRANCH   1   6
BRANCH   1   9
HETATM    9  P   UNK N   1      34.231  17.945   8.108  0.00  0.00     0.258 P 
HETATM   10  O   UNK N   1      32.819  18.591   8.148  0.00  0.00    -0.652 OA
BRANCH   9  11
HETATM   11  O   UNK N   1      35.304  19.235   8.552  0.00  0.00    -0.328 OA
HETATM   12  H   UNK N   1      35.630  20.143   8.443  0.00  0.00     0.220 HD
ENDBRANCH   9  11
BRANCH   9  13
HETATM   13  O   UNK N   1      34.496  17.627   6.423  0.00  0.00    -0.328 OA
HETATM   14  H   UNK N   1      33.976  17.209   5.719  0.00  0.00     0.220 HD
ENDBRANCH   9  13
ENDBRANCH   1   9
TORSDOF 7
ENDMDL
MODEL 5
REMARK VINA RESULT:      -3.8      1.379      1.480
REMARK  7 active torsions:
REMARK  status: ('A' for Active; 'I' for Inactive)
REMARK    1  A    between atoms: S_2  and  C_3 
REMARK    2  A    between atoms: C_3  and  C_4 
REMARK    3  A    between atoms: C_4  and  C_5 
REMARK    4  A    between atoms: C_5  and  N_6 
REMARK    5  A    between atoms: C_5  and  P_7 
REMARK    6  A    between atoms: P_7  and  O_8 
REMARK    7  A    between atoms: P_7  and  O_9 
ROOT
HETATM    1  C   UNK N   1      34.565  16.386   9.137  0.00  0.00     0.187 C 
ENDROOT
BRANCH   1   2
HETATM    2  C   UNK N   1      35.346  16.721  10.395  0.00  0.00     0.047 C 
BRANCH   2   3
HETATM    3  C   UNK N   1      36.149  15.507  10.829  0.00  0.00     0.076 C 
BRANCH   3   4
HETATM    4  S   UNK N   1      35.103  14.380  11.793  0.00  0.00    -0.173 SA
HETATM    5  C   UNK N   1      36.188  14.493  13.244  0.00  0.00     0.089 C 
ENDBRANCH   3   4
ENDBRANCH   2   3
ENDBRANCH   1   2
BRANCH   1   6
HETATM    6  N   UNK N   1      35.309  15.425   8.343  0.00  0.00    -0.417 N 
HETATM    7  H   UNK N   1      34.934  14.794   7.635  0.00  0.00     0.150 HD
HETATM    8  H   UNK N   1      36.313  15.375   8.511  0.00  0.00     0.150 HD
ENDBRANCH   1   6
BRANCH   1   9
HETATM    9  P   UNK N   1      34.236  17.904   8.104  0.00  0.00     0.258 P 
HETATM   10  O   UNK N   1      35.187  19.066   8.501  0.00  0.00    -0.652 OA
BRANCH   9  11
HETATM   11  O   UNK N   1      34.484  17.713   6.397  0.00  0.00    -0.328 OA
HETATM   12  H   UNK N   1      35.039  17.458   5.644  0.00  0.00     0.220 HD
ENDBRANCH   9  11
BRANCH   9  13
HETATM   13  O   UNK N   1      32.649  18.576   8.311  0.00  0.00    -0.328 OA
HETATM   14  H   UNK N   1      32.001  18.583   9.033  0.00  0.00     0.220 HD
ENDBRANCH   9  13
ENDBRANCH   1   9
TORSDOF 7
ENDMDL
MODEL 6
REMARK VINA RESULT:      -3.8      2.478      3.539
REMARK  7 active torsions:
REMARK  status: ('A' for Active; 'I' for Inactive)
REMARK    1  A    between atoms: S_2  and  C_3 
REMARK    2  A    between atoms: C_3  and  C_4 
REMARK    3  A    between atoms: C_4  and  C_5 
REMARK    4  A    between atoms: C_5  and  N_6 
REMARK    5  A    between atoms: C_5  and  P_7 
REMARK    6  A    between atoms: P_7  and  O_8 
REMARK    7  A    between atoms: P_7  and  O_9 
ROOT
HETATM    1  C   UNK N   1      34.576  16.270   8.863  0.00  0.00     0.187 C 
ENDROOT
BRANCH   1   2
HETATM    2  C   UNK N   1      34.668  15.125   7.870  0.00  0.00     0.047 C 
BRANCH   2   3
HETATM    3  C   UNK N   1      33.339  14.390   7.822  0.00  0.00     0.076 C 
BRANCH   3   4
HETATM    4  S   UNK N   1      32.629  14.495   6.157  0.00  0.00    -0.173 SA
HETATM    5  C   UNK N   1      31.285  15.581   6.716  0.00  0.00     0.089 C 
ENDBRANCH   3   4
ENDBRANCH   2   3
ENDBRANCH   1   2
BRANCH   1   6
HETATM    6  N   UNK N   1      33.503  16.012   9.806  0.00  0.00    -0.417 N 
HETATM    7  H   UNK N   1      32.555  16.386   9.772  0.00  0.00     0.150 HD
HETATM    8  H   UNK N   1      33.720  15.392  10.585  0.00  0.00     0.150 HD
ENDBRANCH   1   6
BRANCH   1   9
HETATM    9  P   UNK N   1      34.262  17.898   8.011  0.00  0.00     0.258 P 
HETATM   10  O   UNK N   1      32.818  18.401   8.284  0.00  0.00    -0.652 OA
BRANCH   9  11
HETATM   11  O   UNK N   1      35.274  19.213   8.519  0.00  0.00    -0.328 OA
HETATM   12  H   UNK N   1      35.911  19.919   8.323  0.00  0.00     0.220 HD
ENDBRANCH   9  11
BRANCH   9  13
HETATM   13  O   UNK N   1      34.358  17.828   6.280  0.00  0.00    -0.328 OA
HETATM   14  H   UNK N   1      33.862  17.363   5.588  0.00  0.00     0.220 HD
ENDBRANCH   9  13
ENDBRANCH   1   9
TORSDOF 7
ENDMDL
MODEL 7
REMARK VINA RESULT:      -3.7      5.383      6.077
REMARK  7 active torsions:
REMARK  status: ('A' for Active; 'I' for Inactive)
REMARK    1  A    between atoms: S_2  and  C_3 
REMARK    2  A    between atoms: C_3  and  C_4 
REMARK    3  A    between atoms: C_4  and  C_5 
REMARK    4  A    between atoms: C_5  and  N_6 
REMARK    5  A    between atoms: C_5  and  P_7 
REMARK    6  A    between atoms: P_7  and  O_8 
REMARK    7  A    between atoms: P_7  and  O_9 
ROOT
HETATM    1  C   UNK N   1      29.571  17.187   7.653  0.00  0.00     0.187 C 
ENDROOT
BRANCH   1   2
HETATM    2  C   UNK N   1      31.070  17.404   7.752  0.00  0.00     0.047 C 
BRANCH   2   3
HETATM    3  C   UNK N   1      31.744  16.840   6.512  0.00  0.00     0.076 C 
BRANCH   3   4
HETATM    4  S   UNK N   1      33.458  17.425   6.415  0.00  0.00    -0.173 SA
HETATM    5  C   UNK N   1      33.365  18.204   8.052  0.00  0.00     0.089 C 
ENDBRANCH   3   4
ENDBRANCH   2   3
ENDBRANCH   1   2
BRANCH   1   6
HETATM    6  N   UNK N   1      29.076  17.759   6.415  0.00  0.00    -0.417 N 
HETATM    7  H   UNK N   1      29.402  18.612   5.960  0.00  0.00     0.150 HD
HETATM    8  H   UNK N   1      28.322  17.254   5.949  0.00  0.00     0.150 HD
ENDBRANCH   1   6
BRANCH   1   9
HETATM    9  P   UNK N   1      28.666  17.963   9.087  0.00  0.00     0.258 P 
HETATM   10  O   UNK N   1      27.814  16.908   9.846  0.00  0.00    -0.652 OA
BRANCH   9  11
HETATM   11  O   UNK N   1      29.674  18.661  10.316  0.00  0.00    -0.328 OA
HETATM   12  H   UNK N   1      30.409  18.601  10.945  0.00  0.00     0.220 HD
ENDBRANCH   9  11
BRANCH   9  13
HETATM   13  O   UNK N   1      27.514  19.177   8.631  0.00  0.00    -0.328 OA
HETATM   14  H   UNK N   1      27.571  20.037   8.185  0.00  0.00     0.220 HD
ENDBRANCH   9  13
ENDBRANCH   1   9
TORSDOF 7
ENDMDL
MODEL 8
REMARK VINA RESULT:      -3.7      4.421      4.892
REMARK  7 active torsions:
REMARK  status: ('A' for Active; 'I' for Inactive)
REMARK    1  A    between atoms: S_2  and  C_3 
REMARK    2  A    between atoms: C_3  and  C_4 
REMARK    3  A    between atoms: C_4  and  C_5 
REMARK    4  A    between atoms: C_5  and  N_6 
REMARK    5  A    between atoms: C_5  and  P_7 
REMARK    6  A    between atoms: P_7  and  O_8 
REMARK    7  A    between atoms: P_7  and  O_9 
ROOT
HETATM    1  C   UNK N   1      32.480  17.839   7.506  0.00  0.00     0.187 C 
ENDROOT
BRANCH   1   2
HETATM    2  C   UNK N   1      31.369  17.502   8.484  0.00  0.00     0.047 C 
BRANCH   2   3
HETATM    3  C   UNK N   1      30.108  17.150   7.714  0.00  0.00     0.076 C 
BRANCH   3   4
HETATM    4  S   UNK N   1      28.646  17.757   8.601  0.00  0.00    -0.173 SA
HETATM    5  C   UNK N   1      29.660  18.654   9.811  0.00  0.00     0.089 C 
ENDBRANCH   3   4
ENDBRANCH   2   3
ENDBRANCH   1   2
BRANCH   1   6
HETATM    6  N   UNK N   1      32.413  16.944   6.366  0.00  0.00    -0.417 N 
HETATM    7  H   UNK N   1      32.784  15.995   6.309  0.00  0.00     0.150 HD
HETATM    8  H   UNK N   1      31.946  17.301   5.533  0.00  0.00     0.150 HD
ENDBRANCH   1   6
BRANCH   1   9
HETATM    9  P   UNK N   1      34.163  17.696   8.296  0.00  0.00     0.258 P 
HETATM   10  O   UNK N   1      35.065  16.704   7.512  0.00  0.00    -0.652 OA
BRANCH   9  11
HETATM   11  O   UNK N   1      35.089  19.163   8.350  0.00  0.00    -0.328 OA
HETATM   12  H   UNK N   1      35.197  20.106   8.148  0.00  0.00     0.220 HD
ENDBRANCH   9  11
BRANCH   9  13
HETATM   13  O   UNK N   1      34.142  17.054   9.908  0.00  0.00    -0.328 OA
HETATM   14  H   UNK N   1      34.399  16.209  10.308  0.00  0.00     0.220 HD
ENDBRANCH   9  13
ENDBRANCH   1   9
TORSDOF 7
ENDMDL
MODEL 9
REMARK VINA RESULT:      -3.6      4.471      5.177
REMARK  7 active torsions:
REMARK  status: ('A' for Active; 'I' for Inactive)
REMARK    1  A    between atoms: S_2  and  C_3 
REMARK    2  A    between atoms: C_3  and  C_4 
REMARK    3  A    between atoms: C_4  and  C_5 
REMARK    4  A    between atoms: C_5  and  N_6 
REMARK    5  A    between atoms: C_5  and  P_7 
REMARK    6  A    between atoms: P_7  and  O_8 
REMARK    7  A    between atoms: P_7  and  O_9 
ROOT
HETATM    1  C   UNK N   1      30.213  17.178   8.167  0.00  0.00     0.187 C 
ENDROOT
BRANCH   1   2
HETATM    2  C   UNK N   1      31.584  17.830   8.176  0.00  0.00     0.047 C 
BRANCH   2   3
HETATM    3  C   UNK N   1      32.635  16.790   8.525  0.00  0.00     0.076 C 
BRANCH   3   4
HETATM    4  S   UNK N   1      34.278  17.558   8.577  0.00  0.00    -0.173 SA
HETATM    5  C   UNK N   1      34.893  16.339   9.774  0.00  0.00     0.089 C 
ENDBRANCH   3   4
ENDBRANCH   2   3
ENDBRANCH   1   2
BRANCH   1   6
HETATM    6  N   UNK N   1      29.480  17.601   6.988  0.00  0.00    -0.417 N 
HETATM    7  H   UNK N   1      29.576  18.487   6.492  0.00  0.00     0.150 HD
HETATM    8  H   UNK N   1      28.797  16.942   6.617  0.00  0.00     0.150 HD
ENDBRANCH   1   6
BRANCH   1   9
HETATM    9  P   UNK N   1      29.229  17.621   9.688  0.00  0.00     0.258 P 
HETATM   10  O   UNK N   1      29.708  18.970  10.290  0.00  0.00    -0.652 OA
BRANCH   9  11
HETATM   11  O   UNK N   1      27.527  17.846   9.435  0.00  0.00    -0.328 OA
HETATM   12  H   UNK N   1      26.616  17.513   9.450  0.00  0.00     0.220 HD
ENDBRANCH   9  11
BRANCH   9  13
HETATM   13  O   UNK N   1      29.399  16.497  10.999  0.00  0.00    -0.328 OA
HETATM   14  H   UNK N   1      29.639  15.559  11.067  0.00  0.00     0.220 HD
ENDBRANCH   9  13
ENDBRANCH   1   9
TORSDOF 7
ENDMDL
