REMARK  28 active torsions:
REMARK  status: ('A' for Active; 'I' for Inactive)
REMARK    1  A    between atoms: C_1  and  O_7 
REMARK    2  A    between atoms: C_2  and  O_8 
REMARK    3  A    between atoms: C_4  and  O_9 
REMARK    4  A    between atoms: C_5  and  C_11 
REMARK    5  A    between atoms: C_6  and  O_10 
REMARK    6  A    between atoms: C_18  and  O_7 
REMARK    7  A    between atoms: O_12  and  C_11 
REMARK    8  A    between atoms: C_13  and  O_19 
REMARK    9  A    between atoms: C_14  and  O_20 
REMARK   10  A    between atoms: C_16  and  O_21 
REMARK   11  A    between atoms: C_17  and  C_22 
REMARK   12  A    between atoms: C_29  and  O_19 
REMARK   13  A    between atoms: O_23  and  C_22 
REMARK   14  A    between atoms: C_24  and  O_30 
REMARK   15  A    between atoms: C_25  and  O_31 
REMARK   16  A    between atoms: C_27  and  O_32 
REMARK   17  A    between atoms: C_28  and  C_33 
REMARK   18  A    between atoms: C_37  and  O_30 
REMARK   19  A    between atoms: O_34  and  C_33 
REMARK   20  A    between atoms: C_36  and  C_35 
REMARK   21  A    between atoms: C_40  and  C_35 
REMARK   22  A    between atoms: C_35  and  O_45 
REMARK   23  A    between atoms: C_37  and  C_36 
REMARK   24  A    between atoms: C_36  and  O_41 
REMARK   25  A    between atoms: C_38  and  C_37 
REMARK   26  A    between atoms: C_39  and  C_38 
REMARK   27  A    between atoms: C_38  and  O_42 
REMARK   28  A    between atoms: O_43  and  C_39 
ROOT
HETATM    1  O   UNK N   1       0.342  -0.085   0.553  0.00  0.00    -0.348 OA
ENDROOT
BRANCH   1   2
HETATM    2  C   UNK N   1      -0.142  -0.698  -0.611  0.00  0.00     0.292 C 
HETATM    3  C   UNK N   1      -0.013  -2.226  -0.617  0.00  0.00     0.204 C 
HETATM    4  C   UNK N   1      -1.315  -2.898  -0.999  0.00  0.00     0.183 C 
HETATM    5  C   UNK N   1      -2.396  -2.246  -0.158  0.00  0.00     0.187 C 
HETATM    6  C   UNK N   1      -2.523  -0.774  -0.577  0.00  0.00     0.180 C 
HETATM    7  O   UNK N   1      -1.355  -0.141  -1.088  0.00  0.00    -0.348 OA
BRANCH   3   8
HETATM    8  O   UNK N   1       1.002  -2.615  -1.491  0.00  0.00    -0.388 OA
HETATM    9  H   UNK N   1       1.122  -3.361  -2.099  0.00  0.00     0.210 HD
ENDBRANCH   3   8
BRANCH   4  10
HETATM   10  O   UNK N   1      -1.224  -4.262  -0.717  0.00  0.00    -0.390 OA
HETATM   11  H   UNK N   1      -2.013  -4.791  -0.521  0.00  0.00     0.210 HD
ENDBRANCH   4  10
BRANCH   5  12
HETATM   12  O   UNK N   1      -3.626  -2.887  -0.341  0.00  0.00    -0.348 OA
BRANCH  12  13
HETATM   13  C   UNK N   1      -3.840  -3.622   0.833  0.00  0.00     0.292 C 
HETATM   14  C   UNK N   1      -3.998  -5.120   0.523  0.00  0.00     0.204 C 
HETATM   15  C   UNK N   1      -5.468  -5.522   0.399  0.00  0.00     0.183 C 
HETATM   16  C   UNK N   1      -6.263  -4.359  -0.165  0.00  0.00     0.180 C 
HETATM   17  C   UNK N   1      -6.156  -3.175   0.821  0.00  0.00     0.179 C 
HETATM   18  O   UNK N   1      -4.939  -3.109   1.565  0.00  0.00    -0.348 OA
BRANCH  14  19
HETATM   19  O   UNK N   1      -3.394  -5.889   1.517  0.00  0.00    -0.388 OA
HETATM   20  H   UNK N   1      -3.647  -6.520   2.209  0.00  0.00     0.210 HD
ENDBRANCH  14  19
BRANCH  15  21
HETATM   21  O   UNK N   1      -5.580  -6.651  -0.414  0.00  0.00    -0.390 OA
HETATM   22  H   UNK N   1      -6.299  -6.975  -0.979  0.00  0.00     0.210 HD
ENDBRANCH  15  21
BRANCH  16  23
HETATM   23  O   UNK N   1      -7.602  -4.715  -0.334  0.00  0.00    -0.390 OA
HETATM   24  H   UNK N   1      -8.282  -4.033  -0.451  0.00  0.00     0.210 HD
ENDBRANCH  16  23
BRANCH  17  25
HETATM   25  C   UNK N   1      -6.456  -1.838   0.155  0.00  0.00     0.198 C 
BRANCH  25  26
HETATM   26  O   UNK N   1      -7.758  -1.820  -0.345  0.00  0.00    -0.398 OA
HETATM   27  H   UNK N   1      -8.200  -1.030  -0.693  0.00  0.00     0.209 HD
ENDBRANCH  25  26
ENDBRANCH  17  25
ENDBRANCH  12  13
ENDBRANCH   5  12
BRANCH   6  28
HETATM   28  C   UNK N   1      -3.222   0.074   0.470  0.00  0.00     0.198 C 
BRANCH  28  29
HETATM   29  O   UNK N   1      -3.621   1.284  -0.099  0.00  0.00    -0.398 OA
HETATM   30  H   UNK N   1      -3.031   1.945  -0.494  0.00  0.00     0.209 HD
ENDBRANCH  28  29
ENDBRANCH   6  28
ENDBRANCH   1   2
BRANCH   1  31
HETATM   31  C   UNK N   1       1.624   0.323   0.167  0.00  0.00     0.187 C 
HETATM   32  C   UNK N   1       2.714  -0.276   1.039  0.00  0.00     0.183 C 
HETATM   33  C   UNK N   1       4.065   0.116   0.444  0.00  0.00     0.204 C 
HETATM   34  C   UNK N   1       4.148   1.636   0.149  0.00  0.00     0.292 C 
HETATM   35  O   UNK N   1       3.007   2.082  -0.561  0.00  0.00    -0.348 OA
HETATM   36  C   UNK N   1       1.844   1.834   0.190  0.00  0.00     0.180 C 
BRANCH  32  37
HETATM   37  O   UNK N   1       2.605  -1.667   1.083  0.00  0.00    -0.390 OA
HETATM   38  H   UNK N   1       1.730  -2.085   1.113  0.00  0.00     0.210 HD
ENDBRANCH  32  37
BRANCH  33  39
HETATM   39  O   UNK N   1       5.075  -0.259   1.331  0.00  0.00    -0.388 OA
HETATM   40  H   UNK N   1       5.200  -0.997   1.947  0.00  0.00     0.210 HD
ENDBRANCH  33  39
BRANCH  34  41
HETATM   41  O   UNK N   1       5.261   1.883  -0.679  0.00  0.00    -0.348 OA
BRANCH  41  42
HETATM   42  C   UNK N   1       6.320   2.343   0.117  0.00  0.00     0.187 C 
BRANCH  42  43
HETATM   43  C   UNK N   1       6.565   3.857  -0.117  0.00  0.00     0.185 C 
BRANCH  43  44
HETATM   44  C   UNK N   1       5.326   4.749   0.083  0.00  0.00     0.210 C 
BRANCH  44  45
HETATM   45  C   UNK N   1       5.654   6.203  -0.072  0.00  0.00     0.265 C 
HETATM   46  O   UNK N   1       6.421   6.760   0.704  0.00  0.00    -0.304 OA
ENDBRANCH  44  45
BRANCH  44  47
HETATM   47  O   UNK N   1       4.358   4.443  -0.873  0.00  0.00    -0.386 OA
HETATM   48  H   UNK N   1       3.837   4.920  -1.538  0.00  0.00     0.210 HD
ENDBRANCH  44  47
ENDBRANCH  43  44
BRANCH  43  49
HETATM   49  O   UNK N   1       7.590   4.293   0.729  0.00  0.00    -0.390 OA
HETATM   50  H   UNK N   1       8.208   3.829   1.315  0.00  0.00     0.210 HD
ENDBRANCH  43  49
ENDBRANCH  42  43
BRANCH  42  51
HETATM   51  C   UNK N   1       7.603   1.562  -0.259  0.00  0.00     0.173 C 
BRANCH  51  52
HETATM   52  C   UNK N   1       7.437   0.049  -0.270  0.00  0.00     0.198 C 
BRANCH  52  53
HETATM   53  O   UNK N   1       6.694  -0.356  -1.379  0.00  0.00    -0.398 OA
HETATM   54  H   UNK N   1       6.192  -0.050  -2.150  0.00  0.00     0.209 HD
ENDBRANCH  52  53
ENDBRANCH  51  52
BRANCH  51  55
HETATM   55  O   UNK N   1       8.644   1.878   0.615  0.00  0.00    -0.391 OA
HETATM   56  H   UNK N   1       9.196   1.361   1.223  0.00  0.00     0.210 HD
ENDBRANCH  51  55
ENDBRANCH  42  51
ENDBRANCH  41  42
ENDBRANCH  34  41
BRANCH  36  57
HETATM   57  C   UNK N   1       0.691   2.606  -0.433  0.00  0.00     0.198 C 
BRANCH  57  58
HETATM   58  O   UNK N   1      -0.405   2.614   0.431  0.00  0.00    -0.398 OA
HETATM   59  H   UNK N   1      -0.781   3.277   1.032  0.00  0.00     0.209 HD
ENDBRANCH  57  58
ENDBRANCH  36  57
ENDBRANCH   1  31
TORSDOF 28
