REMARK  9 active torsions:
REMARK  status: ('A' for Active; 'I' for Inactive)
REMARK    1  A    between atoms: C_7  and  C_5 
REMARK    2  A    between atoms: O_20  and  C_5 
REMARK    3  A    between atoms: C_11  and  C_6 
REMARK    4  A    between atoms: C_8  and  O_13 
REMARK    5  A    between atoms: C_9  and  O_14 
REMARK    6  A    between atoms: C_10  and  N_12 
REMARK    7  A    between atoms: O_16  and  C_11 
REMARK    8  A    between atoms: P_22  and  O_17 
REMARK    9  A    between atoms: P_22  and  O_20 
ROOT
HETATM    1  C   UNK N   1       1.601   3.657  -1.187  0.00  0.00     0.180 C 
HETATM    2  C   UNK N   1       0.836   4.719  -0.391  0.00  0.00     0.182 C 
HETATM    3  C   UNK N   1      -0.416   3.926  -0.134  0.00  0.00     0.198 C 
HETATM    4  C   UNK N   1       0.219   2.588   0.265  0.00  0.00     0.259 C 
HETATM    5  O   UNK N   1       1.319   2.399  -0.610  0.00  0.00    -0.353 OA
ENDROOT
BRANCH   4   6
HETATM    6  N   UNK N   1      -0.672   1.423   0.191  0.00  0.00    -0.336 N 
HETATM    7  C   UNK N   1      -2.016   1.540  -0.040  0.00  0.00     0.093 A 
HETATM    8  C   UNK N   1      -2.819   0.400  -0.134  0.00  0.00     0.018 A 
HETATM    9  C   UNK N   1      -2.234  -0.862  -0.023  0.00  0.00     0.021 A 
HETATM   10  C   UNK N   1      -0.858  -0.971   0.202  0.00  0.00     0.053 A 
HETATM   11  C   UNK N   1      -0.102   0.193   0.321  0.00  0.00     0.111 A 
BRANCH  10  12
HETATM   12  C   UNK N   1      -0.191  -2.285   0.270  0.00  0.00     0.177 C 
HETATM   13  O   UNK N   1      -0.834  -3.313   0.140  0.00  0.00    -0.646 OA
BRANCH  12  14
HETATM   14  O   UNK N   1       1.145  -2.354   0.445  0.00  0.00    -0.773 OA
HETATM   15  H   UNK N   1       1.567  -3.182   0.567  0.00  0.00     0.167 HD
ENDBRANCH  12  14
ENDBRANCH  10  12
ENDBRANCH   4   6
BRANCH   3  16
HETATM   16  O   UNK N   1      -1.226   4.477   0.862  0.00  0.00    -0.388 OA
HETATM   17  H   UNK N   1      -1.176   5.156   1.554  0.00  0.00     0.210 HD
ENDBRANCH   3  16
BRANCH   2  18
HETATM   18  O   UNK N   1       1.480   5.003   0.822  0.00  0.00    -0.390 OA
HETATM   19  H   UNK N   1       1.872   4.715   1.661  0.00  0.00     0.210 HD
ENDBRANCH   2  18
BRANCH   1  20
HETATM   20  C   UNK N   1       3.108   3.888  -1.260  0.00  0.00     0.216 C 
BRANCH  20  21
HETATM   21  O   UNK N   1       3.702   3.636  -0.017  0.00  0.00    -0.287 OA
BRANCH  21  22
HETATM   22  P   UNK N   1       5.397   3.922  -0.255  0.00  0.00     0.406 P 
HETATM   23  O   UNK N   1       5.166   2.350   0.447  0.00  0.00    -0.624 OA
HETATM   24  O   UNK N   1       5.003   5.025   0.764  0.00  0.00    -0.624 OA
BRANCH  22  25
HETATM   25  O   UNK N   1       6.513   3.670   1.050  0.00  0.00    -0.300 OA
HETATM   26  H   UNK N   1       6.702   3.059   1.780  0.00  0.00     0.223 HD
ENDBRANCH  22  25
ENDBRANCH  21  22
ENDBRANCH  20  21
ENDBRANCH   1  20
TORSDOF 9
