MODEL 1
REMARK VINA RESULT:      -6.1      0.000      0.000
REMARK WARNING: 32 MAX_TORS EXCEEDED!!!
REMARK  42 active torsions:
REMARK  status: ('A' for Active; 'I' for Inactive)
REMARK    1  A    between atoms: C_5  and  C_3 
REMARK    2  A    between atoms: C_6  and  C_4 
REMARK    3  A    between atoms: C_7  and  C_5 
REMARK    4  A    between atoms: C_8  and  C_6 
REMARK    5  A    between atoms: C_9  and  C_7 
REMARK    6  A    between atoms: C_10  and  C_8 
REMARK    7  A    between atoms: C_11  and  C_9 
REMARK    8  A    between atoms: C_12  and  C_10 
REMARK    9  A    between atoms: C_13  and  C_11 
REMARK   10  A    between atoms: C_14  and  C_12 
REMARK   11  A    between atoms: C_15  and  C_13 
REMARK   12  A    between atoms: C_16  and  C_14 
REMARK   13  A    between atoms: C_17  and  C_15 
REMARK   14  A    between atoms: C_19  and  C_16 
REMARK   15  A    between atoms: C_20  and  C_18 
REMARK   16  A    between atoms: C_21  and  C_19 
REMARK   17  A    between atoms: C_22  and  C_20 
REMARK   18  A    between atoms: C_23  and  C_21 
REMARK   19  A    between atoms: C_24  and  C_22 
REMARK   20  A    between atoms: C_25  and  C_23 
REMARK   21  A    between atoms: C_26  and  C_24 
REMARK   22  A    between atoms: C_27  and  C_25 
REMARK   23  A    between atoms: C_28  and  C_26 
REMARK   24  A    between atoms: C_29  and  C_27 
REMARK   25  A    between atoms: C_30  and  C_28 
REMARK   26  A    between atoms: C_31  and  C_29 
REMARK   27  A    between atoms: C_32  and  C_30 
REMARK   28  A    between atoms: C_36  and  C_31 
REMARK   29  A    between atoms: C_37  and  C_32 
REMARK   30  A    between atoms: C_35  and  C_33 
REMARK   31  A    between atoms: O_53  and  C_33 
REMARK   32  A    between atoms: C_35  and  C_34 
REMARK   33  A    between atoms: O_54  and  C_34 
REMARK   34  A    between atoms: C_35  and  O_55 
REMARK   35  A    between atoms: O_53  and  C_36 
REMARK   36  A    between atoms: O_55  and  C_37 
REMARK   37  A    between atoms: C_38  and  O_46 
REMARK   38  A    between atoms: C_41  and  O_49 
REMARK   39  A    between atoms: C_42  and  O_50 
REMARK   40  A    between atoms: C_43  and  O_56 
REMARK   41  A    between atoms: P_57  and  O_54 
REMARK   42  A    between atoms: P_57  and  O_56 
ROOT
HETATM    1  C   UNK N   1      22.884  12.057   7.256  0.00  0.00     0.180 C 
HETATM    2  C   UNK N   1      23.425  13.006   6.170  0.00  0.00     0.180 C 
HETATM    3  C   UNK N   1      21.451  12.434   7.674  0.00  0.00     0.180 C 
HETATM    4  C   UNK N   1      23.369  14.463   6.666  0.00  0.00     0.181 C 
HETATM    5  C   UNK N   1      21.414  13.895   8.155  0.00  0.00     0.181 C 
HETATM    6  C   UNK N   1      21.931  14.868   7.067  0.00  0.00     0.197 C 
HETATM    7  O   UNK N   1      22.685  12.871   4.989  0.00  0.00    -0.390 OA
HETATM    8  O   UNK N   1      20.565  12.256   6.605  0.00  0.00    -0.390 OA
HETATM    9  H   UNK N   1      22.100  12.711   4.232  0.00  0.00     0.210 HD
HETATM   10  H   UNK N   1      19.904  12.192   5.897  0.00  0.00     0.210 HD
ENDROOT
BRANCH   1  11
HETATM   11  O   UNK N   1      22.920  10.734   6.804  0.00  0.00    -0.390 OA
HETATM   12  H   UNK N   1      23.490  10.060   7.204  0.00  0.00     0.210 HD
ENDBRANCH   1  11
BRANCH   4  13
HETATM   13  O   UNK N   1      23.858  15.315   5.673  0.00  0.00    -0.390 OA
HETATM   14  H   UNK N   1      24.733  15.734   5.714  0.00  0.00     0.210 HD
ENDBRANCH   4  13
BRANCH   6  15
HETATM   15  O   UNK N   1      21.952  16.175   7.607  0.00  0.00    -0.279 OA
BRANCH  15  16
HETATM   16  P   UNK N   1      21.041  17.300   6.608  0.00  0.00     0.408 P 
HETATM   17  O   UNK N   1      20.738  18.829   7.372  0.00  0.00    -0.624 OA
HETATM   18  O   UNK N   1      19.642  16.644   6.457  0.00  0.00    -0.624 OA
BRANCH  16  19
HETATM   19  O   UNK N   1      21.628  17.472   4.971  0.00  0.00    -0.287 OA
BRANCH  19  20
HETATM   20  C   UNK N   1      20.551  17.882   4.177  0.00  0.00     0.216 C 
BRANCH  20  21
HETATM   21  C   UNK N   1      20.940  19.067   3.295  0.00  0.00     0.180 C 
BRANCH  21  22
HETATM   22  C   UNK N   1      20.413  18.807   1.881  0.00  0.00     0.213 C 
BRANCH  22  23
HETATM   23  O   UNK N   1      19.749  17.609   1.736  0.00  0.00    -0.319 OA
BRANCH  23  24
HETATM   24  C   UNK N   1      20.037  16.754   0.728  0.00  0.00     0.258 C 
HETATM   25  O   UNK N   1      20.333  17.197  -0.368  0.00  0.00    -0.265 OA
BRANCH  24  26
HETATM   26  C   UNK N   1      19.946  15.271   0.910  0.00  0.00     0.111 C 
BRANCH  26  27
HETATM   27  C   UNK N   1      18.660  14.701   0.304  0.00  0.00     0.010 C 
BRANCH  27  28
HETATM   28  C   UNK N   1      18.725  13.197   0.009  0.00  0.00     0.000 C 
BRANCH  28  29
HETATM   29  C   UNK N   1      19.261  12.351   1.165  0.00  0.00     0.000 C 
BRANCH  29  30
HETATM   30  C   UNK N   1      20.513  11.581   0.790  0.00  0.00     0.000 C 
BRANCH  30  31
HETATM   31  C   UNK N   1      21.764  12.333   1.219  0.00  0.00     0.000 C 
BRANCH  31  32
HETATM   32  C   UNK N   1      22.914  12.036   0.265  0.00  0.00     0.000 C 
BRANCH  32  33
HETATM   33  C   UNK N   1      24.230  12.647   0.735  0.00  0.00     0.000 C 
BRANCH  33  34
HETATM   34  C   UNK N   1      24.137  14.158   0.841  0.00  0.00     0.000 C 
BRANCH  34  35
HETATM   35  C   UNK N   1      24.601  14.595   2.215  0.00  0.00     0.000 C 
BRANCH  35  36
HETATM   36  C   UNK N   1      25.723  15.604   2.079  0.00  0.00     0.000 C 
BRANCH  36  37
HETATM   37  C   UNK N   1      27.060  14.892   1.964  0.00  0.00     0.000 C 
BRANCH  37  38
HETATM   38  C   UNK N   1      28.104  15.559   2.846  0.00  0.00    -0.000 C 
BRANCH  38  39
HETATM   39  C   UNK N   1      29.021  14.525   3.472  0.00  0.00    -0.005 C 
HETATM   40  C   UNK N   1      28.349  13.927   4.690  0.00  0.00     0.005 C 
ENDBRANCH  38  39
ENDBRANCH  37  38
ENDBRANCH  36  37
ENDBRANCH  35  36
ENDBRANCH  34  35
ENDBRANCH  33  34
ENDBRANCH  32  33
ENDBRANCH  31  32
ENDBRANCH  30  31
ENDBRANCH  29  30
ENDBRANCH  28  29
ENDBRANCH  27  28
ENDBRANCH  26  27
ENDBRANCH  24  26
ENDBRANCH  23  24
ENDBRANCH  22  23
ENDBRANCH  21  22
BRANCH  21  41
HETATM   41  O   UNK N   1      22.318  19.175   3.301  0.00  0.00    -0.312 OA
BRANCH  41  42
HETATM   42  C   UNK N   1      23.009  20.325   3.086  0.00  0.00     0.259 C 
HETATM   43  O   UNK N   1      22.427  21.374   2.846  0.00  0.00    -0.265 OA
BRANCH  42  44
HETATM   44  C   UNK N   1      24.497  20.313   3.162  0.00  0.00     0.111 C 
BRANCH  44  45
HETATM   45  C   UNK N   1      24.974  18.878   3.343  0.00  0.00     0.010 C 
BRANCH  45  46
HETATM   46  C   UNK N   1      26.202  18.781   4.244  0.00  0.00     0.000 C 
BRANCH  46  47
HETATM   47  C   UNK N   1      27.371  19.610   3.735  0.00  0.00     0.000 C 
BRANCH  47  48
HETATM   48  C   UNK N   1      28.027  20.317   4.911  0.00  0.00     0.000 C 
BRANCH  48  49
HETATM   49  C   UNK N   1      26.998  20.976   5.812  0.00  0.00     0.004 C 
BRANCH  49  50
HETATM   50  C   UNK N   1      27.179  20.521   7.257  0.00  0.00     0.027 C 
BRANCH  50  51
HETATM   51  C   UNK N   1      27.958  19.239   7.437  0.00  0.00    -0.031 C 
HETATM   52  C   UNK N   1      28.170  18.658   8.629  0.00  0.00    -0.031 C 
BRANCH  52  53
HETATM   53  C   UNK N   1      29.003  17.420   8.724  0.00  0.00     0.027 C 
BRANCH  53  54
HETATM   54  C   UNK N   1      30.266  17.585   7.888  0.00  0.00     0.004 C 
BRANCH  54  55
HETATM   55  C   UNK N   1      30.267  16.623   6.710  0.00  0.00     0.000 C 
BRANCH  55  56
HETATM   56  C   UNK N   1      30.361  17.405   5.412  0.00  0.00     0.000 C 
BRANCH  56  57
HETATM   57  C   UNK N   1      31.497  16.878   4.556  0.00  0.00     0.000 C 
BRANCH  57  58
HETATM   58  C   UNK N   1      32.637  16.379   5.427  0.00  0.00    -0.000 C 
BRANCH  58  59
HETATM   59  C   UNK N   1      33.609  17.508   5.713  0.00  0.00    -0.005 C 
HETATM   60  C   UNK N   1      34.114  17.430   7.142  0.00  0.00     0.005 C 
ENDBRANCH  58  59
ENDBRANCH  57  58
ENDBRANCH  56  57
ENDBRANCH  55  56
ENDBRANCH  54  55
ENDBRANCH  53  54
ENDBRANCH  52  53
ENDBRANCH  50  51
ENDBRANCH  49  50
ENDBRANCH  48  49
ENDBRANCH  47  48
ENDBRANCH  46  47
ENDBRANCH  45  46
ENDBRANCH  44  45
ENDBRANCH  42  44
ENDBRANCH  41  42
ENDBRANCH  21  41
ENDBRANCH  20  21
ENDBRANCH  19  20
ENDBRANCH  16  19
ENDBRANCH  15  16
ENDBRANCH   6  15
BRANCH   5  61
HETATM   61  O   UNK N   1      20.109  14.220   8.524  0.00  0.00    -0.390 OA
HETATM   62  H   UNK N   1      19.362  13.601   8.500  0.00  0.00     0.210 HD
ENDBRANCH   5  61
TORSDOF 42
ENDMDL
MODEL 2
REMARK VINA RESULT:      -5.9      5.173      9.349
REMARK WARNING: 32 MAX_TORS EXCEEDED!!!
REMARK  42 active torsions:
REMARK  status: ('A' for Active; 'I' for Inactive)
REMARK    1  A    between atoms: C_5  and  C_3 
REMARK    2  A    between atoms: C_6  and  C_4 
REMARK    3  A    between atoms: C_7  and  C_5 
REMARK    4  A    between atoms: C_8  and  C_6 
REMARK    5  A    between atoms: C_9  and  C_7 
REMARK    6  A    between atoms: C_10  and  C_8 
REMARK    7  A    between atoms: C_11  and  C_9 
REMARK    8  A    between atoms: C_12  and  C_10 
REMARK    9  A    between atoms: C_13  and  C_11 
REMARK   10  A    between atoms: C_14  and  C_12 
REMARK   11  A    between atoms: C_15  and  C_13 
REMARK   12  A    between atoms: C_16  and  C_14 
REMARK   13  A    between atoms: C_17  and  C_15 
REMARK   14  A    between atoms: C_19  and  C_16 
REMARK   15  A    between atoms: C_20  and  C_18 
REMARK   16  A    between atoms: C_21  and  C_19 
REMARK   17  A    between atoms: C_22  and  C_20 
REMARK   18  A    between atoms: C_23  and  C_21 
REMARK   19  A    between atoms: C_24  and  C_22 
REMARK   20  A    between atoms: C_25  and  C_23 
REMARK   21  A    between atoms: C_26  and  C_24 
REMARK   22  A    between atoms: C_27  and  C_25 
REMARK   23  A    between atoms: C_28  and  C_26 
REMARK   24  A    between atoms: C_29  and  C_27 
REMARK   25  A    between atoms: C_30  and  C_28 
REMARK   26  A    between atoms: C_31  and  C_29 
REMARK   27  A    between atoms: C_32  and  C_30 
REMARK   28  A    between atoms: C_36  and  C_31 
REMARK   29  A    between atoms: C_37  and  C_32 
REMARK   30  A    between atoms: C_35  and  C_33 
REMARK   31  A    between atoms: O_53  and  C_33 
REMARK   32  A    between atoms: C_35  and  C_34 
REMARK   33  A    between atoms: O_54  and  C_34 
REMARK   34  A    between atoms: C_35  and  O_55 
REMARK   35  A    between atoms: O_53  and  C_36 
REMARK   36  A    between atoms: O_55  and  C_37 
REMARK   37  A    between atoms: C_38  and  O_46 
REMARK   38  A    between atoms: C_41  and  O_49 
REMARK   39  A    between atoms: C_42  and  O_50 
REMARK   40  A    between atoms: C_43  and  O_56 
REMARK   41  A    between atoms: P_57  and  O_54 
REMARK   42  A    between atoms: P_57  and  O_56 
ROOT
HETATM    1  C   UNK N   1      34.922  13.401  10.636  0.00  0.00     0.180 C 
HETATM    2  C   UNK N   1      34.278  12.955   9.309  0.00  0.00     0.180 C 
HETATM    3  C   UNK N   1      34.529  14.845  10.997  0.00  0.00     0.180 C 
HETATM    4  C   UNK N   1      34.670  13.924   8.178  0.00  0.00     0.181 C 
HETATM    5  C   UNK N   1      34.919  15.795   9.851  0.00  0.00     0.181 C 
HETATM    6  C   UNK N   1      34.261  15.378   8.514  0.00  0.00     0.197 C 
HETATM    7  O   UNK N   1      32.884  12.900   9.435  0.00  0.00    -0.390 OA
HETATM    8  O   UNK N   1      33.155  14.931  11.249  0.00  0.00    -0.390 OA
HETATM    9  H   UNK N   1      31.934  12.914   9.627  0.00  0.00     0.210 HD
HETATM   10  H   UNK N   1      32.207  15.070  11.398  0.00  0.00     0.210 HD
ENDROOT
BRANCH   1  11
HETATM   11  O   UNK N   1      34.557  12.531  11.667  0.00  0.00    -0.390 OA
HETATM   12  H   UNK N   1      35.197  12.175  12.302  0.00  0.00     0.210 HD
ENDBRANCH   1  11
BRANCH   4  13
HETATM   13  O   UNK N   1      34.079  13.513   6.982  0.00  0.00    -0.390 OA
HETATM   14  H   UNK N   1      34.451  13.710   6.108  0.00  0.00     0.210 HD
ENDBRANCH   4  13
BRANCH   6  15
HETATM   15  O   UNK N   1      34.731  16.238   7.494  0.00  0.00    -0.279 OA
BRANCH  15  16
HETATM   16  P   UNK N   1      33.414  17.135   6.751  0.00  0.00     0.408 P 
HETATM   17  O   UNK N   1      33.854  17.925   5.268  0.00  0.00    -0.624 OA
HETATM   18  O   UNK N   1      33.117  18.289   7.746  0.00  0.00    -0.624 OA
BRANCH  16  19
HETATM   19  O   UNK N   1      31.906  16.261   6.624  0.00  0.00    -0.287 OA
BRANCH  19  20
HETATM   20  C   UNK N   1      30.895  17.089   7.125  0.00  0.00     0.216 C 
BRANCH  20  21
HETATM   21  C   UNK N   1      29.589  16.882   6.360  0.00  0.00     0.180 C 
BRANCH  21  22
HETATM   22  C   UNK N   1      29.728  15.622   5.502  0.00  0.00     0.213 C 
BRANCH  22  23
HETATM   23  O   UNK N   1      28.653  14.764   5.578  0.00  0.00    -0.319 OA
BRANCH  23  24
HETATM   24  C   UNK N   1      27.469  15.053   4.992  0.00  0.00     0.258 C 
HETATM   25  O   UNK N   1      27.457  15.526   3.868  0.00  0.00    -0.265 OA
BRANCH  24  26
HETATM   26  C   UNK N   1      26.171  14.862   5.713  0.00  0.00     0.111 C 
BRANCH  26  27
HETATM   27  C   UNK N   1      25.928  13.392   6.066  0.00  0.00     0.010 C 
BRANCH  27  28
HETATM   28  C   UNK N   1      24.766  13.172   7.044  0.00  0.00     0.000 C 
BRANCH  28  29
HETATM   29  C   UNK N   1      23.438  13.778   6.589  0.00  0.00     0.000 C 
BRANCH  29  30
HETATM   30  C   UNK N   1      22.566  12.779   5.851  0.00  0.00     0.000 C 
BRANCH  30  31
HETATM   31  C   UNK N   1      21.092  13.027   6.136  0.00  0.00     0.000 C 
BRANCH  31  32
HETATM   32  C   UNK N   1      20.384  13.519   4.880  0.00  0.00     0.000 C 
BRANCH  32  33
HETATM   33  C   UNK N   1      21.276  13.443   3.645  0.00  0.00     0.000 C 
BRANCH  33  34
HETATM   34  C   UNK N   1      20.681  14.213   2.480  0.00  0.00     0.000 C 
BRANCH  34  35
HETATM   35  C   UNK N   1      21.798  14.819   1.655  0.00  0.00     0.000 C 
BRANCH  35  36
HETATM   36  C   UNK N   1      22.465  13.739   0.827  0.00  0.00     0.000 C 
BRANCH  36  37
HETATM   37  C   UNK N   1      23.904  14.123   0.522  0.00  0.00     0.000 C 
BRANCH  37  38
HETATM   38  C   UNK N   1      24.869  13.111   1.117  0.00  0.00    -0.000 C 
BRANCH  38  39
HETATM   39  C   UNK N   1      24.720  13.045   2.626  0.00  0.00    -0.005 C 
HETATM   40  C   UNK N   1      24.481  11.610   3.046  0.00  0.00     0.005 C 
ENDBRANCH  38  39
ENDBRANCH  37  38
ENDBRANCH  36  37
ENDBRANCH  35  36
ENDBRANCH  34  35
ENDBRANCH  33  34
ENDBRANCH  32  33
ENDBRANCH  31  32
ENDBRANCH  30  31
ENDBRANCH  29  30
ENDBRANCH  28  29
ENDBRANCH  27  28
ENDBRANCH  26  27
ENDBRANCH  24  26
ENDBRANCH  23  24
ENDBRANCH  22  23
ENDBRANCH  21  22
BRANCH  21  41
HETATM   41  O   UNK N   1      29.366  17.998   5.576  0.00  0.00    -0.312 OA
BRANCH  41  42
HETATM   42  C   UNK N   1      28.183  18.659   5.482  0.00  0.00     0.259 C 
HETATM   43  O   UNK N   1      27.240  18.370   6.206  0.00  0.00    -0.265 OA
BRANCH  42  44
HETATM   44  C   UNK N   1      28.037  19.766   4.496  0.00  0.00     0.111 C 
BRANCH  44  45
HETATM   45  C   UNK N   1      26.625  20.332   4.588  0.00  0.00     0.010 C 
BRANCH  45  46
HETATM   46  C   UNK N   1      25.890  20.285   3.252  0.00  0.00     0.000 C 
BRANCH  46  47
HETATM   47  C   UNK N   1      24.418  19.935   3.404  0.00  0.00     0.000 C 
BRANCH  47  48
HETATM   48  C   UNK N   1      24.263  18.919   4.525  0.00  0.00     0.000 C 
BRANCH  48  49
HETATM   49  C   UNK N   1      24.329  17.495   4.002  0.00  0.00     0.004 C 
BRANCH  49  50
HETATM   50  C   UNK N   1      23.033  16.749   4.307  0.00  0.00     0.027 C 
BRANCH  50  51
HETATM   51  C   UNK N   1      22.492  16.940   5.705  0.00  0.00    -0.031 C 
HETATM   52  C   UNK N   1      21.183  16.999   5.995  0.00  0.00    -0.031 C 
BRANCH  52  53
HETATM   53  C   UNK N   1      20.734  17.250   7.400  0.00  0.00     0.027 C 
BRANCH  53  54
HETATM   54  C   UNK N   1      20.095  15.989   7.967  0.00  0.00     0.004 C 
BRANCH  54  55
HETATM   55  C   UNK N   1      21.014  15.320   8.977  0.00  0.00     0.000 C 
BRANCH  55  56
HETATM   56  C   UNK N   1      20.300  14.145   9.620  0.00  0.00     0.000 C 
BRANCH  56  57
HETATM   57  C   UNK N   1      21.284  13.276  10.380  0.00  0.00     0.000 C 
BRANCH  57  58
HETATM   58  C   UNK N   1      21.893  12.230   9.462  0.00  0.00    -0.000 C 
BRANCH  58  59
HETATM   59  C   UNK N   1      22.902  11.389  10.224  0.00  0.00    -0.005 C 
HETATM   60  C   UNK N   1      23.449  12.158  11.413  0.00  0.00     0.005 C 
ENDBRANCH  58  59
ENDBRANCH  57  58
ENDBRANCH  56  57
ENDBRANCH  55  56
ENDBRANCH  54  55
ENDBRANCH  53  54
ENDBRANCH  52  53
ENDBRANCH  50  51
ENDBRANCH  49  50
ENDBRANCH  48  49
ENDBRANCH  47  48
ENDBRANCH  46  47
ENDBRANCH  45  46
ENDBRANCH  44  45
ENDBRANCH  42  44
ENDBRANCH  41  42
ENDBRANCH  21  41
ENDBRANCH  20  21
ENDBRANCH  19  20
ENDBRANCH  16  19
ENDBRANCH  15  16
ENDBRANCH   6  15
BRANCH   5  61
HETATM   61  O   UNK N   1      34.551  17.096  10.194  0.00  0.00    -0.390 OA
HETATM   62  H   UNK N   1      33.753  17.326  10.696  0.00  0.00     0.210 HD
ENDBRANCH   5  61
TORSDOF 42
ENDMDL
MODEL 3
REMARK VINA RESULT:      -5.9      6.226     11.431
REMARK WARNING: 32 MAX_TORS EXCEEDED!!!
REMARK  42 active torsions:
REMARK  status: ('A' for Active; 'I' for Inactive)
REMARK    1  A    between atoms: C_5  and  C_3 
REMARK    2  A    between atoms: C_6  and  C_4 
REMARK    3  A    between atoms: C_7  and  C_5 
REMARK    4  A    between atoms: C_8  and  C_6 
REMARK    5  A    between atoms: C_9  and  C_7 
REMARK    6  A    between atoms: C_10  and  C_8 
REMARK    7  A    between atoms: C_11  and  C_9 
REMARK    8  A    between atoms: C_12  and  C_10 
REMARK    9  A    between atoms: C_13  and  C_11 
REMARK   10  A    between atoms: C_14  and  C_12 
REMARK   11  A    between atoms: C_15  and  C_13 
REMARK   12  A    between atoms: C_16  and  C_14 
REMARK   13  A    between atoms: C_17  and  C_15 
REMARK   14  A    between atoms: C_19  and  C_16 
REMARK   15  A    between atoms: C_20  and  C_18 
REMARK   16  A    between atoms: C_21  and  C_19 
REMARK   17  A    between atoms: C_22  and  C_20 
REMARK   18  A    between atoms: C_23  and  C_21 
REMARK   19  A    between atoms: C_24  and  C_22 
REMARK   20  A    between atoms: C_25  and  C_23 
REMARK   21  A    between atoms: C_26  and  C_24 
REMARK   22  A    between atoms: C_27  and  C_25 
REMARK   23  A    between atoms: C_28  and  C_26 
REMARK   24  A    between atoms: C_29  and  C_27 
REMARK   25  A    between atoms: C_30  and  C_28 
REMARK   26  A    between atoms: C_31  and  C_29 
REMARK   27  A    between atoms: C_32  and  C_30 
REMARK   28  A    between atoms: C_36  and  C_31 
REMARK   29  A    between atoms: C_37  and  C_32 
REMARK   30  A    between atoms: C_35  and  C_33 
REMARK   31  A    between atoms: O_53  and  C_33 
REMARK   32  A    between atoms: C_35  and  C_34 
REMARK   33  A    between atoms: O_54  and  C_34 
REMARK   34  A    between atoms: C_35  and  O_55 
REMARK   35  A    between atoms: O_53  and  C_36 
REMARK   36  A    between atoms: O_55  and  C_37 
REMARK   37  A    between atoms: C_38  and  O_46 
REMARK   38  A    between atoms: C_41  and  O_49 
REMARK   39  A    between atoms: C_42  and  O_50 
REMARK   40  A    between atoms: C_43  and  O_56 
REMARK   41  A    between atoms: P_57  and  O_54 
REMARK   42  A    between atoms: P_57  and  O_56 
ROOT
HETATM    1  C   UNK N   1      36.740  13.713  12.682  0.00  0.00     0.180 C 
HETATM    2  C   UNK N   1      37.171  12.827  11.496  0.00  0.00     0.180 C 
HETATM    3  C   UNK N   1      35.235  14.035  12.628  0.00  0.00     0.180 C 
HETATM    4  C   UNK N   1      36.808  13.512  10.165  0.00  0.00     0.181 C 
HETATM    5  C   UNK N   1      34.892  14.708  11.287  0.00  0.00     0.181 C 
HETATM    6  C   UNK N   1      35.295  13.822  10.083  0.00  0.00     0.197 C 
HETATM    7  O   UNK N   1      36.556  11.571  11.574  0.00  0.00    -0.390 OA
HETATM    8  O   UNK N   1      34.478  12.870  12.790  0.00  0.00    -0.390 OA
HETATM    9  H   UNK N   1      36.067  10.746  11.715  0.00  0.00     0.210 HD
HETATM   10  H   UNK N   1      33.893  12.098  12.858  0.00  0.00     0.210 HD
ENDROOT
BRANCH   1  11
HETATM   11  O   UNK N   1      37.054  13.087  13.892  0.00  0.00    -0.390 OA
HETATM   12  H   UNK N   1      37.499  13.549  14.619  0.00  0.00     0.210 HD
ENDBRANCH   1  11
BRANCH   4  13
HETATM   13  O   UNK N   1      37.200  12.701   9.098  0.00  0.00    -0.390 OA
HETATM   14  H   UNK N   1      36.963  12.883   8.176  0.00  0.00     0.210 HD
ENDBRANCH   4  13
BRANCH   6  15
HETATM   15  O   UNK N   1      35.033  14.537   8.892  0.00  0.00    -0.279 OA
BRANCH  15  16
HETATM   16  P   UNK N   1      33.828  13.723   7.904  0.00  0.00     0.408 P 
HETATM   17  O   UNK N   1      32.242  13.702   8.609  0.00  0.00    -0.624 OA
HETATM   18  O   UNK N   1      34.277  12.237   7.885  0.00  0.00    -0.624 OA
BRANCH  16  19
HETATM   19  O   UNK N   1      33.809  14.200   6.223  0.00  0.00    -0.287 OA
BRANCH  19  20
HETATM   20  C   UNK N   1      32.498  14.571   5.904  0.00  0.00     0.216 C 
BRANCH  20  21
HETATM   21  C   UNK N   1      32.476  15.865   5.092  0.00  0.00     0.180 C 
BRANCH  21  22
HETATM   22  C   UNK N   1      31.767  16.940   5.919  0.00  0.00     0.213 C 
BRANCH  22  23
HETATM   23  O   UNK N   1      32.537  17.479   6.926  0.00  0.00    -0.319 OA
BRANCH  23  24
HETATM   24  C   UNK N   1      32.223  17.309   8.230  0.00  0.00     0.258 C 
HETATM   25  O   UNK N   1      33.116  17.208   9.054  0.00  0.00    -0.265 OA
BRANCH  24  26
HETATM   26  C   UNK N   1      30.802  17.181   8.682  0.00  0.00     0.111 C 
BRANCH  26  27
HETATM   27  C   UNK N   1      30.192  18.542   9.035  0.00  0.00     0.010 C 
BRANCH  27  28
HETATM   28  C   UNK N   1      28.674  18.615   8.829  0.00  0.00     0.000 C 
BRANCH  28  29
HETATM   29  C   UNK N   1      28.168  17.861   7.599  0.00  0.00     0.000 C 
BRANCH  29  30
HETATM   30  C   UNK N   1      28.098  18.742   6.366  0.00  0.00     0.000 C 
BRANCH  30  31
HETATM   31  C   UNK N   1      27.726  20.170   6.737  0.00  0.00     0.000 C 
BRANCH  31  32
HETATM   32  C   UNK N   1      27.121  20.889   5.538  0.00  0.00     0.000 C 
BRANCH  32  33
HETATM   33  C   UNK N   1      27.120  20.024   4.283  0.00  0.00     0.000 C 
BRANCH  33  34
HETATM   34  C   UNK N   1      25.782  20.081   3.566  0.00  0.00     0.000 C 
BRANCH  34  35
HETATM   35  C   UNK N   1      24.790  19.187   4.283  0.00  0.00     0.000 C 
BRANCH  35  36
HETATM   36  C   UNK N   1      25.356  17.786   4.399  0.00  0.00     0.000 C 
BRANCH  36  37
HETATM   37  C   UNK N   1      24.830  16.912   3.273  0.00  0.00     0.000 C 
BRANCH  37  38
HETATM   38  C   UNK N   1      25.948  16.072   2.676  0.00  0.00    -0.000 C 
BRANCH  38  39
HETATM   39  C   UNK N   1      25.450  14.680   2.330  0.00  0.00    -0.005 C 
HETATM   40  C   UNK N   1      23.941  14.698   2.220  0.00  0.00     0.005 C 
ENDBRANCH  38  39
ENDBRANCH  37  38
ENDBRANCH  36  37
ENDBRANCH  35  36
ENDBRANCH  34  35
ENDBRANCH  33  34
ENDBRANCH  32  33
ENDBRANCH  31  32
ENDBRANCH  30  31
ENDBRANCH  29  30
ENDBRANCH  28  29
ENDBRANCH  27  28
ENDBRANCH  26  27
ENDBRANCH  24  26
ENDBRANCH  23  24
ENDBRANCH  22  23
ENDBRANCH  21  22
BRANCH  21  41
HETATM   41  O   UNK N   1      31.803  15.621   3.909  0.00  0.00    -0.312 OA
BRANCH  41  42
HETATM   42  C   UNK N   1      32.140  14.662   3.007  0.00  0.00     0.259 C 
HETATM   43  O   UNK N   1      33.206  14.707   2.408  0.00  0.00    -0.265 OA
BRANCH  42  44
HETATM   44  C   UNK N   1      31.206  13.529   2.758  0.00  0.00     0.111 C 
BRANCH  44  45
HETATM   45  C   UNK N   1      29.798  14.077   2.563  0.00  0.00     0.010 C 
BRANCH  45  46
HETATM   46  C   UNK N   1      28.798  13.478   3.548  0.00  0.00     0.000 C 
BRANCH  46  47
HETATM   47  C   UNK N   1      28.482  14.413   4.705  0.00  0.00     0.000 C 
BRANCH  47  48
HETATM   48  C   UNK N   1      27.243  13.907   5.428  0.00  0.00     0.000 C 
BRANCH  48  49
HETATM   49  C   UNK N   1      26.617  14.989   6.289  0.00  0.00     0.004 C 
BRANCH  49  50
HETATM   50  C   UNK N   1      25.477  14.417   7.127  0.00  0.00     0.027 C 
BRANCH  50  51
HETATM   51  C   UNK N   1      24.109  14.985   6.828  0.00  0.00    -0.031 C 
HETATM   52  C   UNK N   1      23.305  14.519   5.859  0.00  0.00    -0.031 C 
BRANCH  52  53
HETATM   53  C   UNK N   1      21.989  15.179   5.591  0.00  0.00     0.027 C 
BRANCH  53  54
HETATM   54  C   UNK N   1      21.840  16.406   6.481  0.00  0.00     0.004 C 
BRANCH  54  55
HETATM   55  C   UNK N   1      21.836  17.681   5.652  0.00  0.00     0.000 C 
BRANCH  55  56
HETATM   56  C   UNK N   1      20.712  17.627   4.634  0.00  0.00     0.000 C 
BRANCH  56  57
HETATM   57  C   UNK N   1      21.272  17.588   3.225  0.00  0.00     0.000 C 
BRANCH  57  58
HETATM   58  C   UNK N   1      20.449  18.465   2.298  0.00  0.00    -0.000 C 
BRANCH  58  59
HETATM   59  C   UNK N   1      20.412  19.890   2.820  0.00  0.00    -0.005 C 
HETATM   60  C   UNK N   1      21.749  20.574   2.599  0.00  0.00     0.005 C 
ENDBRANCH  58  59
ENDBRANCH  57  58
ENDBRANCH  56  57
ENDBRANCH  55  56
ENDBRANCH  54  55
ENDBRANCH  53  54
ENDBRANCH  52  53
ENDBRANCH  50  51
ENDBRANCH  49  50
ENDBRANCH  48  49
ENDBRANCH  47  48
ENDBRANCH  46  47
ENDBRANCH  45  46
ENDBRANCH  44  45
ENDBRANCH  42  44
ENDBRANCH  41  42
ENDBRANCH  21  41
ENDBRANCH  20  21
ENDBRANCH  19  20
ENDBRANCH  16  19
ENDBRANCH  15  16
ENDBRANCH   6  15
BRANCH   5  61
HETATM   61  O   UNK N   1      33.526  14.988  11.255  0.00  0.00    -0.390 OA
HETATM   62  H   UNK N   1      33.150  15.882  11.218  0.00  0.00     0.210 HD
ENDBRANCH   5  61
TORSDOF 42
ENDMDL
MODEL 4
REMARK VINA RESULT:      -5.8      1.478      2.858
REMARK WARNING: 32 MAX_TORS EXCEEDED!!!
REMARK  42 active torsions:
REMARK  status: ('A' for Active; 'I' for Inactive)
REMARK    1  A    between atoms: C_5  and  C_3 
REMARK    2  A    between atoms: C_6  and  C_4 
REMARK    3  A    between atoms: C_7  and  C_5 
REMARK    4  A    between atoms: C_8  and  C_6 
REMARK    5  A    between atoms: C_9  and  C_7 
REMARK    6  A    between atoms: C_10  and  C_8 
REMARK    7  A    between atoms: C_11  and  C_9 
REMARK    8  A    between atoms: C_12  and  C_10 
REMARK    9  A    between atoms: C_13  and  C_11 
REMARK   10  A    between atoms: C_14  and  C_12 
REMARK   11  A    between atoms: C_15  and  C_13 
REMARK   12  A    between atoms: C_16  and  C_14 
REMARK   13  A    between atoms: C_17  and  C_15 
REMARK   14  A    between atoms: C_19  and  C_16 
REMARK   15  A    between atoms: C_20  and  C_18 
REMARK   16  A    between atoms: C_21  and  C_19 
REMARK   17  A    between atoms: C_22  and  C_20 
REMARK   18  A    between atoms: C_23  and  C_21 
REMARK   19  A    between atoms: C_24  and  C_22 
REMARK   20  A    between atoms: C_25  and  C_23 
REMARK   21  A    between atoms: C_26  and  C_24 
REMARK   22  A    between atoms: C_27  and  C_25 
REMARK   23  A    between atoms: C_28  and  C_26 
REMARK   24  A    between atoms: C_29  and  C_27 
REMARK   25  A    between atoms: C_30  and  C_28 
REMARK   26  A    between atoms: C_31  and  C_29 
REMARK   27  A    between atoms: C_32  and  C_30 
REMARK   28  A    between atoms: C_36  and  C_31 
REMARK   29  A    between atoms: C_37  and  C_32 
REMARK   30  A    between atoms: C_35  and  C_33 
REMARK   31  A    between atoms: O_53  and  C_33 
REMARK   32  A    between atoms: C_35  and  C_34 
REMARK   33  A    between atoms: O_54  and  C_34 
REMARK   34  A    between atoms: C_35  and  O_55 
REMARK   35  A    between atoms: O_53  and  C_36 
REMARK   36  A    between atoms: O_55  and  C_37 
REMARK   37  A    between atoms: C_38  and  O_46 
REMARK   38  A    between atoms: C_41  and  O_49 
REMARK   39  A    between atoms: C_42  and  O_50 
REMARK   40  A    between atoms: C_43  and  O_56 
REMARK   41  A    between atoms: P_57  and  O_54 
REMARK   42  A    between atoms: P_57  and  O_56 
ROOT
HETATM    1  C   UNK N   1      24.155  12.338   6.924  0.00  0.00     0.180 C 
HETATM    2  C   UNK N   1      24.301  13.685   6.190  0.00  0.00     0.180 C 
HETATM    3  C   UNK N   1      22.677  12.004   7.200  0.00  0.00     0.180 C 
HETATM    4  C   UNK N   1      23.632  14.808   7.005  0.00  0.00     0.181 C 
HETATM    5  C   UNK N   1      22.025  13.142   8.006  0.00  0.00     0.181 C 
HETATM    6  C   UNK N   1      22.140  14.500   7.272  0.00  0.00     0.197 C 
HETATM    7  O   UNK N   1      23.730  13.612   4.913  0.00  0.00    -0.390 OA
HETATM    8  O   UNK N   1      21.986  11.805   6.000  0.00  0.00    -0.390 OA
HETATM    9  H   UNK N   1      23.293  13.457   4.062  0.00  0.00     0.210 HD
HETATM   10  H   UNK N   1      21.439  11.693   5.207  0.00  0.00     0.210 HD
ENDROOT
BRANCH   1  11
HETATM   11  O   UNK N   1      24.748  11.315   6.180  0.00  0.00    -0.390 OA
HETATM   12  H   UNK N   1      24.272  10.826   5.492  0.00  0.00     0.210 HD
ENDBRANCH   1  11
BRANCH   4  13
HETATM   13  O   UNK N   1      23.768  16.023   6.330  0.00  0.00    -0.390 OA
HETATM   14  H   UNK N   1      24.082  16.836   6.755  0.00  0.00     0.210 HD
ENDBRANCH   4  13
BRANCH   6  15
HETATM   15  O   UNK N   1      21.601  15.508   8.105  0.00  0.00    -0.279 OA
BRANCH  15  16
HETATM   16  P   UNK N   1      20.356  16.431   7.276  0.00  0.00     0.408 P 
HETATM   17  O   UNK N   1      19.300  17.301   8.345  0.00  0.00    -0.624 OA
HETATM   18  O   UNK N   1      19.454  15.359   6.608  0.00  0.00    -0.624 OA
BRANCH  16  19
HETATM   19  O   UNK N   1      20.928  17.416   5.951  0.00  0.00    -0.287 OA
BRANCH  19  20
HETATM   20  C   UNK N   1      20.542  16.788   4.761  0.00  0.00     0.216 C 
BRANCH  20  21
HETATM   21  C   UNK N   1      20.511  17.783   3.602  0.00  0.00     0.180 C 
BRANCH  21  22
HETATM   22  C   UNK N   1      20.247  17.007   2.308  0.00  0.00     0.213 C 
BRANCH  22  23
HETATM   23  O   UNK N   1      20.318  15.638   2.446  0.00  0.00    -0.319 OA
BRANCH  23  24
HETATM   24  C   UNK N   1      20.170  14.809   1.387  0.00  0.00     0.258 C 
HETATM   25  O   UNK N   1      19.059  14.630   0.916  0.00  0.00    -0.265 OA
BRANCH  24  26
HETATM   26  C   UNK N   1      21.330  14.059   0.813  0.00  0.00     0.111 C 
BRANCH  26  27
HETATM   27  C   UNK N   1      22.621  14.322   1.594  0.00  0.00     0.010 C 
BRANCH  27  28
HETATM   28  C   UNK N   1      23.900  14.098   0.777  0.00  0.00     0.000 C 
BRANCH  28  29
HETATM   29  C   UNK N   1      25.182  14.062   1.610  0.00  0.00     0.000 C 
BRANCH  29  30
HETATM   30  C   UNK N   1      25.759  15.445   1.846  0.00  0.00     0.000 C 
BRANCH  30  31
HETATM   31  C   UNK N   1      25.464  15.924   3.260  0.00  0.00     0.000 C 
BRANCH  31  32
HETATM   32  C   UNK N   1      26.562  16.866   3.741  0.00  0.00     0.000 C 
BRANCH  32  33
HETATM   33  C   UNK N   1      27.123  16.457   5.098  0.00  0.00     0.000 C 
BRANCH  33  34
HETATM   34  C   UNK N   1      28.635  16.330   5.062  0.00  0.00     0.000 C 
BRANCH  34  35
HETATM   35  C   UNK N   1      29.166  17.004   3.813  0.00  0.00     0.000 C 
BRANCH  35  36
HETATM   36  C   UNK N   1      30.102  16.062   3.083  0.00  0.00     0.000 C 
BRANCH  36  37
HETATM   37  C   UNK N   1      29.318  14.922   2.456  0.00  0.00     0.000 C 
BRANCH  37  38
HETATM   38  C   UNK N   1      29.481  13.646   3.265  0.00  0.00    -0.000 C 
BRANCH  38  39
HETATM   39  C   UNK N   1      28.222  12.802   3.202  0.00  0.00    -0.005 C 
HETATM   40  C   UNK N   1      27.571  12.766   4.568  0.00  0.00     0.005 C 
ENDBRANCH  38  39
ENDBRANCH  37  38
ENDBRANCH  36  37
ENDBRANCH  35  36
ENDBRANCH  34  35
ENDBRANCH  33  34
ENDBRANCH  32  33
ENDBRANCH  31  32
ENDBRANCH  30  31
ENDBRANCH  29  30
ENDBRANCH  28  29
ENDBRANCH  27  28
ENDBRANCH  26  27
ENDBRANCH  24  26
ENDBRANCH  23  24
ENDBRANCH  22  23
ENDBRANCH  21  22
BRANCH  21  41
HETATM   41  O   UNK N   1      21.732  18.429   3.555  0.00  0.00    -0.312 OA
BRANCH  41  42
HETATM   42  C   UNK N   1      21.901  19.756   3.316  0.00  0.00     0.259 C 
HETATM   43  O   UNK N   1      20.972  20.542   3.439  0.00  0.00    -0.265 OA
BRANCH  42  44
HETATM   44  C   UNK N   1      23.244  20.265   2.919  0.00  0.00     0.111 C 
BRANCH  44  45
HETATM   45  C   UNK N   1      24.304  19.611   3.797  0.00  0.00     0.010 C 
BRANCH  45  46
HETATM   46  C   UNK N   1      25.395  20.590   4.220  0.00  0.00     0.000 C 
BRANCH  46  47
HETATM   47  C   UNK N   1      26.734  20.299   3.560  0.00  0.00     0.000 C 
BRANCH  47  48
HETATM   48  C   UNK N   1      27.803  20.188   4.635  0.00  0.00     0.000 C 
BRANCH  48  49
HETATM   49  C   UNK N   1      27.405  20.926   5.900  0.00  0.00     0.004 C 
BRANCH  49  50
HETATM   50  C   UNK N   1      27.062  19.941   7.013  0.00  0.00     0.027 C 
BRANCH  50  51
HETATM   51  C   UNK N   1      28.225  19.135   7.542  0.00  0.00    -0.031 C 
HETATM   52  C   UNK N   1      28.188  18.438   8.689  0.00  0.00    -0.031 C 
BRANCH  52  53
HETATM   53  C   UNK N   1      29.405  17.715   9.170  0.00  0.00     0.027 C 
BRANCH  53  54
HETATM   54  C   UNK N   1      30.643  18.561   8.905  0.00  0.00     0.004 C 
BRANCH  54  55
HETATM   55  C   UNK N   1      31.817  17.690   8.482  0.00  0.00     0.000 C 
BRANCH  55  56
HETATM   56  C   UNK N   1      31.442  16.891   7.247  0.00  0.00     0.000 C 
BRANCH  56  57
HETATM   57  C   UNK N   1      32.202  15.579   7.212  0.00  0.00     0.000 C 
BRANCH  57  58
HETATM   58  C   UNK N   1      32.168  14.978   5.818  0.00  0.00    -0.000 C 
BRANCH  58  59
HETATM   59  C   UNK N   1      33.303  15.537   4.979  0.00  0.00    -0.005 C 
HETATM   60  C   UNK N   1      34.562  15.684   5.814  0.00  0.00     0.005 C 
ENDBRANCH  58  59
ENDBRANCH  57  58
ENDBRANCH  56  57
ENDBRANCH  55  56
ENDBRANCH  54  55
ENDBRANCH  53  54
ENDBRANCH  52  53
ENDBRANCH  50  51
ENDBRANCH  49  50
ENDBRANCH  48  49
ENDBRANCH  47  48
ENDBRANCH  46  47
ENDBRANCH  45  46
ENDBRANCH  44  45
ENDBRANCH  42  44
ENDBRANCH  41  42
ENDBRANCH  21  41
ENDBRANCH  20  21
ENDBRANCH  19  20
ENDBRANCH  16  19
ENDBRANCH  15  16
ENDBRANCH   6  15
BRANCH   5  61
HETATM   61  O   UNK N   1      20.688  12.823   8.242  0.00  0.00    -0.390 OA
HETATM   62  H   UNK N   1      20.068  13.385   8.734  0.00  0.00     0.210 HD
ENDBRANCH   5  61
TORSDOF 42
ENDMDL
MODEL 5
REMARK VINA RESULT:      -5.8      7.373     12.325
REMARK WARNING: 32 MAX_TORS EXCEEDED!!!
REMARK  42 active torsions:
REMARK  status: ('A' for Active; 'I' for Inactive)
REMARK    1  A    between atoms: C_5  and  C_3 
REMARK    2  A    between atoms: C_6  and  C_4 
REMARK    3  A    between atoms: C_7  and  C_5 
REMARK    4  A    between atoms: C_8  and  C_6 
REMARK    5  A    between atoms: C_9  and  C_7 
REMARK    6  A    between atoms: C_10  and  C_8 
REMARK    7  A    between atoms: C_11  and  C_9 
REMARK    8  A    between atoms: C_12  and  C_10 
REMARK    9  A    between atoms: C_13  and  C_11 
REMARK   10  A    between atoms: C_14  and  C_12 
REMARK   11  A    between atoms: C_15  and  C_13 
REMARK   12  A    between atoms: C_16  and  C_14 
REMARK   13  A    between atoms: C_17  and  C_15 
REMARK   14  A    between atoms: C_19  and  C_16 
REMARK   15  A    between atoms: C_20  and  C_18 
REMARK   16  A    between atoms: C_21  and  C_19 
REMARK   17  A    between atoms: C_22  and  C_20 
REMARK   18  A    between atoms: C_23  and  C_21 
REMARK   19  A    between atoms: C_24  and  C_22 
REMARK   20  A    between atoms: C_25  and  C_23 
REMARK   21  A    between atoms: C_26  and  C_24 
REMARK   22  A    between atoms: C_27  and  C_25 
REMARK   23  A    between atoms: C_28  and  C_26 
REMARK   24  A    between atoms: C_29  and  C_27 
REMARK   25  A    between atoms: C_30  and  C_28 
REMARK   26  A    between atoms: C_31  and  C_29 
REMARK   27  A    between atoms: C_32  and  C_30 
REMARK   28  A    between atoms: C_36  and  C_31 
REMARK   29  A    between atoms: C_37  and  C_32 
REMARK   30  A    between atoms: C_35  and  C_33 
REMARK   31  A    between atoms: O_53  and  C_33 
REMARK   32  A    between atoms: C_35  and  C_34 
REMARK   33  A    between atoms: O_54  and  C_34 
REMARK   34  A    between atoms: C_35  and  O_55 
REMARK   35  A    between atoms: O_53  and  C_36 
REMARK   36  A    between atoms: O_55  and  C_37 
REMARK   37  A    between atoms: C_38  and  O_46 
REMARK   38  A    between atoms: C_41  and  O_49 
REMARK   39  A    between atoms: C_42  and  O_50 
REMARK   40  A    between atoms: C_43  and  O_56 
REMARK   41  A    between atoms: P_57  and  O_54 
REMARK   42  A    between atoms: P_57  and  O_56 
ROOT
HETATM    1  C   UNK N   1      36.008  11.592  15.612  0.00  0.00     0.180 C 
HETATM    2  C   UNK N   1      36.872  12.764  15.107  0.00  0.00     0.180 C 
HETATM    3  C   UNK N   1      35.383  10.807  14.444  0.00  0.00     0.180 C 
HETATM    4  C   UNK N   1      36.030  13.695  14.214  0.00  0.00     0.181 C 
HETATM    5  C   UNK N   1      34.556  11.757  13.559  0.00  0.00     0.181 C 
HETATM    6  C   UNK N   1      35.413  12.928  13.021  0.00  0.00     0.197 C 
HETATM    7  O   UNK N   1      37.979  12.286  14.395  0.00  0.00    -0.390 OA
HETATM    8  O   UNK N   1      36.378  10.184  13.683  0.00  0.00    -0.390 OA
HETATM    9  H   UNK N   1      38.695  11.849  13.909  0.00  0.00     0.210 HD
HETATM   10  H   UNK N   1      37.018   9.757  13.091  0.00  0.00     0.210 HD
ENDROOT
BRANCH   1  11
HETATM   11  O   UNK N   1      36.773  10.737  16.411  0.00  0.00    -0.390 OA
HETATM   12  H   UNK N   1      36.974   9.824  16.155  0.00  0.00     0.210 HD
ENDBRANCH   1  11
BRANCH   4  13
HETATM   13  O   UNK N   1      36.823  14.752  13.760  0.00  0.00    -0.390 OA
HETATM   14  H   UNK N   1      37.304  14.732  12.918  0.00  0.00     0.210 HD
ENDBRANCH   4  13
BRANCH   6  15
HETATM   15  O   UNK N   1      34.573  13.803  12.293  0.00  0.00    -0.279 OA
BRANCH  15  16
HETATM   16  P   UNK N   1      35.035  13.877  10.598  0.00  0.00     0.408 P 
HETATM   17  O   UNK N   1      35.160  12.322   9.837  0.00  0.00    -0.624 OA
HETATM   18  O   UNK N   1      36.484  14.433  10.612  0.00  0.00    -0.624 OA
BRANCH  16  19
HETATM   19  O   UNK N   1      34.130  15.023   9.638  0.00  0.00    -0.287 OA
BRANCH  19  20
HETATM   20  C   UNK N   1      33.387  14.295   8.702  0.00  0.00     0.216 C 
BRANCH  20  21
HETATM   21  C   UNK N   1      33.771  14.686   7.275  0.00  0.00     0.180 C 
BRANCH  21  22
HETATM   22  C   UNK N   1      34.940  15.672   7.344  0.00  0.00     0.213 C 
BRANCH  22  23
HETATM   23  O   UNK N   1      34.598  16.975   7.055  0.00  0.00    -0.319 OA
BRANCH  23  24
HETATM   24  C   UNK N   1      34.324  17.871   8.031  0.00  0.00     0.258 C 
HETATM   25  O   UNK N   1      35.149  18.078   8.904  0.00  0.00    -0.265 OA
BRANCH  24  26
HETATM   26  C   UNK N   1      33.004  18.573   8.099  0.00  0.00     0.111 C 
BRANCH  26  27
HETATM   27  C   UNK N   1      31.903  17.663   8.651  0.00  0.00     0.010 C 
BRANCH  27  28
HETATM   28  C   UNK N   1      30.503  18.290   8.617  0.00  0.00     0.000 C 
BRANCH  28  29
HETATM   29  C   UNK N   1      29.527  17.709   9.641  0.00  0.00     0.000 C 
BRANCH  29  30
HETATM   30  C   UNK N   1      28.078  17.881   9.226  0.00  0.00     0.000 C 
BRANCH  30  31
HETATM   31  C   UNK N   1      27.860  17.398   7.799  0.00  0.00     0.000 C 
BRANCH  31  32
HETATM   32  C   UNK N   1      27.213  16.018   7.800  0.00  0.00     0.000 C 
BRANCH  32  33
HETATM   33  C   UNK N   1      26.430  15.745   6.521  0.00  0.00     0.000 C 
BRANCH  33  34
HETATM   34  C   UNK N   1      25.063  15.156   6.819  0.00  0.00     0.000 C 
BRANCH  34  35
HETATM   35  C   UNK N   1      25.219  13.704   7.225  0.00  0.00     0.000 C 
BRANCH  35  36
HETATM   36  C   UNK N   1      24.608  13.489   8.595  0.00  0.00     0.000 C 
BRANCH  36  37
HETATM   37  C   UNK N   1      24.076  12.070   8.717  0.00  0.00     0.000 C 
BRANCH  37  38
HETATM   38  C   UNK N   1      22.594  12.077   9.053  0.00  0.00    -0.000 C 
BRANCH  38  39
HETATM   39  C   UNK N   1      22.344  12.782  10.373  0.00  0.00    -0.005 C 
HETATM   40  C   UNK N   1      22.980  11.991  11.496  0.00  0.00     0.005 C 
ENDBRANCH  38  39
ENDBRANCH  37  38
ENDBRANCH  36  37
ENDBRANCH  35  36
ENDBRANCH  34  35
ENDBRANCH  33  34
ENDBRANCH  32  33
ENDBRANCH  31  32
ENDBRANCH  30  31
ENDBRANCH  29  30
ENDBRANCH  28  29
ENDBRANCH  27  28
ENDBRANCH  26  27
ENDBRANCH  24  26
ENDBRANCH  23  24
ENDBRANCH  22  23
ENDBRANCH  21  22
BRANCH  21  41
HETATM   41  O   UNK N   1      32.668  15.261   6.674  0.00  0.00    -0.312 OA
BRANCH  41  42
HETATM   42  C   UNK N   1      31.598  14.576   6.193  0.00  0.00     0.259 C 
HETATM   43  O   UNK N   1      31.654  13.368   6.009  0.00  0.00    -0.265 OA
BRANCH  42  44
HETATM   44  C   UNK N   1      30.329  15.302   5.906  0.00  0.00     0.111 C 
BRANCH  44  45
HETATM   45  C   UNK N   1      30.658  16.646   5.268  0.00  0.00     0.010 C 
BRANCH  45  46
HETATM   46  C   UNK N   1      29.995  16.821   3.905  0.00  0.00     0.000 C 
BRANCH  46  47
HETATM   47  C   UNK N   1      28.577  17.362   4.006  0.00  0.00     0.000 C 
BRANCH  47  48
HETATM   48  C   UNK N   1      28.611  18.718   4.694  0.00  0.00     0.000 C 
BRANCH  48  49
HETATM   49  C   UNK N   1      27.214  19.268   4.915  0.00  0.00     0.004 C 
BRANCH  49  50
HETATM   50  C   UNK N   1      26.308  18.927   3.736  0.00  0.00     0.027 C 
BRANCH  50  51
HETATM   51  C   UNK N   1      25.114  18.063   4.068  0.00  0.00    -0.031 C 
HETATM   52  C   UNK N   1      23.934  18.551   4.481  0.00  0.00    -0.031 C 
BRANCH  52  53
HETATM   53  C   UNK N   1      22.821  17.621   4.846  0.00  0.00     0.027 C 
BRANCH  53  54
HETATM   54  C   UNK N   1      22.883  16.377   3.969  0.00  0.00     0.004 C 
BRANCH  54  55
HETATM   55  C   UNK N   1      21.732  15.434   4.283  0.00  0.00     0.000 C 
BRANCH  55  56
HETATM   56  C   UNK N   1      22.274  14.142   4.866  0.00  0.00     0.000 C 
BRANCH  56  57
HETATM   57  C   UNK N   1      21.320  13.587   5.906  0.00  0.00     0.000 C 
BRANCH  57  58
HETATM   58  C   UNK N   1      20.582  14.713   6.610  0.00  0.00    -0.000 C 
BRANCH  58  59
HETATM   59  C   UNK N   1      21.447  15.297   7.713  0.00  0.00    -0.005 C 
HETATM   60  C   UNK N   1      20.619  16.171   8.636  0.00  0.00     0.005 C 
ENDBRANCH  58  59
ENDBRANCH  57  58
ENDBRANCH  56  57
ENDBRANCH  55  56
ENDBRANCH  54  55
ENDBRANCH  53  54
ENDBRANCH  52  53
ENDBRANCH  50  51
ENDBRANCH  49  50
ENDBRANCH  48  49
ENDBRANCH  47  48
ENDBRANCH  46  47
ENDBRANCH  45  46
ENDBRANCH  44  45
ENDBRANCH  42  44
ENDBRANCH  41  42
ENDBRANCH  21  41
ENDBRANCH  20  21
ENDBRANCH  19  20
ENDBRANCH  16  19
ENDBRANCH  15  16
ENDBRANCH   6  15
BRANCH   5  61
HETATM   61  O   UNK N   1      34.003  11.029  12.505  0.00  0.00    -0.390 OA
HETATM   62  H   UNK N   1      33.056  11.006  12.293  0.00  0.00     0.210 HD
ENDBRANCH   5  61
TORSDOF 42
ENDMDL
MODEL 6
REMARK VINA RESULT:      -5.8      5.222     10.116
REMARK WARNING: 32 MAX_TORS EXCEEDED!!!
REMARK  42 active torsions:
REMARK  status: ('A' for Active; 'I' for Inactive)
REMARK    1  A    between atoms: C_5  and  C_3 
REMARK    2  A    between atoms: C_6  and  C_4 
REMARK    3  A    between atoms: C_7  and  C_5 
REMARK    4  A    between atoms: C_8  and  C_6 
REMARK    5  A    between atoms: C_9  and  C_7 
REMARK    6  A    between atoms: C_10  and  C_8 
REMARK    7  A    between atoms: C_11  and  C_9 
REMARK    8  A    between atoms: C_12  and  C_10 
REMARK    9  A    between atoms: C_13  and  C_11 
REMARK   10  A    between atoms: C_14  and  C_12 
REMARK   11  A    between atoms: C_15  and  C_13 
REMARK   12  A    between atoms: C_16  and  C_14 
REMARK   13  A    between atoms: C_17  and  C_15 
REMARK   14  A    between atoms: C_19  and  C_16 
REMARK   15  A    between atoms: C_20  and  C_18 
REMARK   16  A    between atoms: C_21  and  C_19 
REMARK   17  A    between atoms: C_22  and  C_20 
REMARK   18  A    between atoms: C_23  and  C_21 
REMARK   19  A    between atoms: C_24  and  C_22 
REMARK   20  A    between atoms: C_25  and  C_23 
REMARK   21  A    between atoms: C_26  and  C_24 
REMARK   22  A    between atoms: C_27  and  C_25 
REMARK   23  A    between atoms: C_28  and  C_26 
REMARK   24  A    between atoms: C_29  and  C_27 
REMARK   25  A    between atoms: C_30  and  C_28 
REMARK   26  A    between atoms: C_31  and  C_29 
REMARK   27  A    between atoms: C_32  and  C_30 
REMARK   28  A    between atoms: C_36  and  C_31 
REMARK   29  A    between atoms: C_37  and  C_32 
REMARK   30  A    between atoms: C_35  and  C_33 
REMARK   31  A    between atoms: O_53  and  C_33 
REMARK   32  A    between atoms: C_35  and  C_34 
REMARK   33  A    between atoms: O_54  and  C_34 
REMARK   34  A    between atoms: C_35  and  O_55 
REMARK   35  A    between atoms: O_53  and  C_36 
REMARK   36  A    between atoms: O_55  and  C_37 
REMARK   37  A    between atoms: C_38  and  O_46 
REMARK   38  A    between atoms: C_41  and  O_49 
REMARK   39  A    between atoms: C_42  and  O_50 
REMARK   40  A    between atoms: C_43  and  O_56 
REMARK   41  A    between atoms: P_57  and  O_54 
REMARK   42  A    between atoms: P_57  and  O_56 
ROOT
HETATM    1  C   UNK N   1      35.018  13.439  10.703  0.00  0.00     0.180 C 
HETATM    2  C   UNK N   1      34.381  12.968   9.382  0.00  0.00     0.180 C 
HETATM    3  C   UNK N   1      34.590  14.876  11.056  0.00  0.00     0.180 C 
HETATM    4  C   UNK N   1      34.745  13.939   8.243  0.00  0.00     0.181 C 
HETATM    5  C   UNK N   1      34.952  15.827   9.902  0.00  0.00     0.181 C 
HETATM    6  C   UNK N   1      34.301  15.384   8.570  0.00  0.00     0.197 C 
HETATM    7  O   UNK N   1      32.990  12.880   9.512  0.00  0.00    -0.390 OA
HETATM    8  O   UNK N   1      33.215  14.929  11.311  0.00  0.00    -0.390 OA
HETATM    9  H   UNK N   1      32.039  12.871   9.707  0.00  0.00     0.210 HD
HETATM   10  H   UNK N   1      32.264  15.045  11.463  0.00  0.00     0.210 HD
ENDROOT
BRANCH   1  11
HETATM   11  O   UNK N   1      34.678  12.568  11.742  0.00  0.00    -0.390 OA
HETATM   12  H   UNK N   1      33.759  12.335  11.949  0.00  0.00     0.210 HD
ENDBRANCH   1  11
BRANCH   4  13
HETATM   13  O   UNK N   1      34.161  13.505   7.051  0.00  0.00    -0.390 OA
HETATM   14  H   UNK N   1      34.673  13.169   6.299  0.00  0.00     0.210 HD
ENDBRANCH   4  13
BRANCH   6  15
HETATM   15  O   UNK N   1      34.746  16.249   7.543  0.00  0.00    -0.279 OA
BRANCH  15  16
HETATM   16  P   UNK N   1      33.418  17.179   6.863  0.00  0.00     0.408 P 
HETATM   17  O   UNK N   1      33.780  17.895   5.323  0.00  0.00    -0.624 OA
HETATM   18  O   UNK N   1      33.245  18.380   7.832  0.00  0.00    -0.624 OA
BRANCH  16  19
HETATM   19  O   UNK N   1      31.868  16.371   6.880  0.00  0.00    -0.287 OA
BRANCH  19  20
HETATM   20  C   UNK N   1      30.877  17.359   6.855  0.00  0.00     0.216 C 
BRANCH  20  21
HETATM   21  C   UNK N   1      29.643  16.877   6.094  0.00  0.00     0.180 C 
BRANCH  21  22
HETATM   22  C   UNK N   1      30.038  15.656   5.258  0.00  0.00     0.213 C 
BRANCH  22  23
HETATM   23  O   UNK N   1      29.232  14.556   5.448  0.00  0.00    -0.319 OA
BRANCH  23  24
HETATM   24  C   UNK N   1      28.511  14.021   4.436  0.00  0.00     0.258 C 
HETATM   25  O   UNK N   1      28.603  14.497   3.317  0.00  0.00    -0.265 OA
BRANCH  24  26
HETATM   26  C   UNK N   1      27.555  12.892   4.667  0.00  0.00     0.111 C 
BRANCH  26  27
HETATM   27  C   UNK N   1      26.193  13.392   5.158  0.00  0.00     0.010 C 
BRANCH  27  28
HETATM   28  C   UNK N   1      26.270  14.288   6.401  0.00  0.00     0.000 C 
BRANCH  28  29
HETATM   29  C   UNK N   1      25.168  15.344   6.485  0.00  0.00     0.000 C 
BRANCH  29  30
HETATM   30  C   UNK N   1      23.782  14.752   6.311  0.00  0.00     0.000 C 
BRANCH  30  31
HETATM   31  C   UNK N   1      22.773  15.828   5.934  0.00  0.00     0.000 C 
BRANCH  31  32
HETATM   32  C   UNK N   1      21.620  15.844   6.929  0.00  0.00     0.000 C 
BRANCH  32  33
HETATM   33  C   UNK N   1      21.656  14.652   7.879  0.00  0.00     0.000 C 
BRANCH  33  34
HETATM   34  C   UNK N   1      21.291  15.056   9.296  0.00  0.00     0.000 C 
BRANCH  34  35
HETATM   35  C   UNK N   1      20.357  14.021   9.889  0.00  0.00     0.000 C 
BRANCH  35  36
HETATM   36  C   UNK N   1      20.940  12.636   9.695  0.00  0.00     0.000 C 
BRANCH  36  37
HETATM   37  C   UNK N   1      21.742  12.227  10.920  0.00  0.00     0.000 C 
BRANCH  37  38
HETATM   38  C   UNK N   1      23.031  11.532  10.513  0.00  0.00    -0.000 C 
BRANCH  38  39
HETATM   39  C   UNK N   1      24.226  12.442  10.729  0.00  0.00    -0.005 C 
HETATM   40  C   UNK N   1      24.746  12.917   9.389  0.00  0.00     0.005 C 
ENDBRANCH  38  39
ENDBRANCH  37  38
ENDBRANCH  36  37
ENDBRANCH  35  36
ENDBRANCH  34  35
ENDBRANCH  33  34
ENDBRANCH  32  33
ENDBRANCH  31  32
ENDBRANCH  30  31
ENDBRANCH  29  30
ENDBRANCH  28  29
ENDBRANCH  27  28
ENDBRANCH  26  27
ENDBRANCH  24  26
ENDBRANCH  23  24
ENDBRANCH  22  23
ENDBRANCH  21  22
BRANCH  21  41
HETATM   41  O   UNK N   1      29.201  17.910   5.289  0.00  0.00    -0.312 OA
BRANCH  41  42
HETATM   42  C   UNK N   1      28.242  18.809   5.634  0.00  0.00     0.259 C 
HETATM   43  O   UNK N   1      27.461  18.579   6.547  0.00  0.00    -0.265 OA
BRANCH  42  44
HETATM   44  C   UNK N   1      28.152  20.103   4.902  0.00  0.00     0.111 C 
BRANCH  44  45
HETATM   45  C   UNK N   1      26.685  20.445   4.673  0.00  0.00     0.010 C 
BRANCH  45  46
HETATM   46  C   UNK N   1      26.153  19.880   3.359  0.00  0.00     0.000 C 
BRANCH  46  47
HETATM   47  C   UNK N   1      24.782  19.238   3.508  0.00  0.00     0.000 C 
BRANCH  47  48
HETATM   48  C   UNK N   1      24.958  17.778   3.896  0.00  0.00     0.000 C 
BRANCH  48  49
HETATM   49  C   UNK N   1      26.141  17.149   3.184  0.00  0.00     0.004 C 
BRANCH  49  50
HETATM   50  C   UNK N   1      25.706  15.905   2.414  0.00  0.00     0.027 C 
BRANCH  50  51
HETATM   51  C   UNK N   1      24.330  15.384   2.754  0.00  0.00    -0.031 C 
HETATM   52  C   UNK N   1      23.830  14.233   2.278  0.00  0.00    -0.031 C 
BRANCH  52  53
HETATM   53  C   UNK N   1      22.434  13.820   2.618  0.00  0.00     0.027 C 
BRANCH  53  54
HETATM   54  C   UNK N   1      22.363  12.303   2.743  0.00  0.00     0.004 C 
BRANCH  54  55
HETATM   55  C   UNK N   1      23.356  11.796   3.778  0.00  0.00     0.000 C 
BRANCH  55  56
HETATM   56  C   UNK N   1      22.658  10.845   4.733  0.00  0.00     0.000 C 
BRANCH  56  57
HETATM   57  C   UNK N   1      22.024  11.613   5.878  0.00  0.00     0.000 C 
BRANCH  57  58
HETATM   58  C   UNK N   1      20.511  11.482   5.835  0.00  0.00    -0.000 C 
BRANCH  58  59
HETATM   59  C   UNK N   1      19.880  12.814   5.473  0.00  0.00    -0.005 C 
HETATM   60  C   UNK N   1      18.972  12.664   4.266  0.00  0.00     0.005 C 
ENDBRANCH  58  59
ENDBRANCH  57  58
ENDBRANCH  56  57
ENDBRANCH  55  56
ENDBRANCH  54  55
ENDBRANCH  53  54
ENDBRANCH  52  53
ENDBRANCH  50  51
ENDBRANCH  49  50
ENDBRANCH  48  49
ENDBRANCH  47  48
ENDBRANCH  46  47
ENDBRANCH  45  46
ENDBRANCH  44  45
ENDBRANCH  42  44
ENDBRANCH  41  42
ENDBRANCH  21  41
ENDBRANCH  20  21
ENDBRANCH  19  20
ENDBRANCH  16  19
ENDBRANCH  15  16
ENDBRANCH   6  15
BRANCH   5  61
HETATM   61  O   UNK N   1      34.553  17.121  10.238  0.00  0.00    -0.390 OA
HETATM   62  H   UNK N   1      34.024  17.698   9.664  0.00  0.00     0.210 HD
ENDBRANCH   5  61
TORSDOF 42
ENDMDL
MODEL 7
REMARK VINA RESULT:      -5.7      7.389     12.105
REMARK WARNING: 32 MAX_TORS EXCEEDED!!!
REMARK  42 active torsions:
REMARK  status: ('A' for Active; 'I' for Inactive)
REMARK    1  A    between atoms: C_5  and  C_3 
REMARK    2  A    between atoms: C_6  and  C_4 
REMARK    3  A    between atoms: C_7  and  C_5 
REMARK    4  A    between atoms: C_8  and  C_6 
REMARK    5  A    between atoms: C_9  and  C_7 
REMARK    6  A    between atoms: C_10  and  C_8 
REMARK    7  A    between atoms: C_11  and  C_9 
REMARK    8  A    between atoms: C_12  and  C_10 
REMARK    9  A    between atoms: C_13  and  C_11 
REMARK   10  A    between atoms: C_14  and  C_12 
REMARK   11  A    between atoms: C_15  and  C_13 
REMARK   12  A    between atoms: C_16  and  C_14 
REMARK   13  A    between atoms: C_17  and  C_15 
REMARK   14  A    between atoms: C_19  and  C_16 
REMARK   15  A    between atoms: C_20  and  C_18 
REMARK   16  A    between atoms: C_21  and  C_19 
REMARK   17  A    between atoms: C_22  and  C_20 
REMARK   18  A    between atoms: C_23  and  C_21 
REMARK   19  A    between atoms: C_24  and  C_22 
REMARK   20  A    between atoms: C_25  and  C_23 
REMARK   21  A    between atoms: C_26  and  C_24 
REMARK   22  A    between atoms: C_27  and  C_25 
REMARK   23  A    between atoms: C_28  and  C_26 
REMARK   24  A    between atoms: C_29  and  C_27 
REMARK   25  A    between atoms: C_30  and  C_28 
REMARK   26  A    between atoms: C_31  and  C_29 
REMARK   27  A    between atoms: C_32  and  C_30 
REMARK   28  A    between atoms: C_36  and  C_31 
REMARK   29  A    between atoms: C_37  and  C_32 
REMARK   30  A    between atoms: C_35  and  C_33 
REMARK   31  A    between atoms: O_53  and  C_33 
REMARK   32  A    between atoms: C_35  and  C_34 
REMARK   33  A    between atoms: O_54  and  C_34 
REMARK   34  A    between atoms: C_35  and  O_55 
REMARK   35  A    between atoms: O_53  and  C_36 
REMARK   36  A    between atoms: O_55  and  C_37 
REMARK   37  A    between atoms: C_38  and  O_46 
REMARK   38  A    between atoms: C_41  and  O_49 
REMARK   39  A    between atoms: C_42  and  O_50 
REMARK   40  A    between atoms: C_43  and  O_56 
REMARK   41  A    between atoms: P_57  and  O_54 
REMARK   42  A    between atoms: P_57  and  O_56 
ROOT
HETATM    1  C   UNK N   1      35.984  11.638  15.744  0.00  0.00     0.180 C 
HETATM    2  C   UNK N   1      36.862  12.800  15.239  0.00  0.00     0.180 C 
HETATM    3  C   UNK N   1      35.376  10.842  14.574  0.00  0.00     0.180 C 
HETATM    4  C   UNK N   1      36.041  13.724  14.321  0.00  0.00     0.181 C 
HETATM    5  C   UNK N   1      34.569  11.784  13.664  0.00  0.00     0.181 C 
HETATM    6  C   UNK N   1      35.441  12.945  13.127  0.00  0.00     0.197 C 
HETATM    7  O   UNK N   1      37.979  12.308  14.553  0.00  0.00    -0.390 OA
HETATM    8  O   UNK N   1      36.382  10.205  13.839  0.00  0.00    -0.390 OA
HETATM    9  H   UNK N   1      38.702  11.862  14.085  0.00  0.00     0.210 HD
HETATM   10  H   UNK N   1      37.029   9.767  13.264  0.00  0.00     0.210 HD
ENDROOT
BRANCH   1  11
HETATM   11  O   UNK N   1      36.731  10.790  16.566  0.00  0.00    -0.390 OA
HETATM   12  H   UNK N   1      36.338  10.298  17.303  0.00  0.00     0.210 HD
ENDBRANCH   1  11
BRANCH   4  13
HETATM   13  O   UNK N   1      36.846  14.771  13.868  0.00  0.00    -0.390 OA
HETATM   14  H   UNK N   1      36.493  15.626  13.575  0.00  0.00     0.210 HD
ENDBRANCH   4  13
BRANCH   6  15
HETATM   15  O   UNK N   1      34.618  13.814  12.373  0.00  0.00    -0.279 OA
BRANCH  15  16
HETATM   16  P   UNK N   1      35.099  13.852  10.683  0.00  0.00     0.408 P 
HETATM   17  O   UNK N   1      35.383  12.281   9.999  0.00  0.00    -0.624 OA
HETATM   18  O   UNK N   1      36.488  14.544  10.687  0.00  0.00    -0.624 OA
BRANCH  16  19
HETATM   19  O   UNK N   1      34.106  14.860   9.657  0.00  0.00    -0.287 OA
BRANCH  19  20
HETATM   20  C   UNK N   1      33.510  14.031   8.700  0.00  0.00     0.216 C 
BRANCH  20  21
HETATM   21  C   UNK N   1      33.953  14.417   7.289  0.00  0.00     0.180 C 
BRANCH  21  22
HETATM   22  C   UNK N   1      35.041  15.488   7.403  0.00  0.00     0.213 C 
BRANCH  22  23
HETATM   23  O   UNK N   1      34.636  16.750   7.025  0.00  0.00    -0.319 OA
BRANCH  23  24
HETATM   24  C   UNK N   1      34.259  17.678   7.934  0.00  0.00     0.258 C 
HETATM   25  O   UNK N   1      35.029  17.990   8.826  0.00  0.00    -0.265 OA
BRANCH  24  26
HETATM   26  C   UNK N   1      32.894  18.291   7.907  0.00  0.00     0.111 C 
BRANCH  26  27
HETATM   27  C   UNK N   1      31.865  17.421   8.636  0.00  0.00     0.010 C 
BRANCH  27  28
HETATM   28  C   UNK N   1      30.409  17.764   8.296  0.00  0.00     0.000 C 
BRANCH  28  29
HETATM   29  C   UNK N   1      29.449  17.685   9.484  0.00  0.00     0.000 C 
BRANCH  29  30
HETATM   30  C   UNK N   1      27.995  17.634   9.054  0.00  0.00     0.000 C 
BRANCH  30  31
HETATM   31  C   UNK N   1      27.857  17.004   7.676  0.00  0.00     0.000 C 
BRANCH  31  32
HETATM   32  C   UNK N   1      26.805  15.902   7.700  0.00  0.00     0.000 C 
BRANCH  32  33
HETATM   33  C   UNK N   1      26.464  15.395   6.303  0.00  0.00     0.000 C 
BRANCH  33  34
HETATM   34  C   UNK N   1      25.778  16.466   5.473  0.00  0.00     0.000 C 
BRANCH  34  35
HETATM   35  C   UNK N   1      25.292  15.859   4.173  0.00  0.00     0.000 C 
BRANCH  35  36
HETATM   36  C   UNK N   1      25.947  16.566   3.003  0.00  0.00     0.000 C 
BRANCH  36  37
HETATM   37  C   UNK N   1      26.086  15.616   1.825  0.00  0.00     0.000 C 
BRANCH  37  38
HETATM   38  C   UNK N   1      25.157  14.423   1.982  0.00  0.00    -0.000 C 
BRANCH  38  39
HETATM   39  C   UNK N   1      24.158  14.364   0.842  0.00  0.00    -0.005 C 
HETATM   40  C   UNK N   1      22.753  14.459   1.398  0.00  0.00     0.005 C 
ENDBRANCH  38  39
ENDBRANCH  37  38
ENDBRANCH  36  37
ENDBRANCH  35  36
ENDBRANCH  34  35
ENDBRANCH  33  34
ENDBRANCH  32  33
ENDBRANCH  31  32
ENDBRANCH  30  31
ENDBRANCH  29  30
ENDBRANCH  28  29
ENDBRANCH  27  28
ENDBRANCH  26  27
ENDBRANCH  24  26
ENDBRANCH  23  24
ENDBRANCH  22  23
ENDBRANCH  21  22
BRANCH  21  41
HETATM   41  O   UNK N   1      32.851  14.897   6.607  0.00  0.00    -0.312 OA
BRANCH  41  42
HETATM   42  C   UNK N   1      32.395  14.408   5.424  0.00  0.00     0.259 C 
HETATM   43  O   UNK N   1      33.161  14.190   4.495  0.00  0.00    -0.265 OA
BRANCH  42  44
HETATM   44  C   UNK N   1      30.944  14.113   5.262  0.00  0.00     0.111 C 
BRANCH  44  45
HETATM   45  C   UNK N   1      30.147  15.388   5.508  0.00  0.00     0.010 C 
BRANCH  45  46
HETATM   46  C   UNK N   1      30.417  16.457   4.453  0.00  0.00     0.000 C 
BRANCH  46  47
HETATM   47  C   UNK N   1      29.200  17.325   4.172  0.00  0.00     0.000 C 
BRANCH  47  48
HETATM   48  C   UNK N   1      29.362  18.654   4.892  0.00  0.00     0.000 C 
BRANCH  48  49
HETATM   49  C   UNK N   1      28.019  19.257   5.262  0.00  0.00     0.004 C 
BRANCH  49  50
HETATM   50  C   UNK N   1      27.478  20.110   4.118  0.00  0.00     0.027 C 
BRANCH  50  51
HETATM   51  C   UNK N   1      25.976  20.095   3.956  0.00  0.00    -0.031 C 
HETATM   52  C   UNK N   1      25.347  20.412   2.813  0.00  0.00    -0.031 C 
BRANCH  52  53
HETATM   53  C   UNK N   1      23.853  20.427   2.755  0.00  0.00     0.027 C 
BRANCH  53  54
HETATM   54  C   UNK N   1      23.293  19.338   3.661  0.00  0.00     0.004 C 
BRANCH  54  55
HETATM   55  C   UNK N   1      21.772  19.321   3.615  0.00  0.00     0.000 C 
BRANCH  55  56
HETATM   56  C   UNK N   1      21.232  18.569   4.818  0.00  0.00     0.000 C 
BRANCH  56  57
HETATM   57  C   UNK N   1      22.349  17.825   5.524  0.00  0.00     0.000 C 
BRANCH  57  58
HETATM   58  C   UNK N   1      21.783  16.842   6.533  0.00  0.00    -0.000 C 
BRANCH  58  59
HETATM   59  C   UNK N   1      21.039  15.729   5.819  0.00  0.00    -0.005 C 
HETATM   60  C   UNK N   1      22.012  14.704   5.266  0.00  0.00     0.005 C 
ENDBRANCH  58  59
ENDBRANCH  57  58
ENDBRANCH  56  57
ENDBRANCH  55  56
ENDBRANCH  54  55
ENDBRANCH  53  54
ENDBRANCH  52  53
ENDBRANCH  50  51
ENDBRANCH  49  50
ENDBRANCH  48  49
ENDBRANCH  47  48
ENDBRANCH  46  47
ENDBRANCH  45  46
ENDBRANCH  44  45
ENDBRANCH  42  44
ENDBRANCH  41  42
ENDBRANCH  21  41
ENDBRANCH  20  21
ENDBRANCH  19  20
ENDBRANCH  16  19
ENDBRANCH  15  16
ENDBRANCH   6  15
BRANCH   5  61
HETATM   61  O   UNK N   1      34.031  11.046  12.610  0.00  0.00    -0.390 OA
HETATM   62  H   UNK N   1      34.445  10.257  12.224  0.00  0.00     0.210 HD
ENDBRANCH   5  61
TORSDOF 42
ENDMDL
MODEL 8
REMARK VINA RESULT:      -5.7      1.838      3.781
REMARK WARNING: 32 MAX_TORS EXCEEDED!!!
REMARK  42 active torsions:
REMARK  status: ('A' for Active; 'I' for Inactive)
REMARK    1  A    between atoms: C_5  and  C_3 
REMARK    2  A    between atoms: C_6  and  C_4 
REMARK    3  A    between atoms: C_7  and  C_5 
REMARK    4  A    between atoms: C_8  and  C_6 
REMARK    5  A    between atoms: C_9  and  C_7 
REMARK    6  A    between atoms: C_10  and  C_8 
REMARK    7  A    between atoms: C_11  and  C_9 
REMARK    8  A    between atoms: C_12  and  C_10 
REMARK    9  A    between atoms: C_13  and  C_11 
REMARK   10  A    between atoms: C_14  and  C_12 
REMARK   11  A    between atoms: C_15  and  C_13 
REMARK   12  A    between atoms: C_16  and  C_14 
REMARK   13  A    between atoms: C_17  and  C_15 
REMARK   14  A    between atoms: C_19  and  C_16 
REMARK   15  A    between atoms: C_20  and  C_18 
REMARK   16  A    between atoms: C_21  and  C_19 
REMARK   17  A    between atoms: C_22  and  C_20 
REMARK   18  A    between atoms: C_23  and  C_21 
REMARK   19  A    between atoms: C_24  and  C_22 
REMARK   20  A    between atoms: C_25  and  C_23 
REMARK   21  A    between atoms: C_26  and  C_24 
REMARK   22  A    between atoms: C_27  and  C_25 
REMARK   23  A    between atoms: C_28  and  C_26 
REMARK   24  A    between atoms: C_29  and  C_27 
REMARK   25  A    between atoms: C_30  and  C_28 
REMARK   26  A    between atoms: C_31  and  C_29 
REMARK   27  A    between atoms: C_32  and  C_30 
REMARK   28  A    between atoms: C_36  and  C_31 
REMARK   29  A    between atoms: C_37  and  C_32 
REMARK   30  A    between atoms: C_35  and  C_33 
REMARK   31  A    between atoms: O_53  and  C_33 
REMARK   32  A    between atoms: C_35  and  C_34 
REMARK   33  A    between atoms: O_54  and  C_34 
REMARK   34  A    between atoms: C_35  and  O_55 
REMARK   35  A    between atoms: O_53  and  C_36 
REMARK   36  A    between atoms: O_55  and  C_37 
REMARK   37  A    between atoms: C_38  and  O_46 
REMARK   38  A    between atoms: C_41  and  O_49 
REMARK   39  A    between atoms: C_42  and  O_50 
REMARK   40  A    between atoms: C_43  and  O_56 
REMARK   41  A    between atoms: P_57  and  O_54 
REMARK   42  A    between atoms: P_57  and  O_56 
ROOT
HETATM    1  C   UNK N   1      23.303  11.607   9.020  0.00  0.00     0.180 C 
HETATM    2  C   UNK N   1      22.317  12.338   9.953  0.00  0.00     0.180 C 
HETATM    3  C   UNK N   1      23.691  12.482   7.814  0.00  0.00     0.180 C 
HETATM    4  C   UNK N   1      21.065  12.768   9.167  0.00  0.00     0.181 C 
HETATM    5  C   UNK N   1      22.426  12.909   7.049  0.00  0.00     0.181 C 
HETATM    6  C   UNK N   1      21.434  13.668   7.964  0.00  0.00     0.197 C 
HETATM    7  O   UNK N   1      22.929  13.456  10.533  0.00  0.00    -0.390 OA
HETATM    8  O   UNK N   1      24.405  13.609   8.234  0.00  0.00    -0.390 OA
HETATM    9  H   UNK N   1      23.442  14.211  10.862  0.00  0.00     0.210 HD
HETATM   10  H   UNK N   1      24.871  14.430   8.459  0.00  0.00     0.210 HD
ENDROOT
BRANCH   1  11
HETATM   11  O   UNK N   1      24.447  11.228   9.727  0.00  0.00    -0.390 OA
HETATM   12  H   UNK N   1      24.419  10.612  10.476  0.00  0.00     0.210 HD
ENDBRANCH   1  11
BRANCH   4  13
HETATM   13  O   UNK N   1      20.180  13.431  10.021  0.00  0.00    -0.390 OA
HETATM   14  H   UNK N   1      19.498  12.976  10.539  0.00  0.00     0.210 HD
ENDBRANCH   4  13
BRANCH   6  15
HETATM   15  O   UNK N   1      20.264  13.951   7.222  0.00  0.00    -0.279 OA
BRANCH  15  16
HETATM   16  P   UNK N   1      19.929  15.676   7.181  0.00  0.00     0.408 P 
HETATM   17  O   UNK N   1      21.344  16.669   7.354  0.00  0.00    -0.624 OA
HETATM   18  O   UNK N   1      19.094  15.943   8.462  0.00  0.00    -0.624 OA
BRANCH  16  19
HETATM   19  O   UNK N   1      18.902  16.196   5.867  0.00  0.00    -0.287 OA
BRANCH  19  20
HETATM   20  C   UNK N   1      19.155  15.357   4.776  0.00  0.00     0.216 C 
BRANCH  20  21
HETATM   21  C   UNK N   1      19.808  16.129   3.630  0.00  0.00     0.180 C 
BRANCH  21  22
HETATM   22  C   UNK N   1      21.247  15.631   3.473  0.00  0.00     0.213 C 
BRANCH  22  23
HETATM   23  O   UNK N   1      21.377  14.521   2.667  0.00  0.00    -0.319 OA
BRANCH  23  24
HETATM   24  C   UNK N   1      21.690  14.629   1.355  0.00  0.00     0.258 C 
HETATM   25  O   UNK N   1      21.224  15.547   0.701  0.00  0.00    -0.265 OA
BRANCH  24  26
HETATM   26  C   UNK N   1      22.549  13.613   0.670  0.00  0.00     0.111 C 
BRANCH  26  27
HETATM   27  C   UNK N   1      23.980  14.122   0.467  0.00  0.00     0.010 C 
BRANCH  27  28
HETATM   28  C   UNK N   1      24.740  14.381   1.774  0.00  0.00     0.000 C 
BRANCH  28  29
HETATM   29  C   UNK N   1      25.931  15.329   1.633  0.00  0.00     0.000 C 
BRANCH  29  30
HETATM   30  C   UNK N   1      26.018  16.325   2.774  0.00  0.00     0.000 C 
BRANCH  30  31
HETATM   31  C   UNK N   1      25.276  15.814   4.001  0.00  0.00     0.000 C 
BRANCH  31  32
HETATM   32  C   UNK N   1      26.255  15.216   5.003  0.00  0.00     0.000 C 
BRANCH  32  33
HETATM   33  C   UNK N   1      26.100  13.705   5.133  0.00  0.00     0.000 C 
BRANCH  33  34
HETATM   34  C   UNK N   1      27.439  12.996   5.032  0.00  0.00     0.000 C 
BRANCH  34  35
HETATM   35  C   UNK N   1      28.535  14.020   4.818  0.00  0.00     0.000 C 
BRANCH  35  36
HETATM   36  C   UNK N   1      29.775  13.336   4.280  0.00  0.00     0.000 C 
BRANCH  36  37
HETATM   37  C   UNK N   1      30.228  14.005   2.992  0.00  0.00     0.000 C 
BRANCH  37  38
HETATM   38  C   UNK N   1      29.140  13.928   1.933  0.00  0.00    -0.000 C 
BRANCH  38  39
HETATM   39  C   UNK N   1      28.873  12.487   1.539  0.00  0.00    -0.005 C 
HETATM   40  C   UNK N   1      29.558  12.191   0.222  0.00  0.00     0.005 C 
ENDBRANCH  38  39
ENDBRANCH  37  38
ENDBRANCH  36  37
ENDBRANCH  35  36
ENDBRANCH  34  35
ENDBRANCH  33  34
ENDBRANCH  32  33
ENDBRANCH  31  32
ENDBRANCH  30  31
ENDBRANCH  29  30
ENDBRANCH  28  29
ENDBRANCH  27  28
ENDBRANCH  26  27
ENDBRANCH  24  26
ENDBRANCH  23  24
ENDBRANCH  22  23
ENDBRANCH  21  22
BRANCH  21  41
HETATM   41  O   UNK N   1      19.778  17.475   3.944  0.00  0.00    -0.312 OA
BRANCH  41  42
HETATM   42  C   UNK N   1      20.438  18.447   3.263  0.00  0.00     0.259 C 
HETATM   43  O   UNK N   1      20.258  18.610   2.064  0.00  0.00    -0.265 OA
BRANCH  42  44
HETATM   44  C   UNK N   1      21.380  19.343   3.991  0.00  0.00     0.111 C 
BRANCH  44  45
HETATM   45  C   UNK N   1      22.475  19.797   3.033  0.00  0.00     0.010 C 
BRANCH  45  46
HETATM   46  C   UNK N   1      23.873  19.618   3.619  0.00  0.00     0.000 C 
BRANCH  46  47
HETATM   47  C   UNK N   1      24.935  20.385   2.848  0.00  0.00     0.000 C 
BRANCH  47  48
HETATM   48  C   UNK N   1      26.309  19.975   3.354  0.00  0.00     0.000 C 
BRANCH  48  49
HETATM   49  C   UNK N   1      26.420  20.132   4.860  0.00  0.00     0.004 C 
BRANCH  49  50
HETATM   50  C   UNK N   1      26.845  18.817   5.507  0.00  0.00     0.027 C 
BRANCH  50  51
HETATM   51  C   UNK N   1      28.269  18.393   5.233  0.00  0.00    -0.031 C 
HETATM   52  C   UNK N   1      28.988  17.618   6.059  0.00  0.00    -0.031 C 
BRANCH  52  53
HETATM   53  C   UNK N   1      30.412  17.294   5.739  0.00  0.00     0.027 C 
BRANCH  53  54
HETATM   54  C   UNK N   1      30.603  17.257   4.228  0.00  0.00     0.004 C 
BRANCH  54  55
HETATM   55  C   UNK N   1      32.076  17.371   3.864  0.00  0.00     0.000 C 
BRANCH  55  56
HETATM   56  C   UNK N   1      32.903  17.541   5.125  0.00  0.00     0.000 C 
BRANCH  56  57
HETATM   57  C   UNK N   1      33.848  16.367   5.303  0.00  0.00     0.000 C 
BRANCH  57  58
HETATM   58  C   UNK N   1      34.396  16.331   6.719  0.00  0.00    -0.000 C 
BRANCH  58  59
HETATM   59  C   UNK N   1      33.609  17.274   7.609  0.00  0.00    -0.005 C 
HETATM   60  C   UNK N   1      34.505  18.374   8.147  0.00  0.00     0.005 C 
ENDBRANCH  58  59
ENDBRANCH  57  58
ENDBRANCH  56  57
ENDBRANCH  55  56
ENDBRANCH  54  55
ENDBRANCH  53  54
ENDBRANCH  52  53
ENDBRANCH  50  51
ENDBRANCH  49  50
ENDBRANCH  48  49
ENDBRANCH  47  48
ENDBRANCH  46  47
ENDBRANCH  45  46
ENDBRANCH  44  45
ENDBRANCH  42  44
ENDBRANCH  41  42
ENDBRANCH  21  41
ENDBRANCH  20  21
ENDBRANCH  19  20
ENDBRANCH  16  19
ENDBRANCH  15  16
ENDBRANCH   6  15
BRANCH   5  61
HETATM   61  O   UNK N   1      22.798  13.703   5.964  0.00  0.00    -0.390 OA
HETATM   62  H   UNK N   1      22.461  13.590   5.061  0.00  0.00     0.210 HD
ENDBRANCH   5  61
TORSDOF 42
ENDMDL
MODEL 9
REMARK VINA RESULT:      -5.7      7.156     11.479
REMARK WARNING: 32 MAX_TORS EXCEEDED!!!
REMARK  42 active torsions:
REMARK  status: ('A' for Active; 'I' for Inactive)
REMARK    1  A    between atoms: C_5  and  C_3 
REMARK    2  A    between atoms: C_6  and  C_4 
REMARK    3  A    between atoms: C_7  and  C_5 
REMARK    4  A    between atoms: C_8  and  C_6 
REMARK    5  A    between atoms: C_9  and  C_7 
REMARK    6  A    between atoms: C_10  and  C_8 
REMARK    7  A    between atoms: C_11  and  C_9 
REMARK    8  A    between atoms: C_12  and  C_10 
REMARK    9  A    between atoms: C_13  and  C_11 
REMARK   10  A    between atoms: C_14  and  C_12 
REMARK   11  A    between atoms: C_15  and  C_13 
REMARK   12  A    between atoms: C_16  and  C_14 
REMARK   13  A    between atoms: C_17  and  C_15 
REMARK   14  A    between atoms: C_19  and  C_16 
REMARK   15  A    between atoms: C_20  and  C_18 
REMARK   16  A    between atoms: C_21  and  C_19 
REMARK   17  A    between atoms: C_22  and  C_20 
REMARK   18  A    between atoms: C_23  and  C_21 
REMARK   19  A    between atoms: C_24  and  C_22 
REMARK   20  A    between atoms: C_25  and  C_23 
REMARK   21  A    between atoms: C_26  and  C_24 
REMARK   22  A    between atoms: C_27  and  C_25 
REMARK   23  A    between atoms: C_28  and  C_26 
REMARK   24  A    between atoms: C_29  and  C_27 
REMARK   25  A    between atoms: C_30  and  C_28 
REMARK   26  A    between atoms: C_31  and  C_29 
REMARK   27  A    between atoms: C_32  and  C_30 
REMARK   28  A    between atoms: C_36  and  C_31 
REMARK   29  A    between atoms: C_37  and  C_32 
REMARK   30  A    between atoms: C_35  and  C_33 
REMARK   31  A    between atoms: O_53  and  C_33 
REMARK   32  A    between atoms: C_35  and  C_34 
REMARK   33  A    between atoms: O_54  and  C_34 
REMARK   34  A    between atoms: C_35  and  O_55 
REMARK   35  A    between atoms: O_53  and  C_36 
REMARK   36  A    between atoms: O_55  and  C_37 
REMARK   37  A    between atoms: C_38  and  O_46 
REMARK   38  A    between atoms: C_41  and  O_49 
REMARK   39  A    between atoms: C_42  and  O_50 
REMARK   40  A    between atoms: C_43  and  O_56 
REMARK   41  A    between atoms: P_57  and  O_54 
REMARK   42  A    between atoms: P_57  and  O_56 
ROOT
HETATM    1  C   UNK N   1      36.013  11.478  15.426  0.00  0.00     0.180 C 
HETATM    2  C   UNK N   1      36.870  12.707  15.061  0.00  0.00     0.180 C 
HETATM    3  C   UNK N   1      35.398  10.827  14.173  0.00  0.00     0.180 C 
HETATM    4  C   UNK N   1      36.023  13.727  14.276  0.00  0.00     0.181 C 
HETATM    5  C   UNK N   1      34.567  11.865  13.399  0.00  0.00     0.181 C 
HETATM    6  C   UNK N   1      35.416  13.096  13.001  0.00  0.00     0.197 C 
HETATM    7  O   UNK N   1      37.982  12.321  14.303  0.00  0.00    -0.390 OA
HETATM    8  O   UNK N   1      36.401  10.301  13.351  0.00  0.00    -0.390 OA
HETATM    9  H   UNK N   1      38.704  11.947  13.774  0.00  0.00     0.210 HD
HETATM   10  H   UNK N   1      37.045   9.949  12.717  0.00  0.00     0.210 HD
ENDROOT
BRANCH   1  11
HETATM   11  O   UNK N   1      36.782  10.544  16.125  0.00  0.00    -0.390 OA
HETATM   12  H   UNK N   1      37.597  10.783  16.593  0.00  0.00     0.210 HD
ENDBRANCH   1  11
BRANCH   4  13
HETATM   13  O   UNK N   1      36.809  14.834  13.948  0.00  0.00    -0.390 OA
HETATM   14  H   UNK N   1      37.476  14.823  13.244  0.00  0.00     0.210 HD
ENDBRANCH   4  13
BRANCH   6  15
HETATM   15  O   UNK N   1      34.572  14.041  12.374  0.00  0.00    -0.279 OA
BRANCH  15  16
HETATM   16  P   UNK N   1      35.056  14.332  10.709  0.00  0.00     0.408 P 
HETATM   17  O   UNK N   1      34.854  12.956   9.670  0.00  0.00    -0.624 OA
HETATM   18  O   UNK N   1      36.590  14.557  10.781  0.00  0.00    -0.624 OA
BRANCH  16  19
HETATM   19  O   UNK N   1      34.425  15.802  10.005  0.00  0.00    -0.287 OA
BRANCH  19  20
HETATM   20  C   UNK N   1      33.161  15.511   9.481  0.00  0.00     0.216 C 
BRANCH  20  21
HETATM   21  C   UNK N   1      32.694  16.613   8.531  0.00  0.00     0.180 C 
BRANCH  21  22
HETATM   22  C   UNK N   1      31.166  16.567   8.455  0.00  0.00     0.213 C 
BRANCH  22  23
HETATM   23  O   UNK N   1      30.557  17.797   8.576  0.00  0.00    -0.319 OA
BRANCH  23  24
HETATM   24  C   UNK N   1      29.219  17.944   8.439  0.00  0.00     0.258 C 
HETATM   25  O   UNK N   1      28.506  17.898   9.427  0.00  0.00    -0.265 OA
BRANCH  24  26
HETATM   26  C   UNK N   1      28.584  18.105   7.093  0.00  0.00     0.111 C 
BRANCH  26  27
HETATM   27  C   UNK N   1      27.849  19.443   6.967  0.00  0.00     0.010 C 
BRANCH  27  28
HETATM   28  C   UNK N   1      27.736  19.957   5.526  0.00  0.00     0.000 C 
BRANCH  28  29
HETATM   29  C   UNK N   1      27.710  18.856   4.465  0.00  0.00     0.000 C 
BRANCH  29  30
HETATM   30  C   UNK N   1      26.415  18.839   3.676  0.00  0.00     0.000 C 
BRANCH  30  31
HETATM   31  C   UNK N   1      25.357  18.003   4.381  0.00  0.00     0.000 C 
BRANCH  31  32
HETATM   32  C   UNK N   1      24.057  18.786   4.504  0.00  0.00     0.000 C 
BRANCH  32  33
HETATM   33  C   UNK N   1      22.985  18.015   5.267  0.00  0.00     0.000 C 
BRANCH  33  34
HETATM   34  C   UNK N   1      21.898  17.504   4.340  0.00  0.00     0.000 C 
BRANCH  34  35
HETATM   35  C   UNK N   1      20.712  17.042   5.162  0.00  0.00     0.000 C 
BRANCH  35  36
HETATM   36  C   UNK N   1      19.665  16.433   4.251  0.00  0.00     0.000 C 
BRANCH  36  37
HETATM   37  C   UNK N   1      19.975  14.966   4.002  0.00  0.00     0.000 C 
BRANCH  37  38
HETATM   38  C   UNK N   1      19.598  14.570   2.584  0.00  0.00    -0.000 C 
BRANCH  38  39
HETATM   39  C   UNK N   1      20.565  15.171   1.581  0.00  0.00    -0.005 C 
HETATM   40  C   UNK N   1      21.218  14.062   0.783  0.00  0.00     0.005 C 
ENDBRANCH  38  39
ENDBRANCH  37  38
ENDBRANCH  36  37
ENDBRANCH  35  36
ENDBRANCH  34  35
ENDBRANCH  33  34
ENDBRANCH  32  33
ENDBRANCH  31  32
ENDBRANCH  30  31
ENDBRANCH  29  30
ENDBRANCH  28  29
ENDBRANCH  27  28
ENDBRANCH  26  27
ENDBRANCH  24  26
ENDBRANCH  23  24
ENDBRANCH  22  23
ENDBRANCH  21  22
BRANCH  21  41
HETATM   41  O   UNK N   1      33.262  16.383   7.292  0.00  0.00    -0.312 OA
BRANCH  41  42
HETATM   42  C   UNK N   1      33.794  17.343   6.491  0.00  0.00     0.259 C 
HETATM   43  O   UNK N   1      34.520  18.215   6.948  0.00  0.00    -0.265 OA
BRANCH  42  44
HETATM   44  C   UNK N   1      33.507  17.321   5.029  0.00  0.00     0.111 C 
BRANCH  44  45
HETATM   45  C   UNK N   1      32.017  17.556   4.811  0.00  0.00     0.010 C 
BRANCH  45  46
HETATM   46  C   UNK N   1      31.426  16.614   3.766  0.00  0.00     0.000 C 
BRANCH  46  47
HETATM   47  C   UNK N   1      31.914  15.183   3.921  0.00  0.00     0.000 C 
BRANCH  47  48
HETATM   48  C   UNK N   1      31.210  14.544   5.108  0.00  0.00     0.000 C 
BRANCH  48  49
HETATM   49  C   UNK N   1      29.846  14.000   4.722  0.00  0.00     0.004 C 
BRANCH  49  50
HETATM   50  C   UNK N   1      28.738  14.929   5.212  0.00  0.00     0.027 C 
BRANCH  50  51
HETATM   51  C   UNK N   1      27.603  15.148   4.240  0.00  0.00    -0.031 C 
HETATM   52  C   UNK N   1      27.764  15.203   2.908  0.00  0.00    -0.031 C 
BRANCH  52  53
HETATM   53  C   UNK N   1      26.594  15.483   2.019  0.00  0.00     0.027 C 
BRANCH  53  54
HETATM   54  C   UNK N   1      25.524  14.419   2.230  0.00  0.00     0.004 C 
BRANCH  54  55
HETATM   55  C   UNK N   1      24.184  15.056   2.567  0.00  0.00     0.000 C 
BRANCH  55  56
HETATM   56  C   UNK N   1      23.529  14.297   3.706  0.00  0.00     0.000 C 
BRANCH  56  57
HETATM   57  C   UNK N   1      24.520  13.346   4.350  0.00  0.00     0.000 C 
BRANCH  57  58
HETATM   58  C   UNK N   1      24.152  13.090   5.801  0.00  0.00    -0.000 C 
BRANCH  58  59
HETATM   59  C   UNK N   1      25.243  13.613   6.718  0.00  0.00    -0.005 C 
HETATM   60  C   UNK N   1      25.178  15.125   6.817  0.00  0.00     0.005 C 
ENDBRANCH  58  59
ENDBRANCH  57  58
ENDBRANCH  56  57
ENDBRANCH  55  56
ENDBRANCH  54  55
ENDBRANCH  53  54
ENDBRANCH  52  53
ENDBRANCH  50  51
ENDBRANCH  49  50
ENDBRANCH  48  49
ENDBRANCH  47  48
ENDBRANCH  46  47
ENDBRANCH  45  46
ENDBRANCH  44  45
ENDBRANCH  42  44
ENDBRANCH  41  42
ENDBRANCH  21  41
ENDBRANCH  20  21
ENDBRANCH  19  20
ENDBRANCH  16  19
ENDBRANCH  15  16
ENDBRANCH   6  15
BRANCH   5  61
HETATM   61  O   UNK N   1      34.022  11.258  12.267  0.00  0.00    -0.390 OA
HETATM   62  H   UNK N   1      33.325  11.648  11.717  0.00  0.00     0.210 HD
ENDBRANCH   5  61
TORSDOF 42
ENDMDL
