REMARK  11 active torsions:
REMARK  status: ('A' for Active; 'I' for Inactive)
REMARK    1  A    between atoms: C_2  and  C_3 
REMARK    2  A    between atoms: C_3  and  O_4 
REMARK    3  A    between atoms: C_5  and  C_6 
REMARK    4  A    between atoms: C_7  and  C_8 
REMARK    5  A    between atoms: C_10  and  C_11 
REMARK    6  A    between atoms: C_12  and  C_13 
REMARK    7  A    between atoms: C_14  and  C_16 
REMARK    8  A    between atoms: C_17  and  C_18 
REMARK    9  A    between atoms: C_19  and  C_21 
REMARK   10  A    between atoms: C_22  and  C_23 
REMARK   11  A    between atoms: C_27  and  O_28 
ROOT
HETATM    1  C   UNK N   1       5.365   2.640   0.710  0.00  0.00     0.007 C 
HETATM    2  C   UNK N   1       4.132   3.088   0.963  0.00  0.00     0.001 C 
ENDROOT
BRANCH   1   3
HETATM    3  C   UNK N   1       6.387   3.308  -0.132  0.00  0.00    -0.062 C 
HETATM    4  C   UNK N   1       7.308   2.597  -0.805  0.00  0.00     0.007 C 
HETATM    5  C   UNK N   1       6.419   4.796  -0.266  0.00  0.00     0.048 C 
BRANCH   4   6
HETATM    6  C   UNK N   1       7.440   1.116  -0.845  0.00  0.00     0.001 C 
HETATM    7  C   UNK N   1       6.700   0.275  -0.114  0.00  0.00     0.001 C 
BRANCH   7   8
HETATM    8  C   UNK N   1       6.846  -1.196  -0.165  0.00  0.00     0.007 C 
HETATM    9  C   UNK N   1       7.974  -1.939  -0.187  0.00  0.00    -0.062 C 
HETATM   10  C   UNK N   1       7.808  -3.414  -0.307  0.00  0.00     0.048 C 
BRANCH   9  11
HETATM   11  C   UNK N   1       9.367  -1.430  -0.078  0.00  0.00     0.007 C 
HETATM   12  C   UNK N   1       9.697  -0.180   0.252  0.00  0.00     0.001 C 
BRANCH  12  13
HETATM   13  C   UNK N   1      11.083   0.341   0.316  0.00  0.00     0.004 C 
HETATM   14  C   UNK N   1      12.226  -0.349   0.174  0.00  0.00    -0.061 C 
HETATM   15  C   UNK N   1      12.244  -1.832  -0.057  0.00  0.00     0.045 C 
BRANCH  14  16
HETATM   16  C   UNK N   1      13.514   0.415   0.259  0.00  0.00     0.198 C 
BRANCH  16  17
HETATM   17  O   UNK N   1      14.620  -0.420   0.091  0.00  0.00    -0.397 OA
HETATM   18  H   UNK N   1      14.502  -1.375  -0.026  0.00  0.00     0.209 HD
ENDBRANCH  16  17
ENDBRANCH  14  16
ENDBRANCH  12  13
ENDBRANCH   9  11
ENDBRANCH   7   8
ENDBRANCH   4   6
ENDBRANCH   1   3
BRANCH   2  19
HETATM   19  C   UNK N   1       3.566   4.315   0.380  0.00  0.00     0.007 C 
HETATM   20  C   UNK N   1       2.305   4.407  -0.081  0.00  0.00    -0.062 C 
HETATM   21  C   UNK N   1       1.849   5.726  -0.596  0.00  0.00     0.048 C 
BRANCH  20  22
HETATM   22  C   UNK N   1       1.343   3.272  -0.152  0.00  0.00     0.007 C 
HETATM   23  C   UNK N   1       1.677   1.987   0.022  0.00  0.00     0.009 C 
BRANCH  23  24
HETATM   24  C   UNK N   1       0.705   0.859  -0.035  0.00  0.00    -0.048 C 
HETATM   25  C   UNK N   1       1.172  -0.416   0.081  0.00  0.00    -0.074 C 
HETATM   26  C   UNK N   1       2.639  -0.690   0.227  0.00  0.00     0.044 C 
HETATM   27  C   UNK N   1       0.252  -1.607   0.082  0.00  0.00     0.066 C 
HETATM   28  C   UNK N   1      -1.142  -1.238   0.561  0.00  0.00     0.123 C 
HETATM   29  C   UNK N   1      -1.648  -0.129  -0.334  0.00  0.00     0.045 C 
HETATM   30  C   UNK N   1      -0.802   1.138  -0.186  0.00  0.00    -0.018 C 
HETATM   31  C   UNK N   1      -1.293   1.908   1.030  0.00  0.00     0.020 C 
HETATM   32  C   UNK N   1      -1.068   1.969  -1.429  0.00  0.00     0.020 C 
BRANCH  28  33
HETATM   33  O   UNK N   1      -1.980  -2.346   0.448  0.00  0.00    -0.395 OA
HETATM   34  H   UNK N   1      -2.939  -2.227   0.370  0.00  0.00     0.210 HD
ENDBRANCH  28  33
ENDBRANCH  23  24
ENDBRANCH  20  22
ENDBRANCH   2  19
TORSDOF 11
