MODEL 1
REMARK VINA RESULT:      -8.1      0.000      0.000
REMARK  17 active torsions:
REMARK  status: ('A' for Active; 'I' for Inactive)
REMARK    1  A    between atoms: N_1  and  C_2 
REMARK    2  A    between atoms: C_8  and  N_7 
REMARK    3  A    between atoms: C_10  and  C_11 
REMARK    4  A    between atoms: C_11  and  O_12 
REMARK    5  A    between atoms: P_13  and  O_12 
REMARK    6  A    between atoms: P_13  and  O_14 
REMARK    7  A    between atoms: P_13  and  O_16 
REMARK    8  A    between atoms: P_17  and  O_16 
REMARK    9  A    between atoms: P_17  and  O_18 
REMARK   10  A    between atoms: P_17  and  O_20 
REMARK   11  A    between atoms: O_20  and  C_21 
REMARK   12  A    between atoms: C_22  and  C_21 
REMARK   13  A    between atoms: C_24  and  O_25 
REMARK   14  A    between atoms: C_26  and  O_27 
REMARK   15  A    between atoms: C_28  and  O_29 
REMARK   16  A    between atoms: C_30  and  O_31 
REMARK   17  A    between atoms: C_32  and  O_33 
ROOT
HETATM    1  C   UNK N   1      27.864  17.136   6.884  0.00  0.00     0.262 C 
HETATM    2  O   UNK N   1      28.987  16.412   6.436  0.00  0.00    -0.353 OA
HETATM    3  C   UNK N   1      30.091  16.888   7.177  0.00  0.00     0.180 C 
HETATM    4  C   UNK N   1      29.675  18.113   7.957  0.00  0.00     0.182 C 
HETATM    5  C   UNK N   1      28.278  17.694   8.236  0.00  0.00     0.198 C 
ENDROOT
BRANCH   3   6
HETATM    6  C   UNK N   1      31.276  17.114   6.254  0.00  0.00     0.215 C 
BRANCH   6   7
HETATM    7  O   UNK N   1      32.341  16.279   6.618  0.00  0.00    -0.294 OA
BRANCH   7   8
HETATM    8  P   UNK N   1      33.824  17.006   6.026  0.00  0.00     0.401 P 
HETATM    9  O   UNK N   1      33.473  17.899   4.806  0.00  0.00    -0.631 OA
BRANCH   8  10
HETATM   10  O   UNK N   1      34.992  15.834   5.496  0.00  0.00    -0.307 OA
HETATM   11  H   UNK N   1      35.526  15.301   4.888  0.00  0.00     0.222 HD
ENDBRANCH   8  10
BRANCH   8  12
HETATM   12  O   UNK N   1      34.548  18.050   7.212  0.00  0.00    -0.195 OA
BRANCH  12  13
HETATM   13  P   UNK N   1      34.504  17.175   8.717  0.00  0.00     0.401 P 
HETATM   14  O   UNK N   1      35.389  17.967   9.716  0.00  0.00    -0.631 OA
BRANCH  13  15
HETATM   15  O   UNK N   1      32.907  17.203   9.393  0.00  0.00    -0.307 OA
HETATM   16  H   UNK N   1      32.162  17.410   9.979  0.00  0.00     0.222 HD
ENDBRANCH  13  15
BRANCH  13  17
HETATM   17  O   UNK N   1      35.082  15.526   8.606  0.00  0.00    -0.294 OA
BRANCH  17  18
HETATM   18  C   UNK N   1      34.329  14.726   9.477  0.00  0.00     0.215 C 
BRANCH  18  19
HETATM   19  C   UNK N   1      34.876  14.755  10.911  0.00  0.00     0.180 C 
HETATM   20  O   UNK N   1      34.176  13.868  11.756  0.00  0.00    -0.349 OA
HETATM   21  C   UNK N   1      35.150  13.277  12.589  0.00  0.00     0.288 C 
HETATM   22  C   UNK N   1      36.420  14.077  12.448  0.00  0.00     0.204 C 
HETATM   23  C   UNK N   1      36.347  14.413  11.005  0.00  0.00     0.182 C 
BRANCH  21  24
HETATM   24  O   UNK N   1      34.725  13.298  13.917  0.00  0.00    -0.369 OA
HETATM   25  H   UNK N   1      34.506  12.468  14.369  0.00  0.00     0.212 HD
ENDBRANCH  21  24
BRANCH  22  26
HETATM   26  O   UNK N   1      37.541  13.297  12.736  0.00  0.00    -0.388 OA
HETATM   27  H   UNK N   1      37.874  12.635  13.360  0.00  0.00     0.210 HD
ENDBRANCH  22  26
BRANCH  23  28
HETATM   28  O   UNK N   1      37.150  15.512  10.697  0.00  0.00    -0.390 OA
HETATM   29  H   UNK N   1      37.076  16.466  10.851  0.00  0.00     0.210 HD
ENDBRANCH  23  28
ENDBRANCH  18  19
ENDBRANCH  17  18
ENDBRANCH  13  17
ENDBRANCH  12  13
ENDBRANCH   8  12
ENDBRANCH   7   8
ENDBRANCH   6   7
ENDBRANCH   3   6
BRANCH   4  30
HETATM   30  O   UNK N   1      30.410  18.209   9.139  0.00  0.00    -0.390 OA
HETATM   31  H   UNK N   1      31.330  18.515   9.163  0.00  0.00     0.210 HD
ENDBRANCH   4  30
BRANCH   1  32
HETATM   32  N   UNK N   1      27.454  18.075   5.819  0.00  0.00    -0.297 N 
HETATM   33  C   UNK N   1      28.360  18.837   5.145  0.00  0.00     0.188 A 
HETATM   34  N   UNK N   1      27.771  19.605   4.191  0.00  0.00    -0.346 N 
HETATM   35  C   UNK N   1      26.467  19.295   4.274  0.00  0.00     0.122 A 
ATOM     36  HN  UNK N   1      28.217  20.267   3.556  1.00  0.00     0.167 HD
HETATM   37  C   UNK N   1      25.405  19.752   3.511  0.00  0.00     0.131 A 
HETATM   38  C   UNK N   1      26.269  18.387   5.253  0.00  0.00     0.142 A 
HETATM   39  N   UNK N   1      24.164  19.254   3.779  0.00  0.00    -0.337 N 
HETATM   40  C   UNK N   1      23.977  18.332   4.781  0.00  0.00     0.183 A 
ATOM     41  HN  UNK N   1      23.364  19.569   3.229  1.00  0.00     0.168 HD
HETATM   42  N   UNK N   1      25.038  17.894   5.527  0.00  0.00    -0.336 N 
ATOM     43  HN  UNK N   1      24.903  17.211   6.272  1.00  0.00     0.168 HD
BRANCH  37  44
HETATM   44  N   UNK N   1      25.596  20.689   2.475  0.00  0.00    -0.383 N 
HETATM   45  H   UNK N   1      25.007  20.690   1.686  0.00  0.00     0.157 HD
HETATM   46  H   UNK N   1      26.325  21.347   2.540  0.00  0.00     0.157 HD
ENDBRANCH  37  44
ENDBRANCH   1  32
BRANCH   5  47
HETATM   47  O   UNK N   1      27.462  18.681   8.782  0.00  0.00    -0.388 OA
HETATM   48  H   UNK N   1      26.754  19.076   8.249  0.00  0.00     0.210 HD
ENDBRANCH   5  47
TORSDOF 17
ENDMDL
MODEL 2
REMARK VINA RESULT:      -7.8      5.602     10.231
REMARK  17 active torsions:
REMARK  status: ('A' for Active; 'I' for Inactive)
REMARK    1  A    between atoms: N_1  and  C_2 
REMARK    2  A    between atoms: C_8  and  N_7 
REMARK    3  A    between atoms: C_10  and  C_11 
REMARK    4  A    between atoms: C_11  and  O_12 
REMARK    5  A    between atoms: P_13  and  O_12 
REMARK    6  A    between atoms: P_13  and  O_14 
REMARK    7  A    between atoms: P_13  and  O_16 
REMARK    8  A    between atoms: P_17  and  O_16 
REMARK    9  A    between atoms: P_17  and  O_18 
REMARK   10  A    between atoms: P_17  and  O_20 
REMARK   11  A    between atoms: O_20  and  C_21 
REMARK   12  A    between atoms: C_22  and  C_21 
REMARK   13  A    between atoms: C_24  and  O_25 
REMARK   14  A    between atoms: C_26  and  O_27 
REMARK   15  A    between atoms: C_28  and  O_29 
REMARK   16  A    between atoms: C_30  and  O_31 
REMARK   17  A    between atoms: C_32  and  O_33 
ROOT
HETATM    1  C   UNK N   1      36.353  14.166  11.956  0.00  0.00     0.262 C 
HETATM    2  O   UNK N   1      36.398  15.568  11.824  0.00  0.00    -0.353 OA
HETATM    3  C   UNK N   1      35.145  15.961  11.305  0.00  0.00     0.180 C 
HETATM    4  C   UNK N   1      34.373  14.732  10.886  0.00  0.00     0.182 C 
HETATM    5  C   UNK N   1      34.872  13.824  11.949  0.00  0.00     0.198 C 
ENDROOT
BRANCH   3   6
HETATM    6  C   UNK N   1      35.341  16.978  10.193  0.00  0.00     0.215 C 
BRANCH   6   7
HETATM    7  O   UNK N   1      34.698  16.548   9.024  0.00  0.00    -0.294 OA
BRANCH   7   8
HETATM    8  P   UNK N   1      34.234  17.971   8.109  0.00  0.00     0.401 P 
HETATM    9  O   UNK N   1      35.240  19.108   8.437  0.00  0.00    -0.631 OA
BRANCH   8  10
HETATM   10  O   UNK N   1      32.645  18.549   8.507  0.00  0.00    -0.307 OA
HETATM   11  H   UNK N   1      31.753  18.905   8.375  0.00  0.00     0.222 HD
ENDBRANCH   8  10
BRANCH   8  12
HETATM   12  O   UNK N   1      34.339  17.698   6.396  0.00  0.00    -0.195 OA
BRANCH  12  13
HETATM   13  P   UNK N   1      33.059  16.583   6.005  0.00  0.00     0.401 P 
HETATM   14  O   UNK N   1      33.671  15.522   5.053  0.00  0.00    -0.631 OA
BRANCH  13  15
HETATM   15  O   UNK N   1      32.563  15.705   7.417  0.00  0.00    -0.307 OA
HETATM   16  H   UNK N   1      32.397  14.971   8.030  0.00  0.00     0.222 HD
ENDBRANCH  13  15
BRANCH  13  17
HETATM   17  O   UNK N   1      31.670  17.324   5.239  0.00  0.00    -0.294 OA
BRANCH  17  18
HETATM   18  C   UNK N   1      30.505  16.817   5.832  0.00  0.00     0.215 C 
BRANCH  18  19
HETATM   19  C   UNK N   1      29.830  17.842   6.756  0.00  0.00     0.180 C 
HETATM   20  O   UNK N   1      28.725  18.460   6.133  0.00  0.00    -0.349 OA
HETATM   21  C   UNK N   1      27.734  18.577   7.130  0.00  0.00     0.288 C 
HETATM   22  C   UNK N   1      28.390  18.312   8.462  0.00  0.00     0.204 C 
HETATM   23  C   UNK N   1      29.349  17.252   8.064  0.00  0.00     0.182 C 
BRANCH  21  24
HETATM   24  O   UNK N   1      27.190  19.860   7.120  0.00  0.00    -0.369 OA
HETATM   25  H   UNK N   1      27.773  20.635   7.122  0.00  0.00     0.212 HD
ENDBRANCH  21  24
BRANCH  22  26
HETATM   26  O   UNK N   1      27.465  17.841   9.394  0.00  0.00    -0.388 OA
HETATM   27  H   UNK N   1      26.528  17.613   9.497  0.00  0.00     0.210 HD
ENDBRANCH  22  26
BRANCH  23  28
HETATM   28  O   UNK N   1      30.388  17.134   8.987  0.00  0.00    -0.390 OA
HETATM   29  H   UNK N   1      31.355  17.113   8.915  0.00  0.00     0.210 HD
ENDBRANCH  23  28
ENDBRANCH  18  19
ENDBRANCH  17  18
ENDBRANCH  13  17
ENDBRANCH  12  13
ENDBRANCH   8  12
ENDBRANCH   7   8
ENDBRANCH   6   7
ENDBRANCH   3   6
BRANCH   4  30
HETATM   30  O   UNK N   1      33.001  14.951  11.022  0.00  0.00    -0.390 OA
HETATM   31  H   UNK N   1      32.342  14.524  10.453  0.00  0.00     0.210 HD
ENDBRANCH   4  30
BRANCH   1  32
HETATM   32  N   UNK N   1      37.228  13.568  10.925  0.00  0.00    -0.297 N 
HETATM   33  C   UNK N   1      37.841  14.328   9.975  0.00  0.00     0.188 A 
HETATM   34  N   UNK N   1      38.620  13.580   9.149  0.00  0.00    -0.346 N 
HETATM   35  C   UNK N   1      38.489  12.328   9.613  0.00  0.00     0.122 A 
ATOM     36  HN  UNK N   1      39.177  13.898   8.356  1.00  0.00     0.167 HD
HETATM   37  C   UNK N   1      39.092  11.160   9.175  0.00  0.00     0.131 A 
HETATM   38  C   UNK N   1      37.649  12.312  10.671  0.00  0.00     0.142 A 
HETATM   39  N   UNK N   1      38.812  10.005   9.845  0.00  0.00    -0.337 N 
HETATM   40  C   UNK N   1      37.953  10.004  10.917  0.00  0.00     0.183 A 
ATOM     41  HN  UNK N   1      39.246   9.131   9.547  1.00  0.00     0.168 HD
HETATM   42  N   UNK N   1      37.364  11.167  11.335  0.00  0.00    -0.336 N 
ATOM     43  HN  UNK N   1      36.725  11.170  12.130  1.00  0.00     0.168 HD
BRANCH  37  44
HETATM   44  N   UNK N   1      39.983  11.160   8.083  0.00  0.00    -0.383 N 
HETATM   45  H   UNK N   1      40.844  10.687   8.138  0.00  0.00     0.157 HD
HETATM   46  H   UNK N   1      39.741  11.639   7.256  0.00  0.00     0.157 HD
ENDBRANCH  37  44
ENDBRANCH   1  32
BRANCH   5  47
HETATM   47  O   UNK N   1      34.539  12.482  11.787  0.00  0.00    -0.388 OA
HETATM   48  H   UNK N   1      33.674  12.157  12.079  0.00  0.00     0.210 HD
ENDBRANCH   5  47
TORSDOF 17
ENDMDL
MODEL 3
REMARK VINA RESULT:      -7.5      6.462     11.809
REMARK  17 active torsions:
REMARK  status: ('A' for Active; 'I' for Inactive)
REMARK    1  A    between atoms: N_1  and  C_2 
REMARK    2  A    between atoms: C_8  and  N_7 
REMARK    3  A    between atoms: C_10  and  C_11 
REMARK    4  A    between atoms: C_11  and  O_12 
REMARK    5  A    between atoms: P_13  and  O_12 
REMARK    6  A    between atoms: P_13  and  O_14 
REMARK    7  A    between atoms: P_13  and  O_16 
REMARK    8  A    between atoms: P_17  and  O_16 
REMARK    9  A    between atoms: P_17  and  O_18 
REMARK   10  A    between atoms: P_17  and  O_20 
REMARK   11  A    between atoms: O_20  and  C_21 
REMARK   12  A    between atoms: C_22  and  C_21 
REMARK   13  A    between atoms: C_24  and  O_25 
REMARK   14  A    between atoms: C_26  and  O_27 
REMARK   15  A    between atoms: C_28  and  O_29 
REMARK   16  A    between atoms: C_30  and  O_31 
REMARK   17  A    between atoms: C_32  and  O_33 
ROOT
HETATM    1  C   UNK N   1      35.313  11.393  14.170  0.00  0.00     0.262 C 
HETATM    2  O   UNK N   1      34.604  12.231  13.287  0.00  0.00    -0.353 OA
HETATM    3  C   UNK N   1      35.572  12.895  12.502  0.00  0.00     0.180 C 
HETATM    4  C   UNK N   1      36.944  12.627  13.073  0.00  0.00     0.182 C 
HETATM    5  C   UNK N   1      36.688  11.240  13.538  0.00  0.00     0.198 C 
ENDROOT
BRANCH   3   6
HETATM    6  C   UNK N   1      35.226  14.370  12.390  0.00  0.00     0.215 C 
BRANCH   6   7
HETATM    7  O   UNK N   1      34.214  14.560  11.438  0.00  0.00    -0.294 OA
BRANCH   7   8
HETATM    8  P   UNK N   1      34.871  15.543  10.141  0.00  0.00     0.401 P 
HETATM    9  O   UNK N   1      36.405  15.658  10.349  0.00  0.00    -0.631 OA
BRANCH   8  10
HETATM   10  O   UNK N   1      34.225  17.155  10.114  0.00  0.00    -0.307 OA
HETATM   11  H   UNK N   1      33.790  17.949   9.769  0.00  0.00     0.222 HD
ENDBRANCH   8  10
BRANCH   8  12
HETATM   12  O   UNK N   1      34.637  14.799   8.588  0.00  0.00    -0.195 OA
BRANCH  12  13
HETATM   13  P   UNK N   1      32.918  14.590   8.407  0.00  0.00     0.401 P 
HETATM   14  O   UNK N   1      32.683  14.082   6.959  0.00  0.00    -0.631 OA
BRANCH  13  15
HETATM   15  O   UNK N   1      32.346  13.318   9.439  0.00  0.00    -0.307 OA
HETATM   16  H   UNK N   1      32.333  12.526   9.999  0.00  0.00     0.222 HD
ENDBRANCH  13  15
BRANCH  13  17
HETATM   17  O   UNK N   1      31.985  16.047   8.673  0.00  0.00    -0.294 OA
BRANCH  17  18
HETATM   18  C   UNK N   1      31.582  16.557   7.431  0.00  0.00     0.215 C 
BRANCH  18  19
HETATM   19  C   UNK N   1      30.378  17.503   7.554  0.00  0.00     0.180 C 
HETATM   20  O   UNK N   1      29.379  17.204   6.603  0.00  0.00    -0.349 OA
HETATM   21  C   UNK N   1      28.148  17.356   7.275  0.00  0.00     0.288 C 
HETATM   22  C   UNK N   1      28.418  18.078   8.571  0.00  0.00     0.204 C 
HETATM   23  C   UNK N   1      29.730  17.482   8.922  0.00  0.00     0.182 C 
BRANCH  21  24
HETATM   24  O   UNK N   1      27.263  18.102   6.496  0.00  0.00    -0.369 OA
HETATM   25  H   UNK N   1      26.521  17.664   6.052  0.00  0.00     0.212 HD
ENDBRANCH  21  24
BRANCH  22  26
HETATM   26  O   UNK N   1      27.447  17.777   9.526  0.00  0.00    -0.388 OA
HETATM   27  H   UNK N   1      27.329  17.613  10.475  0.00  0.00     0.210 HD
ENDBRANCH  22  26
BRANCH  23  28
HETATM   28  O   UNK N   1      30.425  18.280   9.831  0.00  0.00    -0.390 OA
HETATM   29  H   UNK N   1      30.495  18.296  10.797  0.00  0.00     0.210 HD
ENDBRANCH  23  28
ENDBRANCH  18  19
ENDBRANCH  17  18
ENDBRANCH  13  17
ENDBRANCH  12  13
ENDBRANCH   8  12
ENDBRANCH   7   8
ENDBRANCH   6   7
ENDBRANCH   3   6
BRANCH   4  30
HETATM   30  O   UNK N   1      37.904  12.641  12.059  0.00  0.00    -0.390 OA
HETATM   31  H   UNK N   1      37.716  12.350  11.153  0.00  0.00     0.210 HD
ENDBRANCH   4  30
BRANCH   1  32
HETATM   32  N   UNK N   1      35.213  11.955  15.534  0.00  0.00    -0.297 N 
HETATM   33  C   UNK N   1      34.618  13.156  15.774  0.00  0.00     0.188 A 
HETATM   34  N   UNK N   1      34.610  13.465  17.098  0.00  0.00    -0.346 N 
HETATM   35  C   UNK N   1      35.206  12.417  17.687  0.00  0.00     0.122 A 
ATOM     36  HN  UNK N   1      34.236  14.303  17.543  1.00  0.00     0.167 HD
HETATM   37  C   UNK N   1      35.435  12.178  19.032  0.00  0.00     0.131 A 
HETATM   38  C   UNK N   1      35.578  11.513  16.755  0.00  0.00     0.142 A 
HETATM   39  N   UNK N   1      36.042  11.006  19.379  0.00  0.00    -0.337 N 
HETATM   40  C   UNK N   1      36.418  10.097  18.420  0.00  0.00     0.183 A 
ATOM     41  HN  UNK N   1      36.218  10.801  20.363  1.00  0.00     0.168 HD
HETATM   42  N   UNK N   1      36.186  10.351  17.095  0.00  0.00    -0.336 N 
ATOM     43  HN  UNK N   1      36.465   9.680  16.379  1.00  0.00     0.168 HD
BRANCH  37  44
HETATM   44  N   UNK N   1      35.040  13.103  20.019  0.00  0.00    -0.383 N 
HETATM   45  H   UNK N   1      35.050  14.069  19.832  0.00  0.00     0.157 HD
HETATM   46  H   UNK N   1      34.751  12.780  20.903  0.00  0.00     0.157 HD
ENDBRANCH  37  44
ENDBRANCH   1  32
BRANCH   5  47
HETATM   47  O   UNK N   1      37.686  10.689  14.336  0.00  0.00    -0.388 OA
HETATM   48  H   UNK N   1      38.453  11.224  14.593  0.00  0.00     0.210 HD
ENDBRANCH   5  47
TORSDOF 17
ENDMDL
MODEL 4
REMARK VINA RESULT:      -7.5      9.905     13.373
REMARK  17 active torsions:
REMARK  status: ('A' for Active; 'I' for Inactive)
REMARK    1  A    between atoms: N_1  and  C_2 
REMARK    2  A    between atoms: C_8  and  N_7 
REMARK    3  A    between atoms: C_10  and  C_11 
REMARK    4  A    between atoms: C_11  and  O_12 
REMARK    5  A    between atoms: P_13  and  O_12 
REMARK    6  A    between atoms: P_13  and  O_14 
REMARK    7  A    between atoms: P_13  and  O_16 
REMARK    8  A    between atoms: P_17  and  O_16 
REMARK    9  A    between atoms: P_17  and  O_18 
REMARK   10  A    between atoms: P_17  and  O_20 
REMARK   11  A    between atoms: O_20  and  C_21 
REMARK   12  A    between atoms: C_22  and  C_21 
REMARK   13  A    between atoms: C_24  and  O_25 
REMARK   14  A    between atoms: C_26  and  O_27 
REMARK   15  A    between atoms: C_28  and  O_29 
REMARK   16  A    between atoms: C_30  and  O_31 
REMARK   17  A    between atoms: C_32  and  O_33 
ROOT
HETATM    1  C   UNK N   1      21.656  15.130   7.606  0.00  0.00     0.262 C 
HETATM    2  O   UNK N   1      22.552  14.598   6.658  0.00  0.00    -0.353 OA
HETATM    3  C   UNK N   1      21.761  14.030   5.635  0.00  0.00     0.180 C 
HETATM    4  C   UNK N   1      20.317  14.009   6.077  0.00  0.00     0.182 C 
HETATM    5  C   UNK N   1      20.340  15.273   6.857  0.00  0.00     0.198 C 
ENDROOT
BRANCH   3   6
HETATM    6  C   UNK N   1      22.310  12.665   5.253  0.00  0.00     0.215 C 
BRANCH   6   7
HETATM    7  O   UNK N   1      21.873  12.308   3.971  0.00  0.00    -0.294 OA
BRANCH   7   8
HETATM    8  P   UNK N   1      23.090  12.832   2.820  0.00  0.00     0.401 P 
HETATM    9  O   UNK N   1      22.821  12.115   1.470  0.00  0.00    -0.631 OA
BRANCH   8  10
HETATM   10  O   UNK N   1      24.708  12.432   3.311  0.00  0.00    -0.307 OA
HETATM   11  H   UNK N   1      25.648  12.554   3.511  0.00  0.00     0.222 HD
ENDBRANCH   8  10
BRANCH   8  12
HETATM   12  O   UNK N   1      22.986  14.537   2.504  0.00  0.00    -0.195 OA
BRANCH  12  13
HETATM   13  P   UNK N   1      21.335  14.843   2.041  0.00  0.00     0.401 P 
HETATM   14  O   UNK N   1      21.372  15.357   0.577  0.00  0.00    -0.631 OA
BRANCH  13  15
HETATM   15  O   UNK N   1      20.433  13.362   1.986  0.00  0.00    -0.307 OA
HETATM   16  H   UNK N   1      19.700  12.738   1.864  0.00  0.00     0.222 HD
ENDBRANCH  13  15
BRANCH  13  17
HETATM   17  O   UNK N   1      20.511  16.012   3.050  0.00  0.00    -0.294 OA
BRANCH  17  18
HETATM   18  C   UNK N   1      21.425  17.009   3.422  0.00  0.00     0.215 C 
BRANCH  18  19
HETATM   19  C   UNK N   1      20.918  18.418   3.082  0.00  0.00     0.180 C 
HETATM   20  O   UNK N   1      21.900  19.401   3.329  0.00  0.00    -0.349 OA
HETATM   21  C   UNK N   1      21.802  20.322   2.265  0.00  0.00     0.288 C 
HETATM   22  C   UNK N   1      20.510  20.048   1.538  0.00  0.00     0.204 C 
HETATM   23  C   UNK N   1      20.470  18.568   1.644  0.00  0.00     0.182 C 
BRANCH  21  24
HETATM   24  O   UNK N   1      21.799  21.626   2.756  0.00  0.00    -0.369 OA
HETATM   25  H   UNK N   1      21.192  21.874   3.471  0.00  0.00     0.212 HD
ENDBRANCH  21  24
BRANCH  22  26
HETATM   26  O   UNK N   1      20.581  20.464   0.209  0.00  0.00    -0.388 OA
HETATM   27  H   UNK N   1      20.205  20.296  -0.669  0.00  0.00     0.210 HD
ENDBRANCH  22  26
BRANCH  23  28
HETATM   28  O   UNK N   1      19.177  18.079   1.456  0.00  0.00    -0.390 OA
HETATM   29  H   UNK N   1      18.292  18.413   1.667  0.00  0.00     0.210 HD
ENDBRANCH  23  28
ENDBRANCH  18  19
ENDBRANCH  17  18
ENDBRANCH  13  17
ENDBRANCH  12  13
ENDBRANCH   8  12
ENDBRANCH   7   8
ENDBRANCH   6   7
ENDBRANCH   3   6
BRANCH   4  30
HETATM   30  O   UNK N   1      19.470  14.122   4.974  0.00  0.00    -0.390 OA
HETATM   31  H   UNK N   1      18.550  13.815   4.983  0.00  0.00     0.210 HD
ENDBRANCH   4  30
BRANCH   1  32
HETATM   32  N   UNK N   1      21.699  14.288   8.819  0.00  0.00    -0.297 N 
HETATM   33  C   UNK N   1      20.571  13.971   9.514  0.00  0.00     0.188 A 
HETATM   34  N   UNK N   1      20.836  13.164  10.575  0.00  0.00    -0.346 N 
HETATM   35  C   UNK N   1      22.163  12.970  10.522  0.00  0.00     0.122 A 
ATOM     36  HN  UNK N   1      20.177  12.791  11.258  1.00  0.00     0.167 HD
HETATM   37  C   UNK N   1      22.972  12.197  11.338  0.00  0.00     0.131 A 
HETATM   38  C   UNK N   1      22.687  13.648   9.478  0.00  0.00     0.142 A 
HETATM   39  N   UNK N   1      24.305  12.143  11.051  0.00  0.00    -0.337 N 
HETATM   40  C   UNK N   1      24.825  12.839   9.987  0.00  0.00     0.183 A 
ATOM     41  HN  UNK N   1      24.923  11.576  11.632  1.00  0.00     0.168 HD
HETATM   42  N   UNK N   1      24.010  13.601   9.192  0.00  0.00    -0.336 N 
ATOM     43  HN  UNK N   1      24.393  14.121   8.403  1.00  0.00     0.168 HD
BRANCH  37  44
HETATM   44  N   UNK N   1      22.440  11.472  12.423  0.00  0.00    -0.383 N 
HETATM   45  H   UNK N   1      21.479  11.260  12.460  0.00  0.00     0.157 HD
HETATM   46  H   UNK N   1      23.034  11.174  13.150  0.00  0.00     0.157 HD
ENDBRANCH  37  44
ENDBRANCH   1  32
BRANCH   5  47
HETATM   47  O   UNK N   1      19.205  15.516   7.625  0.00  0.00    -0.388 OA
HETATM   48  H   UNK N   1      18.329  15.525   7.209  0.00  0.00     0.210 HD
ENDBRANCH   5  47
TORSDOF 17
ENDMDL
MODEL 5
REMARK VINA RESULT:      -7.4      1.897      2.809
REMARK  17 active torsions:
REMARK  status: ('A' for Active; 'I' for Inactive)
REMARK    1  A    between atoms: N_1  and  C_2 
REMARK    2  A    between atoms: C_8  and  N_7 
REMARK    3  A    between atoms: C_10  and  C_11 
REMARK    4  A    between atoms: C_11  and  O_12 
REMARK    5  A    between atoms: P_13  and  O_12 
REMARK    6  A    between atoms: P_13  and  O_14 
REMARK    7  A    between atoms: P_13  and  O_16 
REMARK    8  A    between atoms: P_17  and  O_16 
REMARK    9  A    between atoms: P_17  and  O_18 
REMARK   10  A    between atoms: P_17  and  O_20 
REMARK   11  A    between atoms: O_20  and  C_21 
REMARK   12  A    between atoms: C_22  and  C_21 
REMARK   13  A    between atoms: C_24  and  O_25 
REMARK   14  A    between atoms: C_26  and  O_27 
REMARK   15  A    between atoms: C_28  and  O_29 
REMARK   16  A    between atoms: C_30  and  O_31 
REMARK   17  A    between atoms: C_32  and  O_33 
ROOT
HETATM    1  C   UNK N   1      28.873  16.363   3.995  0.00  0.00     0.262 C 
HETATM    2  O   UNK N   1      30.253  16.265   4.256  0.00  0.00    -0.353 OA
HETATM    3  C   UNK N   1      30.470  14.974   4.785  0.00  0.00     0.180 C 
HETATM    4  C   UNK N   1      29.136  14.326   5.074  0.00  0.00     0.182 C 
HETATM    5  C   UNK N   1      28.386  14.923   3.941  0.00  0.00     0.198 C 
ENDROOT
BRANCH   3   6
HETATM    6  C   UNK N   1      31.392  15.055   5.990  0.00  0.00     0.215 C 
BRANCH   6   7
HETATM    7  O   UNK N   1      31.885  16.359   6.136  0.00  0.00    -0.294 OA
BRANCH   7   8
HETATM    8  P   UNK N   1      33.582  16.348   5.694  0.00  0.00     0.401 P 
HETATM    9  O   UNK N   1      33.679  16.289   4.145  0.00  0.00    -0.631 OA
BRANCH   8  10
HETATM   10  O   UNK N   1      34.441  14.975   6.323  0.00  0.00    -0.307 OA
HETATM   11  H   UNK N   1      34.952  14.151   6.325  0.00  0.00     0.222 HD
ENDBRANCH   8  10
BRANCH   8  12
HETATM   12  O   UNK N   1      34.386  17.808   6.184  0.00  0.00    -0.195 OA
BRANCH  12  13
HETATM   13  P   UNK N   1      34.258  17.870   7.920  0.00  0.00     0.401 P 
HETATM   14  O   UNK N   1      34.999  19.156   8.374  0.00  0.00    -0.631 OA
BRANCH  13  15
HETATM   15  O   UNK N   1      32.607  18.095   8.403  0.00  0.00    -0.307 OA
HETATM   16  H   UNK N   1      31.767  17.989   8.876  0.00  0.00     0.222 HD
ENDBRANCH  13  15
BRANCH  13  17
HETATM   17  O   UNK N   1      34.941  16.482   8.740  0.00  0.00    -0.294 OA
BRANCH  17  18
HETATM   18  C   UNK N   1      33.995  15.984   9.647  0.00  0.00     0.215 C 
BRANCH  18  19
HETATM   19  C   UNK N   1      34.640  15.501  10.954  0.00  0.00     0.180 C 
HETATM   20  O   UNK N   1      33.959  14.389  11.494  0.00  0.00    -0.349 OA
HETATM   21  C   UNK N   1      34.959  13.525  11.988  0.00  0.00     0.288 C 
HETATM   22  C   UNK N   1      36.253  14.297  12.029  0.00  0.00     0.204 C 
HETATM   23  C   UNK N   1      36.097  15.117  10.803  0.00  0.00     0.182 C 
BRANCH  21  24
HETATM   24  O   UNK N   1      34.629  13.091  13.271  0.00  0.00    -0.369 OA
HETATM   25  H   UNK N   1      35.253  13.220  14.002  0.00  0.00     0.212 HD
ENDBRANCH  21  24
BRANCH  22  26
HETATM   26  O   UNK N   1      37.352  13.443  11.937  0.00  0.00    -0.388 OA
HETATM   27  H   UNK N   1      37.620  12.521  12.071  0.00  0.00     0.210 HD
ENDBRANCH  22  26
BRANCH  23  28
HETATM   28  O   UNK N   1      36.928  16.237  10.829  0.00  0.00    -0.390 OA
HETATM   29  H   UNK N   1      36.885  17.098  11.272  0.00  0.00     0.210 HD
ENDBRANCH  23  28
ENDBRANCH  18  19
ENDBRANCH  17  18
ENDBRANCH  13  17
ENDBRANCH  12  13
ENDBRANCH   8  12
ENDBRANCH   7   8
ENDBRANCH   6   7
ENDBRANCH   3   6
BRANCH   4  30
HETATM   30  O   UNK N   1      29.229  12.940   4.933  0.00  0.00    -0.390 OA
HETATM   31  H   UNK N   1      29.185  12.330   5.686  0.00  0.00     0.210 HD
ENDBRANCH   4  30
BRANCH   1  32
HETATM   32  N   UNK N   1      28.271  17.283   4.982  0.00  0.00    -0.297 N 
HETATM   33  C   UNK N   1      28.214  16.976   6.308  0.00  0.00     0.188 A 
HETATM   34  N   UNK N   1      27.649  17.974   7.038  0.00  0.00    -0.346 N 
HETATM   35  C   UNK N   1      27.363  18.925   6.135  0.00  0.00     0.122 A 
ATOM     36  HN  UNK N   1      27.479  17.996   8.044  1.00  0.00     0.167 HD
HETATM   37  C   UNK N   1      26.809  20.180   6.326  0.00  0.00     0.131 A 
HETATM   38  C   UNK N   1      27.724  18.514   4.901  0.00  0.00     0.142 A 
HETATM   39  N   UNK N   1      26.645  20.980   5.233  0.00  0.00    -0.337 N 
HETATM   40  C   UNK N   1      27.015  20.548   3.983  0.00  0.00     0.183 A 
ATOM     41  HN  UNK N   1      26.245  21.912   5.345  1.00  0.00     0.168 HD
HETATM   42  N   UNK N   1      27.559  19.303   3.812  0.00  0.00    -0.336 N 
ATOM     43  HN  UNK N   1      27.833  18.977   2.885  1.00  0.00     0.168 HD
BRANCH  37  44
HETATM   44  N   UNK N   1      26.440  20.632   7.609  0.00  0.00    -0.383 N 
HETATM   45  H   UNK N   1      26.743  20.153   8.414  0.00  0.00     0.157 HD
HETATM   46  H   UNK N   1      25.873  21.432   7.701  0.00  0.00     0.157 HD
ENDBRANCH  37  44
ENDBRANCH   1  32
BRANCH   5  47
HETATM   47  O   UNK N   1      27.008  14.727   3.973  0.00  0.00    -0.388 OA
HETATM   48  H   UNK N   1      26.561  14.302   3.225  0.00  0.00     0.210 HD
ENDBRANCH   5  47
TORSDOF 17
ENDMDL
MODEL 6
REMARK VINA RESULT:      -7.3      5.586      9.795
REMARK  17 active torsions:
REMARK  status: ('A' for Active; 'I' for Inactive)
REMARK    1  A    between atoms: N_1  and  C_2 
REMARK    2  A    between atoms: C_8  and  N_7 
REMARK    3  A    between atoms: C_10  and  C_11 
REMARK    4  A    between atoms: C_11  and  O_12 
REMARK    5  A    between atoms: P_13  and  O_12 
REMARK    6  A    between atoms: P_13  and  O_14 
REMARK    7  A    between atoms: P_13  and  O_16 
REMARK    8  A    between atoms: P_17  and  O_16 
REMARK    9  A    between atoms: P_17  and  O_18 
REMARK   10  A    between atoms: P_17  and  O_20 
REMARK   11  A    between atoms: O_20  and  C_21 
REMARK   12  A    between atoms: C_22  and  C_21 
REMARK   13  A    between atoms: C_24  and  O_25 
REMARK   14  A    between atoms: C_26  and  O_27 
REMARK   15  A    between atoms: C_28  and  O_29 
REMARK   16  A    between atoms: C_30  and  O_31 
REMARK   17  A    between atoms: C_32  and  O_33 
ROOT
HETATM    1  C   UNK N   1      36.369  14.205  10.465  0.00  0.00     0.262 C 
HETATM    2  O   UNK N   1      35.794  14.075   9.186  0.00  0.00    -0.353 OA
HETATM    3  C   UNK N   1      34.978  15.212   8.996  0.00  0.00     0.180 C 
HETATM    4  C   UNK N   1      34.866  15.966  10.301  0.00  0.00     0.182 C 
HETATM    5  C   UNK N   1      36.235  15.682  10.801  0.00  0.00     0.198 C 
ENDROOT
BRANCH   3   6
HETATM    6  C   UNK N   1      33.641  14.798   8.404  0.00  0.00     0.215 C 
BRANCH   6   7
HETATM    7  O   UNK N   1      33.833  14.167   7.167  0.00  0.00    -0.294 OA
BRANCH   7   8
HETATM    8  P   UNK N   1      34.209  15.406   5.982  0.00  0.00     0.401 P 
HETATM    9  O   UNK N   1      35.745  15.412   5.757  0.00  0.00    -0.631 OA
BRANCH   8  10
HETATM   10  O   UNK N   1      33.750  17.001   6.495  0.00  0.00    -0.307 OA
HETATM   11  H   UNK N   1      33.611  17.959   6.454  0.00  0.00     0.222 HD
ENDBRANCH   8  10
BRANCH   8  12
HETATM   12  O   UNK N   1      33.485  15.063   4.440  0.00  0.00    -0.195 OA
BRANCH  12  13
HETATM   13  P   UNK N   1      31.766  14.997   4.717  0.00  0.00     0.401 P 
HETATM   14  O   UNK N   1      31.107  14.692   3.346  0.00  0.00    -0.631 OA
BRANCH  13  15
HETATM   15  O   UNK N   1      31.363  13.650   5.732  0.00  0.00    -0.307 OA
HETATM   16  H   UNK N   1      31.172  13.121   6.523  0.00  0.00     0.222 HD
ENDBRANCH  13  15
BRANCH  13  17
HETATM   17  O   UNK N   1      31.089  16.471   5.376  0.00  0.00    -0.294 OA
BRANCH  17  18
HETATM   18  C   UNK N   1      30.352  16.153   6.526  0.00  0.00     0.215 C 
BRANCH  18  19
HETATM   19  C   UNK N   1      29.977  17.400   7.339  0.00  0.00     0.180 C 
HETATM   20  O   UNK N   1      28.578  17.545   7.459  0.00  0.00    -0.349 OA
HETATM   21  C   UNK N   1      28.348  17.985   8.780  0.00  0.00     0.288 C 
HETATM   22  C   UNK N   1      29.670  18.420   9.357  0.00  0.00     0.204 C 
HETATM   23  C   UNK N   1      30.561  17.409   8.736  0.00  0.00     0.182 C 
BRANCH  21  24
HETATM   24  O   UNK N   1      27.457  19.058   8.782  0.00  0.00    -0.369 OA
HETATM   25  H   UNK N   1      27.794  19.967   8.813  0.00  0.00     0.212 HD
ENDBRANCH  21  24
BRANCH  22  26
HETATM   26  O   UNK N   1      29.672  18.317  10.748  0.00  0.00    -0.388 OA
HETATM   27  H   UNK N   1      29.221  17.876  11.485  0.00  0.00     0.210 HD
ENDBRANCH  22  26
BRANCH  23  28
HETATM   28  O   UNK N   1      31.890  17.834   8.734  0.00  0.00    -0.390 OA
HETATM   29  H   UNK N   1      32.611  17.795   9.380  0.00  0.00     0.210 HD
ENDBRANCH  23  28
ENDBRANCH  18  19
ENDBRANCH  17  18
ENDBRANCH  13  17
ENDBRANCH  12  13
ENDBRANCH   8  12
ENDBRANCH   7   8
ENDBRANCH   6   7
ENDBRANCH   3   6
BRANCH   4  30
HETATM   30  O   UNK N   1      34.698  17.330  10.060  0.00  0.00    -0.390 OA
HETATM   31  H   UNK N   1      34.925  18.011  10.712  0.00  0.00     0.210 HD
ENDBRANCH   4  30
BRANCH   1  32
HETATM   32  N   UNK N   1      35.748  13.209  11.363  0.00  0.00    -0.297 N 
HETATM   33  C   UNK N   1      34.801  12.336  10.922  0.00  0.00     0.188 A 
HETATM   34  N   UNK N   1      34.389  11.491  11.905  0.00  0.00    -0.346 N 
HETATM   35  C   UNK N   1      35.114  11.850  12.976  0.00  0.00     0.122 A 
ATOM     36  HN  UNK N   1      33.688  10.753  11.843  1.00  0.00     0.167 HD
HETATM   37  C   UNK N   1      35.133  11.302  14.248  0.00  0.00     0.131 A 
HETATM   38  C   UNK N   1      35.922  12.885  12.662  0.00  0.00     0.142 A 
HETATM   39  N   UNK N   1      35.992  11.837  15.162  0.00  0.00    -0.337 N 
HETATM   40  C   UNK N   1      36.807  12.891  14.829  0.00  0.00     0.183 A 
ATOM     41  HN  UNK N   1      36.031  11.449  16.105  1.00  0.00     0.168 HD
HETATM   42  N   UNK N   1      36.773  13.423  13.567  0.00  0.00    -0.336 N 
ATOM     43  HN  UNK N   1      37.376  14.207  13.316  1.00  0.00     0.168 HD
BRANCH  37  44
HETATM   44  N   UNK N   1      34.306  10.212  14.589  0.00  0.00    -0.383 N 
HETATM   45  H   UNK N   1      34.601   9.549  15.253  0.00  0.00     0.157 HD
HETATM   46  H   UNK N   1      33.426  10.114  14.159  0.00  0.00     0.157 HD
ENDBRANCH  37  44
ENDBRANCH   1  32
BRANCH   5  47
HETATM   47  O   UNK N   1      36.469  16.047  12.124  0.00  0.00    -0.388 OA
HETATM   48  H   UNK N   1      37.287  16.511  12.362  0.00  0.00     0.210 HD
ENDBRANCH   5  47
TORSDOF 17
ENDMDL
MODEL 7
REMARK VINA RESULT:      -7.3      3.382      5.704
REMARK  17 active torsions:
REMARK  status: ('A' for Active; 'I' for Inactive)
REMARK    1  A    between atoms: N_1  and  C_2 
REMARK    2  A    between atoms: C_8  and  N_7 
REMARK    3  A    between atoms: C_10  and  C_11 
REMARK    4  A    between atoms: C_11  and  O_12 
REMARK    5  A    between atoms: P_13  and  O_12 
REMARK    6  A    between atoms: P_13  and  O_14 
REMARK    7  A    between atoms: P_13  and  O_16 
REMARK    8  A    between atoms: P_17  and  O_16 
REMARK    9  A    between atoms: P_17  and  O_18 
REMARK   10  A    between atoms: P_17  and  O_20 
REMARK   11  A    between atoms: O_20  and  C_21 
REMARK   12  A    between atoms: C_22  and  C_21 
REMARK   13  A    between atoms: C_24  and  O_25 
REMARK   14  A    between atoms: C_26  and  O_27 
REMARK   15  A    between atoms: C_28  and  O_29 
REMARK   16  A    between atoms: C_30  and  O_31 
REMARK   17  A    between atoms: C_32  and  O_33 
ROOT
HETATM    1  C   UNK N   1      30.596  13.872   3.186  0.00  0.00     0.262 C 
HETATM    2  O   UNK N   1      31.915  14.341   3.034  0.00  0.00    -0.353 OA
HETATM    3  C   UNK N   1      32.592  14.029   4.233  0.00  0.00     0.180 C 
HETATM    4  C   UNK N   1      31.591  13.549   5.258  0.00  0.00     0.182 C 
HETATM    5  C   UNK N   1      30.675  12.857   4.316  0.00  0.00     0.198 C 
ENDROOT
BRANCH   3   6
HETATM    6  C   UNK N   1      33.418  15.221   4.687  0.00  0.00     0.215 C 
BRANCH   6   7
HETATM    7  O   UNK N   1      33.211  15.463   6.052  0.00  0.00    -0.294 OA
BRANCH   7   8
HETATM    8  P   UNK N   1      34.734  15.201   6.884  0.00  0.00     0.401 P 
HETATM    9  O   UNK N   1      35.887  15.589   5.919  0.00  0.00    -0.631 OA
BRANCH   8  10
HETATM   10  O   UNK N   1      34.978  13.546   7.351  0.00  0.00    -0.307 OA
HETATM   11  H   UNK N   1      35.248  12.790   7.895  0.00  0.00     0.222 HD
ENDBRANCH   8  10
BRANCH   8  12
HETATM   12  O   UNK N   1      34.891  16.226   8.279  0.00  0.00    -0.195 OA
BRANCH  12  13
HETATM   13  P   UNK N   1      34.168  17.749   7.843  0.00  0.00     0.401 P 
HETATM   14  O   UNK N   1      35.086  18.858   8.423  0.00  0.00    -0.631 OA
BRANCH  13  15
HETATM   15  O   UNK N   1      34.207  17.973   6.123  0.00  0.00    -0.307 OA
HETATM   16  H   UNK N   1      33.914  18.064   5.202  0.00  0.00     0.222 HD
ENDBRANCH  13  15
BRANCH  13  17
HETATM   17  O   UNK N   1      32.537  17.967   8.441  0.00  0.00    -0.294 OA
BRANCH  17  18
HETATM   18  C   UNK N   1      31.636  17.543   7.455  0.00  0.00     0.215 C 
BRANCH  18  19
HETATM   19  C   UNK N   1      30.216  18.076   7.698  0.00  0.00     0.180 C 
HETATM   20  O   UNK N   1      29.328  17.681   6.675  0.00  0.00    -0.349 OA
HETATM   21  C   UNK N   1      28.114  17.362   7.319  0.00  0.00     0.288 C 
HETATM   22  C   UNK N   1      28.189  17.891   8.729  0.00  0.00     0.204 C 
HETATM   23  C   UNK N   1      29.622  17.634   9.018  0.00  0.00     0.182 C 
BRANCH  21  24
HETATM   24  O   UNK N   1      27.043  17.955   6.651  0.00  0.00    -0.369 OA
HETATM   25  H   UNK N   1      26.680  18.797   6.968  0.00  0.00     0.212 HD
ENDBRANCH  21  24
BRANCH  22  26
HETATM   26  O   UNK N   1      27.358  17.167   9.584  0.00  0.00    -0.388 OA
HETATM   27  H   UNK N   1      26.837  17.248  10.398  0.00  0.00     0.210 HD
ENDBRANCH  22  26
BRANCH  23  28
HETATM   28  O   UNK N   1      30.077  18.422  10.075  0.00  0.00    -0.390 OA
HETATM   29  H   UNK N   1      29.730  18.637  10.953  0.00  0.00     0.210 HD
ENDBRANCH  23  28
ENDBRANCH  18  19
ENDBRANCH  17  18
ENDBRANCH  13  17
ENDBRANCH  12  13
ENDBRANCH   8  12
ENDBRANCH   7   8
ENDBRANCH   6   7
ENDBRANCH   3   6
BRANCH   4  30
HETATM   30  O   UNK N   1      32.189  12.636   6.129  0.00  0.00    -0.390 OA
HETATM   31  H   UNK N   1      32.828  11.969   5.835  0.00  0.00     0.210 HD
ENDBRANCH   4  30
BRANCH   1  32
HETATM   32  N   UNK N   1      29.697  15.035   3.333  0.00  0.00    -0.297 N 
HETATM   33  C   UNK N   1      30.173  16.311   3.378  0.00  0.00     0.188 A 
HETATM   34  N   UNK N   1      29.173  17.225   3.486  0.00  0.00    -0.346 N 
HETATM   35  C   UNK N   1      28.050  16.489   3.495  0.00  0.00     0.122 A 
ATOM     36  HN  UNK N   1      29.256  18.240   3.547  1.00  0.00     0.167 HD
HETATM   37  C   UNK N   1      26.729  16.902   3.550  0.00  0.00     0.131 A 
HETATM   38  C   UNK N   1      28.357  15.177   3.414  0.00  0.00     0.142 A 
HETATM   39  N   UNK N   1      25.758  15.944   3.516  0.00  0.00    -0.337 N 
HETATM   40  C   UNK N   1      26.085  14.613   3.435  0.00  0.00     0.183 A 
ATOM     41  HN  UNK N   1      24.776  16.221   3.549  1.00  0.00     0.168 HD
HETATM   42  N   UNK N   1      27.396  14.223   3.385  0.00  0.00    -0.336 N 
ATOM     43  HN  UNK N   1      27.643  13.235   3.327  1.00  0.00     0.168 HD
BRANCH  37  44
HETATM   44  N   UNK N   1      26.391  18.268   3.620  0.00  0.00    -0.383 N 
HETATM   45  H   UNK N   1      25.462  18.562   3.478  0.00  0.00     0.157 HD
HETATM   46  H   UNK N   1      27.089  18.935   3.813  0.00  0.00     0.157 HD
ENDBRANCH  37  44
ENDBRANCH   1  32
BRANCH   5  47
HETATM   47  O   UNK N   1      29.467  12.438   4.866  0.00  0.00    -0.388 OA
HETATM   48  H   UNK N   1      29.222  11.500   4.841  0.00  0.00     0.210 HD
ENDBRANCH   5  47
TORSDOF 17
ENDMDL
MODEL 8
REMARK VINA RESULT:      -7.2      6.541     11.708
REMARK  17 active torsions:
REMARK  status: ('A' for Active; 'I' for Inactive)
REMARK    1  A    between atoms: N_1  and  C_2 
REMARK    2  A    between atoms: C_8  and  N_7 
REMARK    3  A    between atoms: C_10  and  C_11 
REMARK    4  A    between atoms: C_11  and  O_12 
REMARK    5  A    between atoms: P_13  and  O_12 
REMARK    6  A    between atoms: P_13  and  O_14 
REMARK    7  A    between atoms: P_13  and  O_16 
REMARK    8  A    between atoms: P_17  and  O_16 
REMARK    9  A    between atoms: P_17  and  O_18 
REMARK   10  A    between atoms: P_17  and  O_20 
REMARK   11  A    between atoms: O_20  and  C_21 
REMARK   12  A    between atoms: C_22  and  C_21 
REMARK   13  A    between atoms: C_24  and  O_25 
REMARK   14  A    between atoms: C_26  and  O_27 
REMARK   15  A    between atoms: C_28  and  O_29 
REMARK   16  A    between atoms: C_30  and  O_31 
REMARK   17  A    between atoms: C_32  and  O_33 
ROOT
HETATM    1  C   UNK N   1      28.231  18.699   5.017  0.00  0.00     0.262 C 
HETATM    2  O   UNK N   1      28.018  17.988   3.819  0.00  0.00    -0.353 OA
HETATM    3  C   UNK N   1      26.670  17.569   3.837  0.00  0.00     0.180 C 
HETATM    4  C   UNK N   1      26.084  17.837   5.203  0.00  0.00     0.182 C 
HETATM    5  C   UNK N   1      26.838  19.084   5.491  0.00  0.00     0.198 C 
ENDROOT
BRANCH   3   6
HETATM    6  C   UNK N   1      26.573  16.118   3.395  0.00  0.00     0.215 C 
BRANCH   6   7
HETATM    7  O   UNK N   1      25.489  15.491   4.025  0.00  0.00    -0.294 OA
BRANCH   7   8
HETATM    8  P   UNK N   1      24.951  14.178   2.994  0.00  0.00     0.401 P 
HETATM    9  O   UNK N   1      24.526  12.991   3.901  0.00  0.00    -0.631 OA
BRANCH   8  10
HETATM   10  O   UNK N   1      26.192  13.600   1.925  0.00  0.00    -0.307 OA
HETATM   11  H   UNK N   1      26.663  13.427   1.095  0.00  0.00     0.222 HD
ENDBRANCH   8  10
BRANCH   8  12
HETATM   12  O   UNK N   1      23.548  14.618   2.068  0.00  0.00    -0.195 OA
BRANCH  12  13
HETATM   13  P   UNK N   1      22.269  14.876   3.222  0.00  0.00     0.401 P 
HETATM   14  O   UNK N   1      21.450  13.560   3.278  0.00  0.00    -0.631 OA
BRANCH  13  15
HETATM   15  O   UNK N   1      22.919  15.083   4.817  0.00  0.00    -0.307 OA
HETATM   16  H   UNK N   1      23.150  14.911   5.743  0.00  0.00     0.222 HD
ENDBRANCH  13  15
BRANCH  13  17
HETATM   17  O   UNK N   1      21.205  16.210   2.828  0.00  0.00    -0.294 OA
BRANCH  17  18
HETATM   18  C   UNK N   1      21.328  17.192   3.821  0.00  0.00     0.215 C 
BRANCH  18  19
HETATM   19  C   UNK N   1      20.889  18.578   3.325  0.00  0.00     0.180 C 
HETATM   20  O   UNK N   1      21.908  19.539   3.490  0.00  0.00    -0.349 OA
HETATM   21  C   UNK N   1      21.869  20.347   2.334  0.00  0.00     0.288 C 
HETATM   22  C   UNK N   1      20.579  20.052   1.611  0.00  0.00     0.204 C 
HETATM   23  C   UNK N   1      20.473  18.595   1.870  0.00  0.00     0.182 C 
BRANCH  21  24
HETATM   24  O   UNK N   1      21.914  21.695   2.686  0.00  0.00    -0.369 OA
HETATM   25  H   UNK N   1      22.762  22.165   2.698  0.00  0.00     0.212 HD
ENDBRANCH  21  24
BRANCH  22  26
HETATM   26  O   UNK N   1      20.692  20.323   0.248  0.00  0.00    -0.388 OA
HETATM   27  H   UNK N   1      21.343  20.518  -0.445  0.00  0.00     0.210 HD
ENDBRANCH  22  26
BRANCH  23  28
HETATM   28  O   UNK N   1      19.164  18.143   1.704  0.00  0.00    -0.390 OA
HETATM   29  H   UNK N   1      18.767  17.368   1.278  0.00  0.00     0.210 HD
ENDBRANCH  23  28
ENDBRANCH  18  19
ENDBRANCH  17  18
ENDBRANCH  13  17
ENDBRANCH  12  13
ENDBRANCH   8  12
ENDBRANCH   7   8
ENDBRANCH   6   7
ENDBRANCH   3   6
BRANCH   4  30
HETATM   30  O   UNK N   1      24.716  18.096   5.102  0.00  0.00    -0.390 OA
HETATM   31  H   UNK N   1      24.039  17.464   5.388  0.00  0.00     0.210 HD
ENDBRANCH   4  30
BRANCH   1  32
HETATM   32  N   UNK N   1      29.086  17.883   5.904  0.00  0.00    -0.297 N 
HETATM   33  C   UNK N   1      29.793  16.816   5.437  0.00  0.00     0.188 A 
HETATM   34  N   UNK N   1      30.533  16.229   6.414  0.00  0.00    -0.346 N 
HETATM   35  C   UNK N   1      30.282  16.964   7.509  0.00  0.00     0.122 A 
ATOM     36  HN  UNK N   1      31.141  15.414   6.334  1.00  0.00     0.167 HD
HETATM   37  C   UNK N   1      30.798  16.841   8.788  0.00  0.00     0.131 A 
HETATM   38  C   UNK N   1      29.408  17.950   7.212  0.00  0.00     0.142 A 
HETATM   39  N   UNK N   1      30.399  17.745   9.728  0.00  0.00    -0.337 N 
HETATM   40  C   UNK N   1      29.508  18.741   9.413  0.00  0.00     0.183 A 
ATOM     41  HN  UNK N   1      30.768  17.681  10.678  1.00  0.00     0.168 HD
HETATM   42  N   UNK N   1      29.005  18.847   8.144  0.00  0.00    -0.336 N 
ATOM     43  HN  UNK N   1      28.342  19.584   7.906  1.00  0.00     0.168 HD
BRANCH  37  44
HETATM   44  N   UNK N   1      31.722  15.827   9.111  0.00  0.00    -0.383 N 
HETATM   45  H   UNK N   1      31.901  15.593  10.050  0.00  0.00     0.157 HD
HETATM   46  H   UNK N   1      32.193  15.348   8.391  0.00  0.00     0.157 HD
ENDBRANCH  37  44
ENDBRANCH   1  32
BRANCH   5  47
HETATM   47  O   UNK N   1      26.728  19.554   6.795  0.00  0.00    -0.388 OA
HETATM   48  H   UNK N   1      25.874  19.876   7.126  0.00  0.00     0.210 HD
ENDBRANCH   5  47
TORSDOF 17
ENDMDL
MODEL 9
REMARK VINA RESULT:      -7.1      5.307     11.311
REMARK  17 active torsions:
REMARK  status: ('A' for Active; 'I' for Inactive)
REMARK    1  A    between atoms: N_1  and  C_2 
REMARK    2  A    between atoms: C_8  and  N_7 
REMARK    3  A    between atoms: C_10  and  C_11 
REMARK    4  A    between atoms: C_11  and  O_12 
REMARK    5  A    between atoms: P_13  and  O_12 
REMARK    6  A    between atoms: P_13  and  O_14 
REMARK    7  A    between atoms: P_13  and  O_16 
REMARK    8  A    between atoms: P_17  and  O_16 
REMARK    9  A    between atoms: P_17  and  O_18 
REMARK   10  A    between atoms: P_17  and  O_20 
REMARK   11  A    between atoms: O_20  and  C_21 
REMARK   12  A    between atoms: C_22  and  C_21 
REMARK   13  A    between atoms: C_24  and  O_25 
REMARK   14  A    between atoms: C_26  and  O_27 
REMARK   15  A    between atoms: C_28  and  O_29 
REMARK   16  A    between atoms: C_30  and  O_31 
REMARK   17  A    between atoms: C_32  and  O_33 
ROOT
HETATM    1  C   UNK N   1      30.533  15.418   6.031  0.00  0.00     0.262 C 
HETATM    2  O   UNK N   1      29.366  16.205   6.002  0.00  0.00    -0.353 OA
HETATM    3  C   UNK N   1      29.404  16.934   4.793  0.00  0.00     0.180 C 
HETATM    4  C   UNK N   1      30.760  16.761   4.152  0.00  0.00     0.182 C 
HETATM    5  C   UNK N   1      30.997  15.360   4.583  0.00  0.00     0.198 C 
ENDROOT
BRANCH   3   6
HETATM    6  C   UNK N   1      29.020  18.382   5.049  0.00  0.00     0.215 C 
BRANCH   6   7
HETATM    7  O   UNK N   1      27.876  18.446   5.855  0.00  0.00    -0.294 OA
BRANCH   7   8
HETATM    8  P   UNK N   1      26.516  18.871   4.830  0.00  0.00     0.401 P 
HETATM    9  O   UNK N   1      26.981  19.978   3.845  0.00  0.00    -0.631 OA
BRANCH   8  10
HETATM   10  O   UNK N   1      25.163  19.498   5.720  0.00  0.00    -0.307 OA
HETATM   11  H   UNK N   1      24.414  19.513   6.335  0.00  0.00     0.222 HD
ENDBRANCH   8  10
BRANCH   8  12
HETATM   12  O   UNK N   1      25.998  17.529   3.857  0.00  0.00    -0.195 OA
BRANCH  12  13
HETATM   13  P   UNK N   1      25.035  16.519   4.900  0.00  0.00     0.401 P 
HETATM   14  O   UNK N   1      25.058  15.095   4.283  0.00  0.00    -0.631 OA
BRANCH  13  15
HETATM   15  O   UNK N   1      25.785  16.359   6.456  0.00  0.00    -0.307 OA
HETATM   16  H   UNK N   1      26.351  16.534   7.224  0.00  0.00     0.222 HD
ENDBRANCH  13  15
BRANCH  13  17
HETATM   17  O   UNK N   1      23.377  17.050   5.083  0.00  0.00    -0.294 OA
BRANCH  17  18
HETATM   18  C   UNK N   1      22.605  16.473   4.065  0.00  0.00     0.215 C 
BRANCH  18  19
HETATM   19  C   UNK N   1      21.834  17.524   3.253  0.00  0.00     0.180 C 
HETATM   20  O   UNK N   1      20.470  17.187   3.122  0.00  0.00    -0.349 OA
HETATM   21  C   UNK N   1      19.758  18.398   3.259  0.00  0.00     0.288 C 
HETATM   22  C   UNK N   1      20.749  19.528   3.147  0.00  0.00     0.204 C 
HETATM   23  C   UNK N   1      21.909  18.916   3.841  0.00  0.00     0.182 C 
BRANCH  21  24
HETATM   24  O   UNK N   1      18.800  18.509   2.253  0.00  0.00    -0.369 OA
HETATM   25  H   UNK N   1      18.509  19.386   1.955  0.00  0.00     0.212 HD
ENDBRANCH  21  24
BRANCH  22  26
HETATM   26  O   UNK N   1      20.294  20.665   3.816  0.00  0.00    -0.388 OA
HETATM   27  H   UNK N   1      20.259  21.632   3.749  0.00  0.00     0.210 HD
ENDBRANCH  22  26
BRANCH  23  28
HETATM   28  O   UNK N   1      23.101  19.555   3.499  0.00  0.00    -0.390 OA
HETATM   29  H   UNK N   1      24.001  19.539   3.858  0.00  0.00     0.210 HD
ENDBRANCH  23  28
ENDBRANCH  18  19
ENDBRANCH  17  18
ENDBRANCH  13  17
ENDBRANCH  12  13
ENDBRANCH   8  12
ENDBRANCH   7   8
ENDBRANCH   6   7
ENDBRANCH   3   6
BRANCH   4  30
HETATM   30  O   UNK N   1      30.654  16.842   2.762  0.00  0.00    -0.390 OA
HETATM   31  H   UNK N   1      31.208  16.319   2.162  0.00  0.00     0.210 HD
ENDBRANCH   4  30
BRANCH   1  32
HETATM   32  N   UNK N   1      31.448  15.971   7.051  0.00  0.00    -0.297 N 
HETATM   33  C   UNK N   1      31.089  17.015   7.848  0.00  0.00     0.188 A 
HETATM   34  N   UNK N   1      32.068  17.341   8.733  0.00  0.00    -0.346 N 
HETATM   35  C   UNK N   1      33.051  16.463   8.479  0.00  0.00     0.122 A 
ATOM     36  HN  UNK N   1      32.059  18.085   9.431  1.00  0.00     0.167 HD
HETATM   37  C   UNK N   1      34.275  16.308   9.109  0.00  0.00     0.131 A 
HETATM   38  C   UNK N   1      32.691  15.646   7.467  0.00  0.00     0.142 A 
HETATM   39  N   UNK N   1      35.095  15.307   8.675  0.00  0.00    -0.337 N 
HETATM   40  C   UNK N   1      34.716  14.485   7.642  0.00  0.00     0.183 A 
ATOM     41  HN  UNK N   1      36.000  15.167   9.124  1.00  0.00     0.168 HD
HETATM   42  N   UNK N   1      33.503  14.655   7.030  0.00  0.00    -0.336 N 
ATOM     43  HN  UNK N   1      33.219  14.047   6.261  1.00  0.00     0.168 HD
BRANCH  37  44
HETATM   44  N   UNK N   1      34.661  17.143  10.177  0.00  0.00    -0.383 N 
HETATM   45  H   UNK N   1      33.992  17.674  10.664  0.00  0.00     0.157 HD
HETATM   46  H   UNK N   1      35.610  17.195  10.437  0.00  0.00     0.157 HD
ENDBRANCH  37  44
ENDBRANCH   1  32
BRANCH   5  47
HETATM   47  O   UNK N   1      32.282  14.879   4.356  0.00  0.00    -0.388 OA
HETATM   48  H   UNK N   1      32.767  15.146   3.559  0.00  0.00     0.210 HD
ENDBRANCH   5  47
TORSDOF 17
ENDMDL
