REMARK  5 active torsions:
REMARK  status: ('A' for Active; 'I' for Inactive)
REMARK    1  A    between atoms: C_2  and  N_1 
REMARK    2  A    between atoms: C_2  and  C_3 
REMARK    3  A    between atoms: C_2  and  C_5 
REMARK    4  A    between atoms: C_3  and  Se_4 
REMARK    5  A    between atoms: C_5  and  O_6 
ROOT
HETATM    1  C   UNK N   1       1.477   0.603   0.000  0.00  0.00     0.173 C 
ENDROOT
BRANCH   1   2
HETATM    2  N   UNK N   1       2.827   0.094   0.000  0.00  0.00    -0.418 N 
HETATM    3  H   UNK N   1       2.992  -0.913  -0.000  0.00  0.00     0.150 HD
HETATM    4  H   UNK N   1       3.616   0.740   0.000  0.00  0.00     0.150 HD
ENDBRANCH   1   2
BRANCH   1   5
HETATM    5  C   UNK N   1       1.498   2.143  -0.000  0.00  0.00     0.038 C 
BRANCH   5   6
HETATM    6 Se   UNK N   1      -0.106   3.232   0.000  0.00  0.00     0.000 Se
HETATM    7  H   UNK N   1       0.004   4.738   0.000  0.00  0.00     0.000 HD
ENDBRANCH   5   6
ENDBRANCH   1   5
BRANCH   1   8
HETATM    8  C   UNK N   1       0.448  -0.518  -0.000  0.00  0.00     0.163 C 
HETATM    9  O   UNK N   1      -0.751  -0.310  -0.000  0.00  0.00    -0.648 OA
BRANCH   8  10
HETATM   10  O   UNK N   1       0.900  -1.794   0.000  0.00  0.00    -0.775 OA
HETATM   11  H   UNK N   1       0.291  -2.506   0.000  0.00  0.00     0.167 HD
ENDBRANCH   8  10
ENDBRANCH   1   8
TORSDOF 5
