REMARK  7 active torsions:
REMARK  status: ('A' for Active; 'I' for Inactive)
REMARK    1  A    between atoms: C_4  and  C_2 
REMARK    2  A    between atoms: O_11  and  C_2 
REMARK    3  A    between atoms: O_12  and  C_3 
REMARK    4  A    between atoms: C_5  and  O_13 
REMARK    5  A    between atoms: C_6  and  O_14 
REMARK    6  A    between atoms: C_7  and  O_15 
REMARK    7  A    between atoms: C_8  and  N_9 
ROOT
HETATM    1  C   UNK N   1       1.769   1.217  -0.346  0.00  0.00     0.179 C 
HETATM    2  C   UNK N   1       0.485   2.079  -0.209  0.00  0.00     0.180 C 
HETATM    3  C   UNK N   1      -0.527   1.411   0.740  0.00  0.00     0.182 C 
HETATM    4  C   UNK N   1      -0.749  -0.055   0.329  0.00  0.00     0.198 C 
HETATM    5  C   UNK N   1       0.636  -0.743   0.346  0.00  0.00     0.254 C 
HETATM    6  O   UNK N   1       1.476  -0.145  -0.636  0.00  0.00    -0.354 OA
ENDROOT
BRANCH   5   7
HETATM    7  N   UNK N   1       0.667  -2.190   0.151  0.00  0.00    -0.346 N 
HETATM    8  C   UNK N   1      -0.298  -3.023  -0.088  0.00  0.00     0.109 C 
HETATM    9  C   UNK N   1       0.021  -4.471  -0.211  0.00  0.00     0.097 C 
ATOM     10  HN  UNK N   1       1.594  -2.612   0.212  1.00  0.00     0.164 HD
BRANCH   8  11
HETATM   11  O   UNK N   1      -1.574  -2.626  -0.222  0.00  0.00    -0.350 OA
HETATM   12  H   UNK N   1      -1.779  -1.716  -0.316  0.00  0.00     0.219 HD
ENDBRANCH   8  11
ENDBRANCH   5   7
BRANCH   4  13
HETATM   13  O   UNK N   1      -1.313  -0.121  -0.951  0.00  0.00    -0.389 OA
HETATM   14  H   UNK N   1      -1.548   0.195  -1.838  0.00  0.00     0.210 HD
ENDBRANCH   4  13
BRANCH   3  15
HETATM   15  O   UNK N   1      -1.737   2.110   0.736  0.00  0.00    -0.390 OA
HETATM   16  H   UNK N   1      -1.737   3.080   0.732  0.00  0.00     0.210 HD
ENDBRANCH   3  15
BRANCH   1  17
HETATM   17  C   UNK N   1       2.732   1.334   0.838  0.00  0.00     0.198 C 
BRANCH  17  18
HETATM   18  O   UNK N   1       3.345   2.590   0.841  0.00  0.00    -0.398 OA
HETATM   19  H   UNK N   1       4.312   2.658   0.843  0.00  0.00     0.209 HD
ENDBRANCH  17  18
ENDBRANCH   1  17
BRANCH   2  20
HETATM   20  O   UNK N   1      -0.094   2.227  -1.472  0.00  0.00    -0.390 OA
HETATM   21  H   UNK N   1      -0.205   2.627  -2.349  0.00  0.00     0.210 HD
ENDBRANCH   2  20
TORSDOF 7
