MODEL 1
REMARK VINA RESULT:      -4.6      0.000      0.000
REMARK  7 active torsions:
REMARK  status: ('A' for Active; 'I' for Inactive)
REMARK    1  A    between atoms: C_2  and  C_1 
REMARK    2  A    between atoms: Se_11  and  C_1 
REMARK    3  A    between atoms: C_3  and  C_2 
REMARK    4  A    between atoms: C_2  and  N_4 
REMARK    5  A    between atoms: O_6  and  C_3 
REMARK    6  A    between atoms: Se_11  and  O_7 
REMARK    7  A    between atoms: Se_11  and  O_9 
ROOT
HETATM    1  C   UNK N   1      34.125  17.239   9.195  0.00  0.00     0.173 C 
ENDROOT
BRANCH   1   2
HETATM    2  C   UNK N   1      34.063  15.824   8.634  0.00  0.00     0.038 C 
BRANCH   2   3
HETATM    3 Se   UNK N   1      32.484  14.862   9.252  0.00  0.00     0.000 Se
BRANCH   3   4
HETATM    4  O   UNK N   1      32.960  15.033  10.818  0.00  0.00    -0.253 OA
ATOM      5  HO  UNK N   1      32.555  14.205  11.048  1.00  0.00     0.253 HD
ENDBRANCH   3   4
BRANCH   3   6
HETATM    6  O   UNK N   1      31.653  16.281   9.328  0.00  0.00    -0.253 OA
ATOM      7  HO  UNK N   1      31.389  16.078  10.218  1.00  0.00     0.253 HD
ENDBRANCH   3   6
ENDBRANCH   2   3
ENDBRANCH   1   2
BRANCH   1   8
HETATM    8  C   UNK N   1      34.658  18.211   8.172  0.00  0.00     0.163 C 
HETATM    9  O   UNK N   1      34.480  18.016   6.979  0.00  0.00    -0.648 OA
BRANCH   8  10
HETATM   10  O   UNK N   1      35.350  19.297   8.568  0.00  0.00    -0.775 OA
HETATM   11  H   UNK N   1      34.936  20.127   8.703  0.00  0.00     0.167 HD
ENDBRANCH   8  10
ENDBRANCH   1   8
BRANCH   1  12
HETATM   12  N   UNK N   1      34.982  17.224  10.371  0.00  0.00    -0.418 N 
HETATM   13  H   UNK N   1      35.421  18.066  10.744  0.00  0.00     0.150 HD
HETATM   14  H   UNK N   1      35.151  16.335  10.841  0.00  0.00     0.150 HD
ENDBRANCH   1  12
TORSDOF 7
ENDMDL
MODEL 2
REMARK VINA RESULT:      -4.3      1.661      1.854
REMARK  7 active torsions:
REMARK  status: ('A' for Active; 'I' for Inactive)
REMARK    1  A    between atoms: C_2  and  C_1 
REMARK    2  A    between atoms: Se_11  and  C_1 
REMARK    3  A    between atoms: C_3  and  C_2 
REMARK    4  A    between atoms: C_2  and  N_4 
REMARK    5  A    between atoms: O_6  and  C_3 
REMARK    6  A    between atoms: Se_11  and  O_7 
REMARK    7  A    between atoms: Se_11  and  O_9 
ROOT
HETATM    1  C   UNK N   1      34.128  16.916   8.777  0.00  0.00     0.173 C 
ENDROOT
BRANCH   1   2
HETATM    2  C   UNK N   1      34.966  16.768  10.041  0.00  0.00     0.038 C 
BRANCH   2   3
HETATM    3 Se   UNK N   1      34.975  14.933  10.702  0.00  0.00     0.000 Se
BRANCH   3   4
HETATM    4  O   UNK N   1      33.408  15.071  11.184  0.00  0.00    -0.253 OA
ATOM      5  HO  UNK N   1      33.121  14.532  10.457  1.00  0.00     0.253 HD
ENDBRANCH   3   4
BRANCH   3   6
HETATM    6  O   UNK N   1      34.493  14.402   9.220  0.00  0.00    -0.253 OA
ATOM      7  HO  UNK N   1      33.768  15.015   9.237  1.00  0.00     0.253 HD
ENDBRANCH   3   6
ENDBRANCH   2   3
ENDBRANCH   1   2
BRANCH   1   8
HETATM    8  C   UNK N   1      34.572  18.106   7.963  0.00  0.00     0.163 C 
HETATM    9  O   UNK N   1      34.343  18.158   6.764  0.00  0.00    -0.648 OA
BRANCH   8  10
HETATM   10  O   UNK N   1      35.239  19.116   8.554  0.00  0.00    -0.775 OA
HETATM   11  H   UNK N   1      36.127  19.321   8.333  0.00  0.00     0.167 HD
ENDBRANCH   8  10
ENDBRANCH   1   8
BRANCH   1  12
HETATM   12  N   UNK N   1      32.736  17.064   9.171  0.00  0.00    -0.418 N 
HETATM   13  H   UNK N   1      32.450  17.218  10.138  0.00  0.00     0.150 HD
HETATM   14  H   UNK N   1      32.016  17.013   8.450  0.00  0.00     0.150 HD
ENDBRANCH   1  12
TORSDOF 7
ENDMDL
MODEL 3
REMARK VINA RESULT:      -4.1     14.894     15.638
REMARK  7 active torsions:
REMARK  status: ('A' for Active; 'I' for Inactive)
REMARK    1  A    between atoms: C_2  and  C_1 
REMARK    2  A    between atoms: Se_11  and  C_1 
REMARK    3  A    between atoms: C_3  and  C_2 
REMARK    4  A    between atoms: C_2  and  N_4 
REMARK    5  A    between atoms: O_6  and  C_3 
REMARK    6  A    between atoms: Se_11  and  O_7 
REMARK    7  A    between atoms: Se_11  and  O_9 
ROOT
HETATM    1  C   UNK N   1      19.957  17.902   2.430  0.00  0.00     0.173 C 
ENDROOT
BRANCH   1   2
HETATM    2  C   UNK N   1      21.128  18.795   2.820  0.00  0.00     0.038 C 
BRANCH   2   3
HETATM    3 Se   UNK N   1      20.851  20.646   2.271  0.00  0.00     0.000 Se
BRANCH   3   4
HETATM    4  O   UNK N   1      20.246  21.023   3.754  0.00  0.00    -0.253 OA
ATOM      5  HO  UNK N   1      20.197  21.941   3.518  1.00  0.00     0.253 HD
ENDBRANCH   3   4
BRANCH   3   6
HETATM    6  O   UNK N   1      22.373  21.020   2.775  0.00  0.00    -0.253 OA
ATOM      7  HO  UNK N   1      22.057  21.850   3.110  1.00  0.00     0.253 HD
ENDBRANCH   3   6
ENDBRANCH   2   3
ENDBRANCH   1   2
BRANCH   1   8
HETATM    8  C   UNK N   1      20.232  17.172   1.140  0.00  0.00     0.163 C 
HETATM    9  O   UNK N   1      20.421  15.965   1.137  0.00  0.00    -0.648 OA
BRANCH   8  10
HETATM   10  O   UNK N   1      20.287  17.851  -0.023  0.00  0.00    -0.775 OA
HETATM   11  H   UNK N   1      19.671  18.525  -0.233  0.00  0.00     0.167 HD
ENDBRANCH   8  10
ENDBRANCH   1   8
BRANCH   1  12
HETATM   12  N   UNK N   1      18.775  18.740   2.293  0.00  0.00    -0.418 N 
HETATM   13  H   UNK N   1      17.910  18.407   1.867  0.00  0.00     0.150 HD
HETATM   14  H   UNK N   1      18.813  19.699   2.637  0.00  0.00     0.150 HD
ENDBRANCH   1  12
TORSDOF 7
ENDMDL
MODEL 4
REMARK VINA RESULT:      -4.0     14.927     15.258
REMARK  7 active torsions:
REMARK  status: ('A' for Active; 'I' for Inactive)
REMARK    1  A    between atoms: C_2  and  C_1 
REMARK    2  A    between atoms: Se_11  and  C_1 
REMARK    3  A    between atoms: C_3  and  C_2 
REMARK    4  A    between atoms: C_2  and  N_4 
REMARK    5  A    between atoms: O_6  and  C_3 
REMARK    6  A    between atoms: Se_11  and  O_7 
REMARK    7  A    between atoms: Se_11  and  O_9 
ROOT
HETATM    1  C   UNK N   1      20.283  19.020   2.105  0.00  0.00     0.173 C 
ENDROOT
BRANCH   1   2
HETATM    2  C   UNK N   1      20.897  18.278   3.286  0.00  0.00     0.038 C 
BRANCH   2   3
HETATM    3 Se   UNK N   1      20.362  16.403   3.328  0.00  0.00     0.000 Se
BRANCH   3   4
HETATM    4  O   UNK N   1      18.945  16.796   4.065  0.00  0.00    -0.253 OA
ATOM      5  HO  UNK N   1      19.147  16.222   4.794  1.00  0.00     0.253 HD
ENDBRANCH   3   4
BRANCH   3   6
HETATM    6  O   UNK N   1      19.662  16.573   1.847  0.00  0.00    -0.253 OA
ATOM      7  HO  UNK N   1      19.022  17.168   2.220  1.00  0.00     0.253 HD
ENDBRANCH   3   6
ENDBRANCH   2   3
ENDBRANCH   1   2
BRANCH   1   8
HETATM    8  C   UNK N   1      20.978  20.336   1.865  0.00  0.00     0.163 C 
HETATM    9  O   UNK N   1      21.419  20.614   0.760  0.00  0.00    -0.648 OA
BRANCH   8  10
HETATM   10  O   UNK N   1      21.131  21.213   2.877  0.00  0.00    -0.775 OA
HETATM   11  H   UNK N   1      21.470  20.954   3.711  0.00  0.00     0.167 HD
ENDBRANCH   8  10
ENDBRANCH   1   8
BRANCH   1  12
HETATM   12  N   UNK N   1      18.873  19.238   2.390  0.00  0.00    -0.418 N 
HETATM   13  H   UNK N   1      18.179  19.388   1.658  0.00  0.00     0.150 HD
HETATM   14  H   UNK N   1      18.566  19.240   3.363  0.00  0.00     0.150 HD
ENDBRANCH   1  12
TORSDOF 7
ENDMDL
MODEL 5
REMARK VINA RESULT:      -3.9      2.342      2.703
REMARK  7 active torsions:
REMARK  status: ('A' for Active; 'I' for Inactive)
REMARK    1  A    between atoms: C_2  and  C_1 
REMARK    2  A    between atoms: Se_11  and  C_1 
REMARK    3  A    between atoms: C_3  and  C_2 
REMARK    4  A    between atoms: C_2  and  N_4 
REMARK    5  A    between atoms: O_6  and  C_3 
REMARK    6  A    between atoms: Se_11  and  O_7 
REMARK    7  A    between atoms: Se_11  and  O_9 
ROOT
HETATM    1  C   UNK N   1      34.513  15.500  10.557  0.00  0.00     0.173 C 
ENDROOT
BRANCH   1   2
HETATM    2  C   UNK N   1      34.272  14.991   9.141  0.00  0.00     0.038 C 
BRANCH   2   3
HETATM    3 Se   UNK N   1      32.381  14.663   8.795  0.00  0.00     0.000 Se
BRANCH   3   4
HETATM    4  O   UNK N   1      32.533  13.103   9.296  0.00  0.00    -0.253 OA
ATOM      5  HO  UNK N   1      32.213  13.333  10.159  1.00  0.00     0.253 HD
ENDBRANCH   3   4
BRANCH   3   6
HETATM    6  O   UNK N   1      32.021  15.142  10.328  0.00  0.00    -0.253 OA
ATOM      7  HO  UNK N   1      32.071  14.239  10.620  1.00  0.00     0.253 HD
ENDBRANCH   3   6
ENDBRANCH   2   3
ENDBRANCH   1   2
BRANCH   1   8
HETATM    8  C   UNK N   1      35.684  16.450  10.605  0.00  0.00     0.163 C 
HETATM    9  O   UNK N   1      35.544  17.624  10.299  0.00  0.00    -0.648 OA
BRANCH   8  10
HETATM   10  O   UNK N   1      36.900  16.003  10.973  0.00  0.00    -0.775 OA
HETATM   11  H   UNK N   1      37.028  15.144  11.323  0.00  0.00     0.167 HD
ENDBRANCH   8  10
ENDBRANCH   1   8
BRANCH   1  12
HETATM   12  N   UNK N   1      34.759  14.352  11.415  0.00  0.00    -0.418 N 
HETATM   13  H   UNK N   1      34.867  13.405  11.052  0.00  0.00     0.150 HD
HETATM   14  H   UNK N   1      34.827  14.500  12.422  0.00  0.00     0.150 HD
ENDBRANCH   1  12
TORSDOF 7
ENDMDL
MODEL 6
REMARK VINA RESULT:      -3.8     12.430     13.164
REMARK  7 active torsions:
REMARK  status: ('A' for Active; 'I' for Inactive)
REMARK    1  A    between atoms: C_2  and  C_1 
REMARK    2  A    between atoms: Se_11  and  C_1 
REMARK    3  A    between atoms: C_3  and  C_2 
REMARK    4  A    between atoms: C_2  and  N_4 
REMARK    5  A    between atoms: O_6  and  C_3 
REMARK    6  A    between atoms: Se_11  and  O_7 
REMARK    7  A    between atoms: Se_11  and  O_9 
ROOT
HETATM    1  C   UNK N   1      43.794  22.810   3.018  0.00  0.00     0.173 C 
ENDROOT
BRANCH   1   2
HETATM    2  C   UNK N   1      42.451  22.157   2.715  0.00  0.00     0.038 C 
BRANCH   2   3
HETATM    3 Se   UNK N   1      41.604  22.927   1.136  0.00  0.00     0.000 Se
BRANCH   3   4
HETATM    4  O   UNK N   1      41.092  24.224   2.010  0.00  0.00    -0.253 OA
ATOM      5  HO  UNK N   1      41.469  23.858   2.801  1.00  0.00     0.253 HD
ENDBRANCH   3   4
BRANCH   3   6
HETATM    6  O   UNK N   1      43.008  23.705   0.767  0.00  0.00    -0.253 OA
ATOM      7  HO  UNK N   1      42.588  24.541   0.937  1.00  0.00     0.253 HD
ENDBRANCH   3   6
ENDBRANCH   2   3
ENDBRANCH   1   2
BRANCH   1   8
HETATM    8  C   UNK N   1      44.741  21.834   3.670  0.00  0.00     0.163 C 
HETATM    9  O   UNK N   1      44.502  20.636   3.662  0.00  0.00    -0.648 OA
BRANCH   8  10
HETATM   10  O   UNK N   1      45.855  22.281   4.283  0.00  0.00    -0.775 OA
HETATM   11  H   UNK N   1      45.836  22.996   4.887  0.00  0.00     0.167 HD
ENDBRANCH   8  10
ENDBRANCH   1   8
BRANCH   1  12
HETATM   12  N   UNK N   1      43.558  23.947   3.894  0.00  0.00    -0.418 N 
HETATM   13  H   UNK N   1      43.306  24.870   3.543  0.00  0.00     0.150 HD
HETATM   14  H   UNK N   1      43.648  23.814   4.901  0.00  0.00     0.150 HD
ENDBRANCH   1  12
TORSDOF 7
ENDMDL
MODEL 7
REMARK VINA RESULT:      -3.8     14.275     14.818
REMARK  7 active torsions:
REMARK  status: ('A' for Active; 'I' for Inactive)
REMARK    1  A    between atoms: C_2  and  C_1 
REMARK    2  A    between atoms: Se_11  and  C_1 
REMARK    3  A    between atoms: C_3  and  C_2 
REMARK    4  A    between atoms: C_2  and  N_4 
REMARK    5  A    between atoms: O_6  and  C_3 
REMARK    6  A    between atoms: Se_11  and  O_7 
REMARK    7  A    between atoms: Se_11  and  O_9 
ROOT
HETATM    1  C   UNK N   1      20.482  19.067   2.403  0.00  0.00     0.173 C 
ENDROOT
BRANCH   1   2
HETATM    2  C   UNK N   1      20.855  19.479   3.822  0.00  0.00     0.038 C 
BRANCH   2   3
HETATM    3 Se   UNK N   1      21.738  18.037   4.793  0.00  0.00     0.000 Se
BRANCH   3   4
HETATM    4  O   UNK N   1      21.296  18.700   6.233  0.00  0.00    -0.253 OA
ATOM      5  HO  UNK N   1      22.150  18.507   6.601  1.00  0.00     0.253 HD
ENDBRANCH   3   4
BRANCH   3   6
HETATM    6  O   UNK N   1      20.345  17.159   4.748  0.00  0.00    -0.253 OA
ATOM      7  HO  UNK N   1      19.858  17.920   5.043  1.00  0.00     0.253 HD
ENDBRANCH   3   6
ENDBRANCH   2   3
ENDBRANCH   1   2
BRANCH   1   8
HETATM    8  C   UNK N   1      20.798  20.161   1.415  0.00  0.00     0.163 C 
HETATM    9  O   UNK N   1      21.197  21.250   1.800  0.00  0.00    -0.648 OA
BRANCH   8  10
HETATM   10  O   UNK N   1      20.626  19.950   0.095  0.00  0.00    -0.775 OA
HETATM   11  H   UNK N   1      19.997  20.429  -0.407  0.00  0.00     0.167 HD
ENDBRANCH   8  10
ENDBRANCH   1   8
BRANCH   1  12
HETATM   12  N   UNK N   1      19.059  18.761   2.379  0.00  0.00    -0.418 N 
HETATM   13  H   UNK N   1      18.342  19.463   2.559  0.00  0.00     0.150 HD
HETATM   14  H   UNK N   1      18.769  17.805   2.174  0.00  0.00     0.150 HD
ENDBRANCH   1  12
TORSDOF 7
ENDMDL
MODEL 8
REMARK VINA RESULT:      -3.8      2.047      4.121
REMARK  7 active torsions:
REMARK  status: ('A' for Active; 'I' for Inactive)
REMARK    1  A    between atoms: C_2  and  C_1 
REMARK    2  A    between atoms: Se_11  and  C_1 
REMARK    3  A    between atoms: C_3  and  C_2 
REMARK    4  A    between atoms: C_2  and  N_4 
REMARK    5  A    between atoms: O_6  and  C_3 
REMARK    6  A    between atoms: Se_11  and  O_7 
REMARK    7  A    between atoms: Se_11  and  O_9 
ROOT
HETATM    1  C   UNK N   1      34.273  15.448   8.833  0.00  0.00     0.173 C 
ENDROOT
BRANCH   1   2
HETATM    2  C   UNK N   1      34.724  16.834   9.278  0.00  0.00     0.038 C 
BRANCH   2   3
HETATM    3 Se   UNK N   1      33.952  18.243   8.172  0.00  0.00     0.000 Se
BRANCH   3   4
HETATM    4  O   UNK N   1      35.252  19.211   8.453  0.00  0.00    -0.253 OA
ATOM      5  HO  UNK N   1      35.838  18.556   8.094  1.00  0.00     0.253 HD
ENDBRANCH   3   4
BRANCH   3   6
HETATM    6  O   UNK N   1      34.691  17.602   6.848  0.00  0.00    -0.253 OA
ATOM      7  HO  UNK N   1      33.846  17.321   6.514  1.00  0.00     0.253 HD
ENDBRANCH   3   6
ENDBRANCH   2   3
ENDBRANCH   1   2
BRANCH   1   8
HETATM    8  C   UNK N   1      33.979  14.562  10.018  0.00  0.00     0.163 C 
HETATM    9  O   UNK N   1      34.317  13.388  10.015  0.00  0.00    -0.648 OA
BRANCH   8  10
HETATM   10  O   UNK N   1      33.326  15.059  11.087  0.00  0.00    -0.775 OA
HETATM   11  H   UNK N   1      33.662  15.779  11.583  0.00  0.00     0.167 HD
ENDBRANCH   8  10
ENDBRANCH   1   8
BRANCH   1  12
HETATM   12  N   UNK N   1      35.330  14.867   8.019  0.00  0.00    -0.418 N 
HETATM   13  H   UNK N   1      35.412  13.864   7.857  0.00  0.00     0.150 HD
HETATM   14  H   UNK N   1      36.016  15.490   7.593  0.00  0.00     0.150 HD
ENDBRANCH   1  12
TORSDOF 7
ENDMDL
MODEL 9
REMARK VINA RESULT:      -3.7      4.103      5.885
REMARK  7 active torsions:
REMARK  status: ('A' for Active; 'I' for Inactive)
REMARK    1  A    between atoms: C_2  and  C_1 
REMARK    2  A    between atoms: Se_11  and  C_1 
REMARK    3  A    between atoms: C_3  and  C_2 
REMARK    4  A    between atoms: C_2  and  N_4 
REMARK    5  A    between atoms: O_6  and  C_3 
REMARK    6  A    between atoms: Se_11  and  O_7 
REMARK    7  A    between atoms: Se_11  and  O_9 
ROOT
HETATM    1  C   UNK N   1      35.696  13.561  12.036  0.00  0.00     0.173 C 
ENDROOT
BRANCH   1   2
HETATM    2  C   UNK N   1      34.975  14.881  11.792  0.00  0.00     0.038 C 
BRANCH   2   3
HETATM    3 Se   UNK N   1      35.561  15.739  10.142  0.00  0.00     0.000 Se
BRANCH   3   4
HETATM    4  O   UNK N   1      34.923  17.175  10.630  0.00  0.00    -0.253 OA
ATOM      5  HO  UNK N   1      35.129  17.569   9.791  1.00  0.00     0.253 HD
ENDBRANCH   3   4
BRANCH   3   6
HETATM    6  O   UNK N   1      36.999  16.113  10.851  0.00  0.00    -0.253 OA
ATOM      7  HO  UNK N   1      37.348  15.270  10.585  1.00  0.00     0.253 HD
ENDBRANCH   3   6
ENDBRANCH   2   3
ENDBRANCH   1   2
BRANCH   1   8
HETATM    8  C   UNK N   1      34.833  12.603  12.819  0.00  0.00     0.163 C 
HETATM    9  O   UNK N   1      34.611  12.794  14.005  0.00  0.00    -0.648 OA
BRANCH   8  10
HETATM   10  O   UNK N   1      34.311  11.517  12.215  0.00  0.00    -0.775 OA
HETATM   11  H   UNK N   1      33.651  10.991  12.623  0.00  0.00     0.167 HD
ENDBRANCH   8  10
ENDBRANCH   1   8
BRANCH   1  12
HETATM   12  N   UNK N   1      36.924  13.843  12.763  0.00  0.00    -0.418 N 
HETATM   13  H   UNK N   1      36.975  14.533  13.513  0.00  0.00     0.150 HD
HETATM   14  H   UNK N   1      37.769  13.329  12.514  0.00  0.00     0.150 HD
ENDBRANCH   1  12
TORSDOF 7
ENDMDL
