REMARK  28 active torsions:
REMARK  status: ('A' for Active; 'I' for Inactive)
REMARK    1  A    between atoms: C_11  and  C_3 
REMARK    2  A    between atoms: C_12  and  C_3 
REMARK    3  A    between atoms: C_13  and  C_5 
REMARK    4  A    between atoms: O_52  and  C_5 
REMARK    5  A    between atoms: C_14  and  C_6 
REMARK    6  A    between atoms: O_53  and  C_6 
REMARK    7  A    between atoms: C_16  and  C_9 
REMARK    8  A    between atoms: C_22  and  C_10 
REMARK    9  A    between atoms: C_26  and  C_11 
REMARK   10  A    between atoms: C_11  and  N_27 
REMARK   11  A    between atoms: C_16  and  C_12 
REMARK   12  A    between atoms: C_16  and  O_40 
REMARK   13  A    between atoms: C_17  and  O_41 
REMARK   14  A    between atoms: C_18  and  O_42 
REMARK   15  A    between atoms: C_19  and  O_43 
REMARK   16  A    between atoms: C_20  and  O_44 
REMARK   17  A    between atoms: N_28  and  C_21 
REMARK   18  A    between atoms: N_29  and  C_22 
REMARK   19  A    between atoms: O_45  and  C_22 
REMARK   20  A    between atoms: C_24  and  N_37 
REMARK   21  A    between atoms: C_25  and  N_38 
REMARK   22  A    between atoms: O_47  and  C_26 
REMARK   23  A    between atoms: P_57  and  O_49 
REMARK   24  A    between atoms: P_58  and  O_51 
REMARK   25  A    between atoms: P_57  and  O_52 
REMARK   26  A    between atoms: P_58  and  O_53 
REMARK   27  A    between atoms: P_57  and  O_56 
REMARK   28  A    between atoms: P_58  and  O_56 
ROOT
HETATM    1  C   UNK N   1      -4.029  -2.629  -0.297  0.00  0.00     0.215 C 
ENDROOT
BRANCH   1   2
HETATM    2  C   UNK N   1      -4.918  -1.411  -0.335  0.00  0.00     0.180 C 
HETATM    3  C   UNK N   1      -4.306  -0.085  -0.692  0.00  0.00     0.182 C 
HETATM    4  C   UNK N   1      -5.528   0.784  -0.421  0.00  0.00     0.198 C 
HETATM    5  C   UNK N   1      -6.188   0.036   0.767  0.00  0.00     0.259 C 
HETATM    6  O   UNK N   1      -5.453  -1.161   0.935  0.00  0.00    -0.353 OA
BRANCH   3   7
HETATM    7  O   UNK N   1      -3.873  -0.012  -2.018  0.00  0.00    -0.390 OA
HETATM    8  H   UNK N   1      -3.679  -0.247  -2.938  0.00  0.00     0.210 HD
ENDBRANCH   3   7
BRANCH   4   9
HETATM    9  O   UNK N   1      -5.164   2.097  -0.109  0.00  0.00    -0.388 OA
HETATM   10  H   UNK N   1      -4.249   2.334   0.108  0.00  0.00     0.210 HD
ENDBRANCH   4   9
BRANCH   5  11
HETATM   11  N   UNK N   1      -7.596  -0.340   0.523  0.00  0.00    -0.336 N 
HETATM   12  C   UNK N   1      -7.883  -1.667   0.440  0.00  0.00     0.094 A 
HETATM   13  C   UNK N   1      -9.162  -2.119   0.301  0.00  0.00     0.028 A 
HETATM   14  C   UNK N   1     -10.230  -1.240   0.253  0.00  0.00    -0.005 A 
HETATM   15  C   UNK N   1      -9.949   0.166   0.304  0.00  0.00     0.039 A 
HETATM   16  C   UNK N   1      -8.601   0.578   0.445  0.00  0.00     0.109 A 
BRANCH  14  17
HETATM   17  C   UNK N   1     -11.634  -1.837   0.195  0.00  0.00     0.221 C 
BRANCH  17  18
HETATM   18  C   UNK N   1     -11.775  -3.323   0.540  0.00  0.00     0.162 C 
HETATM   19  O   UNK N   1     -10.820  -4.009   0.878  0.00  0.00    -0.295 OA
BRANCH  18  20
HETATM   20  C   UNK N   1     -13.135  -3.942   0.539  0.00  0.00     0.117 C 
BRANCH  20  21
HETATM   21  C   UNK N   1     -13.183  -5.235  -0.275  0.00  0.00     0.180 C 
BRANCH  21  22
HETATM   22  C   UNK N   1     -14.604  -5.625  -0.559  0.00  0.00     0.163 C 
HETATM   23  O   UNK N   1     -14.837  -6.628  -1.214  0.00  0.00    -0.648 OA
BRANCH  22  24
HETATM   24  O   UNK N   1     -15.630  -4.872  -0.111  0.00  0.00    -0.775 OA
HETATM   25  H   UNK N   1     -15.533  -3.994   0.200  0.00  0.00     0.167 HD
ENDBRANCH  22  24
ENDBRANCH  21  22
BRANCH  21  26
HETATM   26  N   UNK N   1     -12.529  -6.304   0.465  0.00  0.00    -0.417 N 
HETATM   27  H   UNK N   1     -12.949  -7.075   0.984  0.00  0.00     0.150 HD
HETATM   28  H   UNK N   1     -11.509  -6.278   0.465  0.00  0.00     0.150 HD
ENDBRANCH  21  26
ENDBRANCH  20  21
ENDBRANCH  18  20
ENDBRANCH  17  18
BRANCH  17  29
HETATM   29  O   UNK N   1     -12.181  -1.602  -1.068  0.00  0.00    -0.383 OA
HETATM   30  H   UNK N   1     -12.230  -1.191  -1.945  0.00  0.00     0.211 HD
ENDBRANCH  17  29
ENDBRANCH  14  17
BRANCH  15  31
HETATM   31  C   UNK N   1     -10.989   1.236   0.279  0.00  0.00     0.145 C 
BRANCH  31  32
HETATM   32  N   UNK N   1     -12.225   0.970   0.077  0.00  0.00    -0.379 N 
HETATM   33  H   UNK N   1     -12.878   1.691  -0.077  0.00  0.00     0.158 HD
ATOM     34  HN  UNK N   1     -12.538  -0.001   0.077  1.00  0.00     0.158 HD
ENDBRANCH  31  32
BRANCH  31  35
HETATM   35  O   UNK N   1     -10.625   2.518   0.477  0.00  0.00    -0.346 OA
HETATM   36  H   UNK N   1      -9.726   2.745   0.615  0.00  0.00     0.219 HD
ENDBRANCH  31  35
ENDBRANCH  15  31
ENDBRANCH   5  11
ENDBRANCH   1   2
BRANCH   1  37
HETATM   37  O   UNK N   1      -3.381  -2.751   0.932  0.00  0.00    -0.294 OA
BRANCH  37  38
HETATM   38  P   UNK N   1      -2.983  -4.441   1.056  0.00  0.00     0.401 P 
HETATM   39  O   UNK N   1      -2.018  -4.588   2.263  0.00  0.00    -0.631 OA
BRANCH  38  40
HETATM   40  O   UNK N   1      -4.379  -5.391   1.459  0.00  0.00    -0.307 OA
HETATM   41  H   UNK N   1      -5.229  -4.981   1.683  0.00  0.00     0.222 HD
ENDBRANCH  38  40
BRANCH  38  42
HETATM   42  O   UNK N   1      -2.148  -5.108  -0.329  0.00  0.00    -0.195 OA
BRANCH  42  43
HETATM   43  P   UNK N   1      -1.271  -3.845  -1.171  0.00  0.00     0.401 P 
HETATM   44  O   UNK N   1      -2.086  -3.590  -2.468  0.00  0.00    -0.631 OA
BRANCH  43  45
HETATM   45  O   UNK N   1       0.267  -4.412  -1.736  0.00  0.00    -0.307 OA
HETATM   46  H   UNK N   1       0.423  -5.316  -2.053  0.00  0.00     0.222 HD
ENDBRANCH  43  45
BRANCH  43  47
HETATM   47  O   UNK N   1      -1.157  -2.279  -0.403  0.00  0.00    -0.294 OA
BRANCH  47  48
HETATM   48  C   UNK N   1      -0.487  -2.455   0.813  0.00  0.00     0.215 C 
BRANCH  48  49
HETATM   49  C   UNK N   1       0.722  -1.542   0.888  0.00  0.00     0.180 C 
HETATM   50  C   UNK N   1       1.780  -1.977  -0.113  0.00  0.00     0.182 C 
HETATM   51  C   UNK N   1       2.524  -0.697  -0.239  0.00  0.00     0.198 C 
HETATM   52  C   UNK N   1       1.322   0.239  -0.374  0.00  0.00     0.262 C 
HETATM   53  O   UNK N   1       0.382  -0.195   0.593  0.00  0.00    -0.353 OA
BRANCH  50  54
HETATM   54  O   UNK N   1       2.561  -3.038   0.350  0.00  0.00    -0.390 OA
HETATM   55  H   UNK N   1       2.194  -3.877   0.672  0.00  0.00     0.210 HD
ENDBRANCH  50  54
BRANCH  51  56
HETATM   56  O   UNK N   1       3.365  -0.684  -1.354  0.00  0.00    -0.388 OA
HETATM   57  H   UNK N   1       3.665  -1.185  -2.128  0.00  0.00     0.210 HD
ENDBRANCH  51  56
BRANCH  52  58
HETATM   58  N   UNK N   1       1.636   1.665  -0.204  0.00  0.00    -0.297 N 
HETATM   59  C   UNK N   1       0.707   2.654  -0.141  0.00  0.00     0.188 A 
HETATM   60  N   UNK N   1       1.287   3.880  -0.009  0.00  0.00    -0.346 N 
HETATM   61  C   UNK N   1       2.606   3.625  -0.006  0.00  0.00     0.122 A 
ATOM     62  HN  UNK N   1       0.825   4.786   0.070  1.00  0.00     0.167 HD
HETATM   63  C   UNK N   1       3.679   4.499   0.075  0.00  0.00     0.131 A 
HETATM   64  C   UNK N   1       2.820   2.299  -0.118  0.00  0.00     0.142 A 
HETATM   65  N   UNK N   1       4.939   3.974   0.029  0.00  0.00    -0.337 N 
HETATM   66  C   UNK N   1       5.135   2.620  -0.091  0.00  0.00     0.183 A 
ATOM     67  HN  UNK N   1       5.746   4.596   0.084  1.00  0.00     0.168 HD
HETATM   68  N   UNK N   1       4.066   1.769  -0.166  0.00  0.00    -0.336 N 
ATOM     69  HN  UNK N   1       4.203   0.762  -0.255  1.00  0.00     0.168 HD
BRANCH  63  70
HETATM   70  N   UNK N   1       3.484   5.890   0.187  0.00  0.00    -0.383 N 
HETATM   71  H   UNK N   1       4.257   6.494   0.266  0.00  0.00     0.157 HD
HETATM   72  H   UNK N   1       2.571   6.259   0.187  0.00  0.00     0.157 HD
ENDBRANCH  63  70
ENDBRANCH  52  58
ENDBRANCH  48  49
ENDBRANCH  47  48
ENDBRANCH  43  47
ENDBRANCH  42  43
ENDBRANCH  38  42
ENDBRANCH  37  38
ENDBRANCH   1  37
TORSDOF 28
