MODEL 1
REMARK VINA RESULT:      -7.6      0.000      0.000
REMARK  13 active torsions:
REMARK  status: ('A' for Active; 'I' for Inactive)
REMARK    1  A    between atoms: C_9  and  C_8 
REMARK    2  A    between atoms: C_14  and  C_8 
REMARK    3  A    between atoms: N_26  and  C_9 
REMARK    4  A    between atoms: C_15  and  C_12 
REMARK    5  A    between atoms: C_21  and  C_12 
REMARK    6  A    between atoms: O_31  and  C_16 
REMARK    7  A    between atoms: C_23  and  C_17 
REMARK    8  A    between atoms: O_27  and  C_20 
REMARK    9  A    between atoms: O_28  and  C_21 
REMARK   10  A    between atoms: O_29  and  C_21 
REMARK   11  A    between atoms: O_31  and  C_22 
REMARK   12  A    between atoms: N_26  and  C_23 
REMARK   13  A    between atoms: O_30  and  C_23 
ROOT
HETATM    1  C   UNK N   1      25.725  16.079   2.932  0.00  0.00     0.040 A 
HETATM    2  C   UNK N   1      26.704  15.307   2.313  0.00  0.00     0.040 A 
HETATM    3  C   UNK N   1      27.442  17.374   4.038  0.00  0.00     0.051 A 
HETATM    4  C   UNK N   1      26.094  17.084   3.840  0.00  0.00     0.077 A 
HETATM    5  C   UNK N   1      28.437  16.613   3.416  0.00  0.00     0.025 A 
HETATM    6  C   UNK N   1      28.057  15.544   2.573  0.00  0.00     0.076 A 
ENDROOT
BRANCH   4   7
HETATM    7  O   UNK N   1      25.177  17.759   4.561  0.00  0.00    -0.308 OA
BRANCH   7   8
HETATM    8  C   UNK N   1      24.113  18.474   4.087  0.00  0.00     0.110 A 
HETATM    9  C   UNK N   1      22.836  17.904   4.234  0.00  0.00     0.046 A 
HETATM   10  C   UNK N   1      21.705  18.561   3.744  0.00  0.00     0.029 A 
HETATM   11 Br   UNK N   1      22.616  16.196   5.066  0.00  0.00    -0.048 Br
HETATM   12  C   UNK N   1      21.820  19.797   3.101  0.00  0.00    -0.046 A 
HETATM   13  C   UNK N   1      23.079  20.357   2.933  0.00  0.00     0.029 A 
HETATM   14  C   UNK N   1      24.229  19.726   3.400  0.00  0.00     0.046 A 
HETATM   15 Br   UNK N   1      25.860  20.618   2.913  0.00  0.00    -0.048 Br
BRANCH  12  16
HETATM   16  C   UNK N   1      20.650  20.556   2.537  0.00  0.00     0.145 C 
BRANCH  16  17
HETATM   17  C   UNK N   1      20.658  20.959   1.087  0.00  0.00     0.110 C 
BRANCH  17  18
HETATM   18  O   UNK N   1      20.600  22.267   0.781  0.00  0.00    -0.778 OA
HETATM   19  H   UNK N   1      20.984  22.589  -0.011  0.00  0.00     0.167 HD
ENDBRANCH  17  18
BRANCH  17  20
HETATM   20  O   UNK N   1      20.734  20.052   0.094  0.00  0.00    -0.778 OA
HETATM   21  H   UNK N   1      21.272  19.287   0.150  0.00  0.00     0.167 HD
ENDBRANCH  17  20
ENDBRANCH  16  17
ENDBRANCH  12  16
ENDBRANCH   7   8
ENDBRANCH   4   7
BRANCH   5  22
HETATM   22  C   UNK N   1      29.889  16.921   3.693  0.00  0.00     0.251 C 
BRANCH  22  23
HETATM   23  N   UNK N   1      30.464  15.913   4.560  0.00  0.00    -0.393 N 
HETATM   24  H   UNK N   1      30.238  14.918   4.580  0.00  0.00     0.156 HD
BRANCH  23  25
HETATM   25  C   UNK N   1      31.429  16.606   5.396  0.00  0.00     0.121 C 
BRANCH  25  26
HETATM   26  C   UNK N   1      31.329  16.109   6.826  0.00  0.00     0.058 C 
BRANCH  26  27
HETATM   27  C   UNK N   1      30.403  16.988   7.584  0.00  0.00    -0.057 A 
HETATM   28  C   UNK N   1      29.025  16.954   7.333  0.00  0.00     0.007 A 
HETATM   29  C   UNK N   1      28.159  17.749   8.085  0.00  0.00     0.001 A 
HETATM   30  C   UNK N   1      28.669  18.577   9.090  0.00  0.00     0.000 A 
HETATM   31  C   UNK N   1      30.046  18.614   9.337  0.00  0.00     0.001 A 
HETATM   32  C   UNK N   1      30.912  17.819   8.583  0.00  0.00     0.007 A 
ENDBRANCH  26  27
ENDBRANCH  25  26
ENDBRANCH  23  25
ENDBRANCH  22  23
BRANCH  22  33
HETATM   33  O   UNK N   1      30.634  16.983   2.510  0.00  0.00    -0.373 OA
HETATM   34  H   UNK N   1      30.391  16.611   1.648  0.00  0.00     0.212 HD
ENDBRANCH  22  33
ENDBRANCH   5  22
BRANCH   6  35
HETATM   35  O   UNK N   1      28.971  14.742   2.008  0.00  0.00    -0.360 OA
HETATM   36  H   UNK N   1      28.898  13.812   2.098  0.00  0.00     0.217 HD
ENDBRANCH   6  35
TORSDOF 13
ENDMDL
MODEL 2
REMARK VINA RESULT:      -7.6      3.200      5.181
REMARK  13 active torsions:
REMARK  status: ('A' for Active; 'I' for Inactive)
REMARK    1  A    between atoms: C_9  and  C_8 
REMARK    2  A    between atoms: C_14  and  C_8 
REMARK    3  A    between atoms: N_26  and  C_9 
REMARK    4  A    between atoms: C_15  and  C_12 
REMARK    5  A    between atoms: C_21  and  C_12 
REMARK    6  A    between atoms: O_31  and  C_16 
REMARK    7  A    between atoms: C_23  and  C_17 
REMARK    8  A    between atoms: O_27  and  C_20 
REMARK    9  A    between atoms: O_28  and  C_21 
REMARK   10  A    between atoms: O_29  and  C_21 
REMARK   11  A    between atoms: O_31  and  C_22 
REMARK   12  A    between atoms: N_26  and  C_23 
REMARK   13  A    between atoms: O_30  and  C_23 
ROOT
HETATM    1  C   UNK N   1      27.946  17.937   8.210  0.00  0.00     0.040 A 
HETATM    2  C   UNK N   1      28.350  17.616   9.503  0.00  0.00     0.040 A 
HETATM    3  C   UNK N   1      30.043  17.100   7.345  0.00  0.00     0.051 A 
HETATM    4  C   UNK N   1      28.818  17.728   7.131  0.00  0.00     0.077 A 
HETATM    5  C   UNK N   1      30.458  16.763   8.637  0.00  0.00     0.025 A 
HETATM    6  C   UNK N   1      29.612  17.060   9.729  0.00  0.00     0.076 A 
ENDROOT
BRANCH   4   7
HETATM    7  O   UNK N   1      28.520  18.150   5.887  0.00  0.00    -0.308 OA
BRANCH   7   8
HETATM    8  C   UNK N   1      27.287  18.477   5.395  0.00  0.00     0.110 A 
HETATM    9  C   UNK N   1      26.603  17.491   4.663  0.00  0.00     0.046 A 
HETATM   10  C   UNK N   1      25.353  17.763   4.100  0.00  0.00     0.029 A 
HETATM   11 Br   UNK N   1      27.381  15.767   4.376  0.00  0.00    -0.048 Br
HETATM   12  C   UNK N   1      24.759  19.018   4.257  0.00  0.00    -0.046 A 
HETATM   13  C   UNK N   1      25.437  20.004   4.960  0.00  0.00     0.029 A 
HETATM   14  C   UNK N   1      26.688  19.771   5.526  0.00  0.00     0.046 A 
HETATM   15 Br   UNK N   1      27.490  21.330   6.313  0.00  0.00    -0.048 Br
BRANCH  12  16
HETATM   16  C   UNK N   1      23.424  19.388   3.669  0.00  0.00     0.145 C 
BRANCH  16  17
HETATM   17  C   UNK N   1      23.313  20.603   2.789  0.00  0.00     0.110 C 
BRANCH  17  18
HETATM   18  O   UNK N   1      24.318  20.879   1.939  0.00  0.00    -0.778 OA
HETATM   19  H   UNK N   1      25.049  21.394   2.216  0.00  0.00     0.167 HD
ENDBRANCH  17  18
BRANCH  17  20
HETATM   20  O   UNK N   1      22.235  21.411   2.819  0.00  0.00    -0.778 OA
HETATM   21  H   UNK N   1      22.298  22.329   2.995  0.00  0.00     0.167 HD
ENDBRANCH  17  20
ENDBRANCH  16  17
ENDBRANCH  12  16
ENDBRANCH   7   8
ENDBRANCH   4   7
BRANCH   5  22
HETATM   22  C   UNK N   1      31.815  16.131   8.840  0.00  0.00     0.251 C 
BRANCH  22  23
HETATM   23  N   UNK N   1      32.796  17.139   9.189  0.00  0.00    -0.393 N 
HETATM   24  H   UNK N   1      32.712  17.852   9.914  0.00  0.00     0.156 HD
BRANCH  23  25
HETATM   25  C   UNK N   1      33.924  16.926   8.298  0.00  0.00     0.121 C 
BRANCH  25  26
HETATM   26  C   UNK N   1      33.868  17.910   7.146  0.00  0.00     0.058 C 
BRANCH  26  27
HETATM   27  C   UNK N   1      33.658  17.167   5.878  0.00  0.00    -0.057 A 
HETATM   28  C   UNK N   1      32.931  17.743   4.828  0.00  0.00     0.007 A 
HETATM   29  C   UNK N   1      32.780  17.055   3.624  0.00  0.00     0.001 A 
HETATM   30  C   UNK N   1      33.358  15.791   3.467  0.00  0.00     0.000 A 
HETATM   31  C   UNK N   1      34.079  15.214   4.517  0.00  0.00     0.001 A 
HETATM   32  C   UNK N   1      34.229  15.902   5.723  0.00  0.00     0.007 A 
ENDBRANCH  26  27
ENDBRANCH  25  26
ENDBRANCH  23  25
ENDBRANCH  22  23
BRANCH  22  33
HETATM   33  O   UNK N   1      31.782  15.159   9.846  0.00  0.00    -0.373 OA
HETATM   34  H   UNK N   1      31.303  15.208  10.689  0.00  0.00     0.212 HD
ENDBRANCH  22  33
ENDBRANCH   5  22
BRANCH   6  35
HETATM   35  O   UNK N   1      29.993  16.820  10.992  0.00  0.00    -0.360 OA
HETATM   36  H   UNK N   1      30.492  16.052  11.193  0.00  0.00     0.217 HD
ENDBRANCH   6  35
TORSDOF 13
ENDMDL
MODEL 3
REMARK VINA RESULT:      -7.6      0.373      2.058
REMARK  13 active torsions:
REMARK  status: ('A' for Active; 'I' for Inactive)
REMARK    1  A    between atoms: C_9  and  C_8 
REMARK    2  A    between atoms: C_14  and  C_8 
REMARK    3  A    between atoms: N_26  and  C_9 
REMARK    4  A    between atoms: C_15  and  C_12 
REMARK    5  A    between atoms: C_21  and  C_12 
REMARK    6  A    between atoms: O_31  and  C_16 
REMARK    7  A    between atoms: C_23  and  C_17 
REMARK    8  A    between atoms: O_27  and  C_20 
REMARK    9  A    between atoms: O_28  and  C_21 
REMARK   10  A    between atoms: O_29  and  C_21 
REMARK   11  A    between atoms: O_31  and  C_22 
REMARK   12  A    between atoms: N_26  and  C_23 
REMARK   13  A    between atoms: O_30  and  C_23 
ROOT
HETATM    1  C   UNK N   1      26.103  16.339   3.108  0.00  0.00     0.040 A 
HETATM    2  C   UNK N   1      27.022  15.432   2.587  0.00  0.00     0.040 A 
HETATM    3  C   UNK N   1      27.915  17.645   4.033  0.00  0.00     0.051 A 
HETATM    4  C   UNK N   1      26.549  17.422   3.880  0.00  0.00     0.077 A 
HETATM    5  C   UNK N   1      28.850  16.749   3.507  0.00  0.00     0.025 A 
HETATM    6  C   UNK N   1      28.390  15.609   2.807  0.00  0.00     0.076 A 
ENDROOT
BRANCH   4   7
HETATM    7  O   UNK N   1      25.688  18.241   4.515  0.00  0.00    -0.308 OA
BRANCH   7   8
HETATM    8  C   UNK N   1      24.497  18.720   4.043  0.00  0.00     0.110 A 
HETATM    9  C   UNK N   1      24.530  19.915   3.304  0.00  0.00     0.046 A 
HETATM   10  C   UNK N   1      23.349  20.482   2.819  0.00  0.00     0.029 A 
HETATM   11 Br   UNK N   1      26.183  20.821   2.980  0.00  0.00    -0.048 Br
HETATM   12  C   UNK N   1      22.114  19.872   3.057  0.00  0.00    -0.046 A 
HETATM   13  C   UNK N   1      22.070  18.703   3.805  0.00  0.00     0.029 A 
HETATM   14  C   UNK N   1      23.227  18.114   4.311  0.00  0.00     0.046 A 
HETATM   15 Br   UNK N   1      22.897  16.595   5.440  0.00  0.00    -0.048 Br
BRANCH  12  16
HETATM   16  C   UNK N   1      20.802  20.431   2.579  0.00  0.00     0.145 C 
BRANCH  16  17
HETATM   17  C   UNK N   1      20.672  20.906   1.158  0.00  0.00     0.110 C 
BRANCH  17  18
HETATM   18  O   UNK N   1      20.682  19.994   0.169  0.00  0.00    -0.778 OA
HETATM   19  H   UNK N   1      20.493  20.246  -0.713  0.00  0.00     0.167 HD
ENDBRANCH  17  18
BRANCH  17  20
HETATM   20  O   UNK N   1      20.534  22.210   0.850  0.00  0.00    -0.778 OA
HETATM   21  H   UNK N   1      20.204  22.840   1.460  0.00  0.00     0.167 HD
ENDBRANCH  17  20
ENDBRANCH  16  17
ENDBRANCH  12  16
ENDBRANCH   7   8
ENDBRANCH   4   7
BRANCH   5  22
HETATM   22  C   UNK N   1      30.323  16.991   3.735  0.00  0.00     0.251 C 
BRANCH  22  23
HETATM   23  N   UNK N   1      30.888  15.943   4.561  0.00  0.00    -0.393 N 
HETATM   24  H   UNK N   1      30.774  14.937   4.438  0.00  0.00     0.156 HD
BRANCH  23  25
HETATM   25  C   UNK N   1      31.650  16.617   5.599  0.00  0.00     0.121 C 
BRANCH  25  26
HETATM   26  C   UNK N   1      31.331  16.011   6.952  0.00  0.00     0.058 C 
BRANCH  26  27
HETATM   27  C   UNK N   1      30.416  16.919   7.690  0.00  0.00    -0.057 A 
HETATM   28  C   UNK N   1      30.912  17.777   8.680  0.00  0.00     0.007 A 
HETATM   29  C   UNK N   1      30.051  18.660   9.333  0.00  0.00     0.001 A 
HETATM   30  C   UNK N   1      28.695  18.688   8.995  0.00  0.00     0.000 A 
HETATM   31  C   UNK N   1      28.199  17.827   8.010  0.00  0.00     0.001 A 
HETATM   32  C   UNK N   1      29.060  16.943   7.358  0.00  0.00     0.007 A 
ENDBRANCH  26  27
ENDBRANCH  25  26
ENDBRANCH  23  25
ENDBRANCH  22  23
BRANCH  22  33
HETATM   33  O   UNK N   1      31.026  17.048   2.527  0.00  0.00    -0.373 OA
HETATM   34  H   UNK N   1      30.740  16.698   1.668  0.00  0.00     0.212 HD
ENDBRANCH  22  33
ENDBRANCH   5  22
BRANCH   6  35
HETATM   35  O   UNK N   1      29.243  14.685   2.343  0.00  0.00    -0.360 OA
HETATM   36  H   UNK N   1      29.010  14.162   1.601  0.00  0.00     0.217 HD
ENDBRANCH   6  35
TORSDOF 13
ENDMDL
MODEL 4
REMARK VINA RESULT:      -7.3      4.993      8.790
REMARK  13 active torsions:
REMARK  status: ('A' for Active; 'I' for Inactive)
REMARK    1  A    between atoms: C_9  and  C_8 
REMARK    2  A    between atoms: C_14  and  C_8 
REMARK    3  A    between atoms: N_26  and  C_9 
REMARK    4  A    between atoms: C_15  and  C_12 
REMARK    5  A    between atoms: C_21  and  C_12 
REMARK    6  A    between atoms: O_31  and  C_16 
REMARK    7  A    between atoms: C_23  and  C_17 
REMARK    8  A    between atoms: O_27  and  C_20 
REMARK    9  A    between atoms: O_28  and  C_21 
REMARK   10  A    between atoms: O_29  and  C_21 
REMARK   11  A    between atoms: O_31  and  C_22 
REMARK   12  A    between atoms: N_26  and  C_23 
REMARK   13  A    between atoms: O_30  and  C_23 
ROOT
HETATM    1  C   UNK N   1      21.987  15.073   4.459  0.00  0.00     0.040 A 
HETATM    2  C   UNK N   1      21.579  15.192   3.133  0.00  0.00     0.040 A 
HETATM    3  C   UNK N   1      20.991  17.218   4.960  0.00  0.00     0.051 A 
HETATM    4  C   UNK N   1      21.738  16.115   5.365  0.00  0.00     0.077 A 
HETATM    5  C   UNK N   1      20.566  17.348   3.634  0.00  0.00     0.025 A 
HETATM    6  C   UNK N   1      20.899  16.335   2.705  0.00  0.00     0.076 A 
ENDROOT
BRANCH   4   7
HETATM    7  O   UNK N   1      22.235  16.098   6.617  0.00  0.00    -0.308 OA
BRANCH   7   8
HETATM    8  C   UNK N   1      22.437  15.007   7.415  0.00  0.00     0.110 A 
HETATM    9  C   UNK N   1      21.460  14.730   8.388  0.00  0.00     0.046 A 
HETATM   10  C   UNK N   1      21.614  13.651   9.262  0.00  0.00     0.029 A 
HETATM   11 Br   UNK N   1      19.918  15.845   8.572  0.00  0.00    -0.048 Br
HETATM   12  C   UNK N   1      22.741  12.826   9.185  0.00  0.00    -0.046 A 
HETATM   13  C   UNK N   1      23.720  13.105   8.243  0.00  0.00     0.029 A 
HETATM   14  C   UNK N   1      23.604  14.178   7.361  0.00  0.00     0.046 A 
HETATM   15 Br   UNK N   1      25.153  14.452   6.257  0.00  0.00    -0.048 Br
BRANCH  12  16
HETATM   16  C   UNK N   1      22.982  11.657  10.100  0.00  0.00     0.145 C 
BRANCH  16  17
HETATM   17  C   UNK N   1      23.545  11.895  11.475  0.00  0.00     0.110 C 
BRANCH  17  18
HETATM   18  O   UNK N   1      22.758  11.672  12.543  0.00  0.00    -0.778 OA
HETATM   19  H   UNK N   1      22.520  10.800  12.785  0.00  0.00     0.167 HD
ENDBRANCH  17  18
BRANCH  17  20
HETATM   20  O   UNK N   1      24.812  12.310  11.666  0.00  0.00    -0.778 OA
HETATM   21  H   UNK N   1      25.034  13.212  11.792  0.00  0.00     0.167 HD
ENDBRANCH  17  20
ENDBRANCH  16  17
ENDBRANCH  12  16
ENDBRANCH   7   8
ENDBRANCH   4   7
BRANCH   5  22
HETATM   22  C   UNK N   1      19.802  18.582   3.216  0.00  0.00     0.251 C 
BRANCH  22  23
HETATM   23  N   UNK N   1      20.616  19.411   2.350  0.00  0.00    -0.393 N 
HETATM   24  H   UNK N   1      20.577  19.458   1.331  0.00  0.00     0.156 HD
BRANCH  23  25
HETATM   25  C   UNK N   1      21.496  20.164   3.227  0.00  0.00     0.121 C 
BRANCH  25  26
HETATM   26  C   UNK N   1      22.728  20.612   2.466  0.00  0.00     0.058 C 
BRANCH  26  27
HETATM   27  C   UNK N   1      23.939  20.076   3.139  0.00  0.00    -0.057 A 
HETATM   28  C   UNK N   1      23.841  18.992   4.021  0.00  0.00     0.007 A 
HETATM   29  C   UNK N   1      24.992  18.467   4.610  0.00  0.00     0.001 A 
HETATM   30  C   UNK N   1      26.241  19.022   4.316  0.00  0.00     0.000 A 
HETATM   31  C   UNK N   1      26.337  20.108   3.439  0.00  0.00     0.001 A 
HETATM   32  C   UNK N   1      25.186  20.635   2.850  0.00  0.00     0.007 A 
ENDBRANCH  26  27
ENDBRANCH  25  26
ENDBRANCH  23  25
ENDBRANCH  22  23
BRANCH  22  33
HETATM   33  O   UNK N   1      18.619  18.249   2.547  0.00  0.00    -0.373 OA
HETATM   34  H   UNK N   1      18.539  17.838   1.672  0.00  0.00     0.212 HD
ENDBRANCH  22  33
ENDBRANCH   5  22
BRANCH   6  35
HETATM   35  O   UNK N   1      20.575  16.445   1.409  0.00  0.00    -0.360 OA
HETATM   36  H   UNK N   1      20.498  15.676   0.878  0.00  0.00     0.217 HD
ENDBRANCH   6  35
TORSDOF 13
ENDMDL
MODEL 5
REMARK VINA RESULT:      -7.3      4.320      8.096
REMARK  13 active torsions:
REMARK  status: ('A' for Active; 'I' for Inactive)
REMARK    1  A    between atoms: C_9  and  C_8 
REMARK    2  A    between atoms: C_14  and  C_8 
REMARK    3  A    between atoms: N_26  and  C_9 
REMARK    4  A    between atoms: C_15  and  C_12 
REMARK    5  A    between atoms: C_21  and  C_12 
REMARK    6  A    between atoms: O_31  and  C_16 
REMARK    7  A    between atoms: C_23  and  C_17 
REMARK    8  A    between atoms: O_27  and  C_20 
REMARK    9  A    between atoms: O_28  and  C_21 
REMARK   10  A    between atoms: O_29  and  C_21 
REMARK   11  A    between atoms: O_31  and  C_22 
REMARK   12  A    between atoms: N_26  and  C_23 
REMARK   13  A    between atoms: O_30  and  C_23 
ROOT
HETATM    1  C   UNK N   1      24.896  20.203   2.902  0.00  0.00     0.040 A 
HETATM    2  C   UNK N   1      23.516  20.389   2.891  0.00  0.00     0.040 A 
HETATM    3  C   UNK N   1      24.647  18.442   4.540  0.00  0.00     0.051 A 
HETATM    4  C   UNK N   1      25.470  19.262   3.770  0.00  0.00     0.077 A 
HETATM    5  C   UNK N   1      23.260  18.609   4.532  0.00  0.00     0.025 A 
HETATM    6  C   UNK N   1      22.695  19.622   3.722  0.00  0.00     0.076 A 
ENDROOT
BRANCH   4   7
HETATM    7  O   UNK N   1      26.804  19.148   3.910  0.00  0.00    -0.308 OA
BRANCH   7   8
HETATM    8  C   UNK N   1      27.499  18.897   5.061  0.00  0.00     0.110 A 
HETATM    9  C   UNK N   1      28.132  17.647   5.172  0.00  0.00     0.046 A 
HETATM   10  C   UNK N   1      28.832  17.306   6.332  0.00  0.00     0.029 A 
HETATM   11 Br   UNK N   1      28.016  16.362   3.761  0.00  0.00    -0.048 Br
HETATM   12  C   UNK N   1      28.917  18.202   7.403  0.00  0.00    -0.046 A 
HETATM   13  C   UNK N   1      28.277  19.430   7.310  0.00  0.00     0.029 A 
HETATM   14  C   UNK N   1      27.563  19.799   6.172  0.00  0.00     0.046 A 
HETATM   15 Br   UNK N   1      26.640  21.476   6.341  0.00  0.00    -0.048 Br
BRANCH  12  16
HETATM   16  C   UNK N   1      29.640  17.899   8.687  0.00  0.00     0.145 C 
BRANCH  16  17
HETATM   17  C   UNK N   1      28.925  17.156   9.782  0.00  0.00     0.110 C 
BRANCH  17  18
HETATM   18  O   UNK N   1      29.639  16.707  10.830  0.00  0.00    -0.778 OA
HETATM   19  H   UNK N   1      29.253  16.129  11.457  0.00  0.00     0.167 HD
ENDBRANCH  17  18
BRANCH  17  20
HETATM   20  O   UNK N   1      27.596  16.940   9.750  0.00  0.00    -0.778 OA
HETATM   21  H   UNK N   1      26.986  17.480  10.212  0.00  0.00     0.167 HD
ENDBRANCH  17  20
ENDBRANCH  16  17
ENDBRANCH  12  16
ENDBRANCH   7   8
ENDBRANCH   4   7
BRANCH   5  22
HETATM   22  C   UNK N   1      22.401  17.739   5.418  0.00  0.00     0.251 C 
BRANCH  22  23
HETATM   23  N   UNK N   1      23.204  16.717   6.057  0.00  0.00    -0.393 N 
HETATM   24  H   UNK N   1      24.222  16.697   6.138  0.00  0.00     0.156 HD
BRANCH  23  25
HETATM   25  C   UNK N   1      22.268  15.728   6.561  0.00  0.00     0.121 C 
BRANCH  25  26
HETATM   26  C   UNK N   1      23.018  14.496   7.032  0.00  0.00     0.058 C 
BRANCH  26  27
HETATM   27  C   UNK N   1      22.378  13.978   8.268  0.00  0.00    -0.057 A 
HETATM   28  C   UNK N   1      21.105  14.421   8.649  0.00  0.00     0.007 A 
HETATM   29  C   UNK N   1      20.494  13.891   9.787  0.00  0.00     0.001 A 
HETATM   30  C   UNK N   1      21.153  12.916  10.542  0.00  0.00     0.000 A 
HETATM   31  C   UNK N   1      22.426  12.478  10.163  0.00  0.00     0.001 A 
HETATM   32  C   UNK N   1      23.039  13.009   9.026  0.00  0.00     0.007 A 
ENDBRANCH  26  27
ENDBRANCH  25  26
ENDBRANCH  23  25
ENDBRANCH  22  23
BRANCH  22  33
HETATM   33  O   UNK N   1      21.753  18.493   6.403  0.00  0.00    -0.373 OA
HETATM   34  H   UNK N   1      21.014  19.108   6.275  0.00  0.00     0.212 HD
ENDBRANCH  22  33
ENDBRANCH   5  22
BRANCH   6  35
HETATM   35  O   UNK N   1      21.377  19.869   3.732  0.00  0.00    -0.360 OA
HETATM   36  H   UNK N   1      20.770  19.182   3.537  0.00  0.00     0.217 HD
ENDBRANCH   6  35
TORSDOF 13
ENDMDL
MODEL 6
REMARK VINA RESULT:      -7.3      4.393      7.360
REMARK  13 active torsions:
REMARK  status: ('A' for Active; 'I' for Inactive)
REMARK    1  A    between atoms: C_9  and  C_8 
REMARK    2  A    between atoms: C_14  and  C_8 
REMARK    3  A    between atoms: N_26  and  C_9 
REMARK    4  A    between atoms: C_15  and  C_12 
REMARK    5  A    between atoms: C_21  and  C_12 
REMARK    6  A    between atoms: O_31  and  C_16 
REMARK    7  A    between atoms: C_23  and  C_17 
REMARK    8  A    between atoms: O_27  and  C_20 
REMARK    9  A    between atoms: O_28  and  C_21 
REMARK   10  A    between atoms: O_29  and  C_21 
REMARK   11  A    between atoms: O_31  and  C_22 
REMARK   12  A    between atoms: N_26  and  C_23 
REMARK   13  A    between atoms: O_30  and  C_23 
ROOT
HETATM    1  C   UNK N   1      32.646  17.812   7.635  0.00  0.00     0.040 A 
HETATM    2  C   UNK N   1      33.846  17.909   8.333  0.00  0.00     0.040 A 
HETATM    3  C   UNK N   1      32.256  15.631   8.605  0.00  0.00     0.051 A 
HETATM    4  C   UNK N   1      31.872  16.645   7.730  0.00  0.00     0.077 A 
HETATM    5  C   UNK N   1      33.454  15.719   9.321  0.00  0.00     0.025 A 
HETATM    6  C   UNK N   1      34.273  16.859   9.150  0.00  0.00     0.076 A 
ENDROOT
BRANCH   4   7
HETATM    7  O   UNK N   1      30.778  16.456   6.967  0.00  0.00    -0.308 OA
BRANCH   7   8
HETATM    8  C   UNK N   1      29.793  17.363   6.691  0.00  0.00     0.110 A 
HETATM    9  C   UNK N   1      29.528  17.635   5.337  0.00  0.00     0.046 A 
HETATM   10  C   UNK N   1      28.559  18.576   4.979  0.00  0.00     0.029 A 
HETATM   11 Br   UNK N   1      30.515  16.762   3.951  0.00  0.00    -0.048 Br
HETATM   12  C   UNK N   1      27.834  19.262   5.958  0.00  0.00    -0.046 A 
HETATM   13  C   UNK N   1      28.104  19.015   7.296  0.00  0.00     0.029 A 
HETATM   14  C   UNK N   1      29.069  18.091   7.690  0.00  0.00     0.046 A 
HETATM   15 Br   UNK N   1      29.369  18.038   9.587  0.00  0.00    -0.048 Br
BRANCH  12  16
HETATM   16  C   UNK N   1      26.787  20.297   5.648  0.00  0.00     0.145 C 
BRANCH  16  17
HETATM   17  C   UNK N   1      25.574  19.907   4.848  0.00  0.00     0.110 C 
BRANCH  17  18
HETATM   18  O   UNK N   1      24.737  18.983   5.353  0.00  0.00    -0.778 OA
HETATM   19  H   UNK N   1      23.822  19.010   5.157  0.00  0.00     0.167 HD
ENDBRANCH  17  18
BRANCH  17  20
HETATM   20  O   UNK N   1      25.296  20.464   3.654  0.00  0.00    -0.778 OA
HETATM   21  H   UNK N   1      24.485  20.899   3.477  0.00  0.00     0.167 HD
ENDBRANCH  17  20
ENDBRANCH  16  17
ENDBRANCH  12  16
ENDBRANCH   7   8
ENDBRANCH   4   7
BRANCH   5  22
HETATM   22  C   UNK N   1      33.867  14.580  10.221  0.00  0.00     0.251 C 
BRANCH  22  23
HETATM   23  N   UNK N   1      35.205  14.132   9.893  0.00  0.00    -0.393 N 
HETATM   24  H   UNK N   1      36.082  14.603  10.118  0.00  0.00     0.156 HD
BRANCH  23  25
HETATM   25  C   UNK N   1      35.044  12.879   9.176  0.00  0.00     0.121 C 
BRANCH  25  26
HETATM   26  C   UNK N   1      35.808  12.928   7.867  0.00  0.00     0.058 C 
BRANCH  26  27
HETATM   27  C   UNK N   1      35.000  13.658   6.857  0.00  0.00    -0.057 A 
HETATM   28  C   UNK N   1      35.458  14.868   6.321  0.00  0.00     0.007 A 
HETATM   29  C   UNK N   1      34.713  15.521   5.338  0.00  0.00     0.001 A 
HETATM   30  C   UNK N   1      33.512  14.964   4.888  0.00  0.00     0.000 A 
HETATM   31  C   UNK N   1      33.053  13.757   5.428  0.00  0.00     0.001 A 
HETATM   32  C   UNK N   1      33.798  13.104   6.413  0.00  0.00     0.007 A 
ENDBRANCH  26  27
ENDBRANCH  25  26
ENDBRANCH  23  25
ENDBRANCH  22  23
BRANCH  22  33
HETATM   33  O   UNK N   1      33.830  14.953  11.569  0.00  0.00    -0.373 OA
HETATM   34  H   UNK N   1      34.413  15.587  12.015  0.00  0.00     0.212 HD
ENDBRANCH  22  33
ENDBRANCH   5  22
BRANCH   6  35
HETATM   35  O   UNK N   1      35.463  16.960   9.759  0.00  0.00    -0.360 OA
HETATM   36  H   UNK N   1      36.187  16.442   9.463  0.00  0.00     0.217 HD
ENDBRANCH   6  35
TORSDOF 13
ENDMDL
MODEL 7
REMARK VINA RESULT:      -7.2      5.873      9.976
REMARK  13 active torsions:
REMARK  status: ('A' for Active; 'I' for Inactive)
REMARK    1  A    between atoms: C_9  and  C_8 
REMARK    2  A    between atoms: C_14  and  C_8 
REMARK    3  A    between atoms: N_26  and  C_9 
REMARK    4  A    between atoms: C_15  and  C_12 
REMARK    5  A    between atoms: C_21  and  C_12 
REMARK    6  A    between atoms: O_31  and  C_16 
REMARK    7  A    between atoms: C_23  and  C_17 
REMARK    8  A    between atoms: O_27  and  C_20 
REMARK    9  A    between atoms: O_28  and  C_21 
REMARK   10  A    between atoms: O_29  and  C_21 
REMARK   11  A    between atoms: O_31  and  C_22 
REMARK   12  A    between atoms: N_26  and  C_23 
REMARK   13  A    between atoms: O_30  and  C_23 
ROOT
HETATM    1  C   UNK N   1      23.160  15.336   5.924  0.00  0.00     0.040 A 
HETATM    2  C   UNK N   1      23.522  16.576   5.405  0.00  0.00     0.040 A 
HETATM    3  C   UNK N   1      20.923  15.622   5.051  0.00  0.00     0.051 A 
HETATM    4  C   UNK N   1      21.840  14.879   5.792  0.00  0.00     0.077 A 
HETATM    5  C   UNK N   1      21.275  16.864   4.515  0.00  0.00     0.025 A 
HETATM    6  C   UNK N   1      22.582  17.359   4.729  0.00  0.00     0.076 A 
ENDROOT
BRANCH   4   7
HETATM    7  O   UNK N   1      21.416  13.753   6.397  0.00  0.00    -0.308 OA
BRANCH   7   8
HETATM    8  C   UNK N   1      21.674  13.352   7.679  0.00  0.00     0.110 A 
HETATM    9  C   UNK N   1      22.413  12.169   7.848  0.00  0.00     0.046 A 
HETATM   10  C   UNK N   1      22.686  11.679   9.128  0.00  0.00     0.029 A 
HETATM   11 Br   UNK N   1      23.027  11.172   6.336  0.00  0.00    -0.048 Br
HETATM   12  C   UNK N   1      22.231  12.357  10.263  0.00  0.00    -0.046 A 
HETATM   13  C   UNK N   1      21.482  13.514  10.104  0.00  0.00     0.029 A 
HETATM   14  C   UNK N   1      21.183  14.027   8.844  0.00  0.00     0.046 A 
HETATM   15 Br   UNK N   1      20.007  15.545   8.878  0.00  0.00    -0.048 Br
BRANCH  12  16
HETATM   16  C   UNK N   1      22.474  11.883  11.670  0.00  0.00     0.145 C 
BRANCH  16  17
HETATM   17  C   UNK N   1      23.793  12.172  12.332  0.00  0.00     0.110 C 
BRANCH  17  18
HETATM   18  O   UNK N   1      23.830  12.303  13.670  0.00  0.00    -0.778 OA
HETATM   19  H   UNK N   1      23.470  11.638  14.224  0.00  0.00     0.167 HD
ENDBRANCH  17  18
BRANCH  17  20
HETATM   20  O   UNK N   1      24.935  12.290  11.628  0.00  0.00    -0.778 OA
HETATM   21  H   UNK N   1      25.556  11.592  11.554  0.00  0.00     0.167 HD
ENDBRANCH  17  20
ENDBRANCH  16  17
ENDBRANCH  12  16
ENDBRANCH   7   8
ENDBRANCH   4   7
BRANCH   5  22
HETATM   22  C   UNK N   1      20.242  17.667   3.761  0.00  0.00     0.251 C 
BRANCH  22  23
HETATM   23  N   UNK N   1      20.638  17.830   2.377  0.00  0.00    -0.393 N 
HETATM   24  H   UNK N   1      21.362  18.452   2.015  0.00  0.00     0.156 HD
BRANCH  23  25
HETATM   25  C   UNK N   1      19.795  16.930   1.609  0.00  0.00     0.121 C 
BRANCH  25  26
HETATM   26  C   UNK N   1      20.650  16.055   0.714  0.00  0.00     0.058 C 
BRANCH  26  27
HETATM   27  C   UNK N   1      21.118  14.876   1.486  0.00  0.00    -0.057 A 
HETATM   28  C   UNK N   1      20.207  13.908   1.928  0.00  0.00     0.007 A 
HETATM   29  C   UNK N   1      20.664  12.780   2.611  0.00  0.00     0.001 A 
HETATM   30  C   UNK N   1      22.032  12.617   2.851  0.00  0.00     0.000 A 
HETATM   31  C   UNK N   1      22.941  13.587   2.414  0.00  0.00     0.001 A 
HETATM   32  C   UNK N   1      22.483  14.716   1.732  0.00  0.00     0.007 A 
ENDBRANCH  26  27
ENDBRANCH  25  26
ENDBRANCH  23  25
ENDBRANCH  22  23
BRANCH  22  33
HETATM   33  O   UNK N   1      18.984  17.055   3.806  0.00  0.00    -0.373 OA
HETATM   34  H   UNK N   1      18.123  17.481   3.668  0.00  0.00     0.212 HD
ENDBRANCH  22  33
ENDBRANCH   5  22
BRANCH   6  35
HETATM   35  O   UNK N   1      22.947  18.574   4.296  0.00  0.00    -0.360 OA
HETATM   36  H   UNK N   1      22.903  19.311   4.874  0.00  0.00     0.217 HD
ENDBRANCH   6  35
TORSDOF 13
ENDMDL
MODEL 8
REMARK VINA RESULT:      -7.2      1.536      2.019
REMARK  13 active torsions:
REMARK  status: ('A' for Active; 'I' for Inactive)
REMARK    1  A    between atoms: C_9  and  C_8 
REMARK    2  A    between atoms: C_14  and  C_8 
REMARK    3  A    between atoms: N_26  and  C_9 
REMARK    4  A    between atoms: C_15  and  C_12 
REMARK    5  A    between atoms: C_21  and  C_12 
REMARK    6  A    between atoms: O_31  and  C_16 
REMARK    7  A    between atoms: C_23  and  C_17 
REMARK    8  A    between atoms: O_27  and  C_20 
REMARK    9  A    between atoms: O_28  and  C_21 
REMARK   10  A    between atoms: O_29  and  C_21 
REMARK   11  A    between atoms: O_31  and  C_22 
REMARK   12  A    between atoms: N_26  and  C_23 
REMARK   13  A    between atoms: O_30  and  C_23 
ROOT
HETATM    1  C   UNK N   1      25.601  15.862   2.749  0.00  0.00     0.040 A 
HETATM    2  C   UNK N   1      26.596  15.133   2.102  0.00  0.00     0.040 A 
HETATM    3  C   UNK N   1      27.291  17.087   3.969  0.00  0.00     0.051 A 
HETATM    4  C   UNK N   1      25.948  16.807   3.726  0.00  0.00     0.077 A 
HETATM    5  C   UNK N   1      28.301  16.371   3.321  0.00  0.00     0.025 A 
HETATM    6  C   UNK N   1      27.941  15.356   2.403  0.00  0.00     0.076 A 
ENDROOT
BRANCH   4   7
HETATM    7  O   UNK N   1      25.015  17.432   4.470  0.00  0.00    -0.308 OA
BRANCH   7   8
HETATM    8  C   UNK N   1      23.999  18.231   4.025  0.00  0.00     0.110 A 
HETATM    9  C   UNK N   1      22.697  17.702   4.066  0.00  0.00     0.046 A 
HETATM   10  C   UNK N   1      21.613  18.447   3.597  0.00  0.00     0.029 A 
HETATM   11 Br   UNK N   1      22.379  15.933   4.720  0.00  0.00    -0.048 Br
HETATM   12  C   UNK N   1      21.801  19.733   3.081  0.00  0.00    -0.046 A 
HETATM   13  C   UNK N   1      23.085  20.255   3.017  0.00  0.00     0.029 A 
HETATM   14  C   UNK N   1      24.191  19.537   3.467  0.00  0.00     0.046 A 
HETATM   15 Br   UNK N   1      25.872  20.404   3.133  0.00  0.00    -0.048 Br
BRANCH  12  16
HETATM   16  C   UNK N   1      20.685  20.588   2.545  0.00  0.00     0.145 C 
BRANCH  16  17
HETATM   17  C   UNK N   1      20.685  20.984   1.094  0.00  0.00     0.110 C 
BRANCH  17  18
HETATM   18  O   UNK N   1      20.764  20.017   0.161  0.00  0.00    -0.778 OA
HETATM   19  H   UNK N   1      21.539  19.916  -0.355  0.00  0.00     0.167 HD
ENDBRANCH  17  18
BRANCH  17  20
HETATM   20  O   UNK N   1      20.595  22.269   0.703  0.00  0.00    -0.778 OA
HETATM   21  H   UNK N   1      21.226  22.670   0.138  0.00  0.00     0.167 HD
ENDBRANCH  17  20
ENDBRANCH  16  17
ENDBRANCH  12  16
ENDBRANCH   7   8
ENDBRANCH   4   7
BRANCH   5  22
HETATM   22  C   UNK N   1      29.746  16.663   3.646  0.00  0.00     0.251 C 
BRANCH  22  23
HETATM   23  N   UNK N   1      30.323  15.578   4.412  0.00  0.00    -0.393 N 
HETATM   24  H   UNK N   1      29.899  14.670   4.607  0.00  0.00     0.156 HD
BRANCH  23  25
HETATM   25  C   UNK N   1      31.629  16.044   4.847  0.00  0.00     0.121 C 
BRANCH  25  26
HETATM   26  C   UNK N   1      31.471  17.202   5.814  0.00  0.00     0.058 C 
BRANCH  26  27
HETATM   27  C   UNK N   1      32.415  17.024   6.946  0.00  0.00    -0.057 A 
HETATM   28  C   UNK N   1      32.285  15.933   7.816  0.00  0.00     0.007 A 
HETATM   29  C   UNK N   1      33.206  15.751   8.848  0.00  0.00     0.001 A 
HETATM   30  C   UNK N   1      34.259  16.656   9.010  0.00  0.00     0.000 A 
HETATM   31  C   UNK N   1      34.385  17.748   8.145  0.00  0.00     0.001 A 
HETATM   32  C   UNK N   1      33.462  17.932   7.113  0.00  0.00     0.007 A 
ENDBRANCH  26  27
ENDBRANCH  25  26
ENDBRANCH  23  25
ENDBRANCH  22  23
BRANCH  22  33
HETATM   33  O   UNK N   1      30.504  16.854   2.485  0.00  0.00    -0.373 OA
HETATM   34  H   UNK N   1      31.444  16.650   2.362  0.00  0.00     0.212 HD
ENDBRANCH  22  33
ENDBRANCH   5  22
BRANCH   6  35
HETATM   35  O   UNK N   1      28.870  14.595   1.807  0.00  0.00    -0.360 OA
HETATM   36  H   UNK N   1      28.670  14.152   1.005  0.00  0.00     0.217 HD
ENDBRANCH   6  35
TORSDOF 13
ENDMDL
MODEL 9
REMARK VINA RESULT:      -7.1      5.817      8.064
REMARK  13 active torsions:
REMARK  status: ('A' for Active; 'I' for Inactive)
REMARK    1  A    between atoms: C_9  and  C_8 
REMARK    2  A    between atoms: C_14  and  C_8 
REMARK    3  A    between atoms: N_26  and  C_9 
REMARK    4  A    between atoms: C_15  and  C_12 
REMARK    5  A    between atoms: C_21  and  C_12 
REMARK    6  A    between atoms: O_31  and  C_16 
REMARK    7  A    between atoms: C_23  and  C_17 
REMARK    8  A    between atoms: O_27  and  C_20 
REMARK    9  A    between atoms: O_28  and  C_21 
REMARK   10  A    between atoms: O_29  and  C_21 
REMARK   11  A    between atoms: O_31  and  C_22 
REMARK   12  A    between atoms: N_26  and  C_23 
REMARK   13  A    between atoms: O_30  and  C_23 
ROOT
HETATM    1  C   UNK N   1      32.195  17.927   7.599  0.00  0.00     0.040 A 
HETATM    2  C   UNK N   1      33.401  18.079   8.277  0.00  0.00     0.040 A 
HETATM    3  C   UNK N   1      31.986  15.681   8.470  0.00  0.00     0.051 A 
HETATM    4  C   UNK N   1      31.509  16.704   7.652  0.00  0.00     0.077 A 
HETATM    5  C   UNK N   1      33.191  15.822   9.164  0.00  0.00     0.025 A 
HETATM    6  C   UNK N   1      33.921  17.026   9.033  0.00  0.00     0.076 A 
ENDROOT
BRANCH   4   7
HETATM    7  O   UNK N   1      30.414  16.472   6.903  0.00  0.00    -0.308 OA
BRANCH   7   8
HETATM    8  C   UNK N   1      29.549  17.398   6.390  0.00  0.00     0.110 A 
HETATM    9  C   UNK N   1      29.618  17.650   5.009  0.00  0.00     0.046 A 
HETATM   10  C   UNK N   1      28.788  18.607   4.419  0.00  0.00     0.029 A 
HETATM   11 Br   UNK N   1      30.877  16.724   3.906  0.00  0.00    -0.048 Br
HETATM   12  C   UNK N   1      27.874  19.330   5.191  0.00  0.00    -0.046 A 
HETATM   13  C   UNK N   1      27.814  19.104   6.558  0.00  0.00     0.029 A 
HETATM   14  C   UNK N   1      28.632  18.163   7.181  0.00  0.00     0.046 A 
HETATM   15 Br   UNK N   1      28.475  18.141   9.096  0.00  0.00    -0.048 Br
BRANCH  12  16
HETATM   16  C   UNK N   1      26.960  20.385   4.629  0.00  0.00     0.145 C 
BRANCH  16  17
HETATM   17  C   UNK N   1      26.096  20.060   3.440  0.00  0.00     0.110 C 
BRANCH  17  18
HETATM   18  O   UNK N   1      25.468  18.872   3.404  0.00  0.00    -0.778 OA
HETATM   19  H   UNK N   1      25.710  18.186   3.994  0.00  0.00     0.167 HD
ENDBRANCH  17  18
BRANCH  17  20
HETATM   20  O   UNK N   1      25.925  20.927   2.423  0.00  0.00    -0.778 OA
HETATM   21  H   UNK N   1      26.644  21.341   1.988  0.00  0.00     0.167 HD
ENDBRANCH  17  20
ENDBRANCH  16  17
ENDBRANCH  12  16
ENDBRANCH   7   8
ENDBRANCH   4   7
BRANCH   5  22
HETATM   22  C   UNK N   1      33.705  14.675  10.000  0.00  0.00     0.251 C 
BRANCH  22  23
HETATM   23  N   UNK N   1      35.050  14.317   9.597  0.00  0.00    -0.393 N 
HETATM   24  H   UNK N   1      35.572  14.688   8.802  0.00  0.00     0.156 HD
BRANCH  23  25
HETATM   25  C   UNK N   1      35.505  13.324  10.555  0.00  0.00     0.121 C 
BRANCH  25  26
HETATM   26  C   UNK N   1      36.787  13.792  11.217  0.00  0.00     0.058 C 
BRANCH  26  27
HETATM   27  C   UNK N   1      36.802  13.334  12.630  0.00  0.00    -0.057 A 
HETATM   28  C   UNK N   1      36.378  14.186  13.658  0.00  0.00     0.007 A 
HETATM   29  C   UNK N   1      36.350  13.729  14.976  0.00  0.00     0.001 A 
HETATM   30  C   UNK N   1      36.744  12.420  15.268  0.00  0.00     0.000 A 
HETATM   31  C   UNK N   1      37.173  11.571  14.241  0.00  0.00     0.001 A 
HETATM   32  C   UNK N   1      37.202  12.029  12.922  0.00  0.00     0.007 A 
ENDBRANCH  26  27
ENDBRANCH  25  26
ENDBRANCH  23  25
ENDBRANCH  22  23
BRANCH  22  33
HETATM   33  O   UNK N   1      33.708  14.994  11.363  0.00  0.00    -0.373 OA
HETATM   34  H   UNK N   1      33.201  14.557  12.065  0.00  0.00     0.212 HD
ENDBRANCH  22  33
ENDBRANCH   5  22
BRANCH   6  35
HETATM   35  O   UNK N   1      35.115  17.184   9.623  0.00  0.00    -0.360 OA
HETATM   36  H   UNK N   1      35.298  17.965  10.109  0.00  0.00     0.217 HD
ENDBRANCH   6  35
TORSDOF 13
ENDMDL
