MODEL 1
REMARK VINA RESULT:      -7.7      0.000      0.000
REMARK WARNING: 32 MAX_TORS EXCEEDED!!!
REMARK  33 active torsions:
REMARK  status: ('A' for Active; 'I' for Inactive)
REMARK    1  A    between atoms: C_6  and  C_3 
REMARK    2  A    between atoms: C_16  and  C_3 
REMARK    3  A    between atoms: C_18  and  C_6 
REMARK    4  A    between atoms: C_11  and  C_7 
REMARK    5  A    between atoms: C_20  and  C_7 
REMARK    6  A    between atoms: C_12  and  C_8 
REMARK    7  A    between atoms: C_19  and  C_8 
REMARK    8  A    between atoms: C_13  and  C_9 
REMARK    9  A    between atoms: C_22  and  C_9 
REMARK   10  A    between atoms: C_14  and  C_10 
REMARK   11  A    between atoms: C_21  and  C_10 
REMARK   12  A    between atoms: C_23  and  C_11 
REMARK   13  A    between atoms: C_24  and  C_12 
REMARK   14  A    between atoms: C_25  and  C_13 
REMARK   15  A    between atoms: C_26  and  C_14 
REMARK   16  A    between atoms: C_29  and  C_17 
REMARK   17  A    between atoms: C_31  and  C_19 
REMARK   18  A    between atoms: C_19  and  N_39 
REMARK   19  A    between atoms: C_32  and  C_20 
REMARK   20  A    between atoms: C_20  and  N_41 
REMARK   21  A    between atoms: C_33  and  C_21 
REMARK   22  A    between atoms: N_43  and  C_21 
REMARK   23  A    between atoms: C_34  and  C_22 
REMARK   24  A    between atoms: C_22  and  N_45 
REMARK   25  A    between atoms: C_23  and  O_49 
REMARK   26  A    between atoms: O_50  and  C_24 
REMARK   27  A    between atoms: C_25  and  O_51 
REMARK   28  A    between atoms: O_53  and  C_26 
REMARK       I    between atoms: N_45  and  C_29 
REMARK   29  A    between atoms: O_55  and  C_30 
REMARK   30  A    between atoms: O_57  and  C_31 
REMARK   31  A    between atoms: O_59  and  C_32 
REMARK   32  A    between atoms: O_61  and  C_33 
REMARK   33  A    between atoms: O_63  and  C_34 
ROOT
HETATM    1  C   UNK N   1      21.602  17.820   5.724  0.00  0.00     0.112 C 
HETATM    2  N   UNK N   1      20.669  17.064   5.253  0.00  0.00    -0.360 N 
ATOM      3  HN  UNK N   1      19.733  17.169   5.644  1.00  0.00     0.162 HD
ENDROOT
BRANCH   1   4
HETATM    4  C   UNK N   1      22.988  17.834   5.120  0.00  0.00     0.086 C 
BRANCH   4   5
HETATM    5  C   UNK N   1      23.044  18.393   3.702  0.00  0.00     0.044 C 
BRANCH   5   6
HETATM    6  C   UNK N   1      22.816  19.907   3.599  0.00  0.00     0.183 C 
BRANCH   6   7
HETATM    7  C   UNK N   1      21.490  20.153   2.911  0.00  0.00     0.163 C 
HETATM    8  O   UNK N   1      20.438  19.898   3.477  0.00  0.00    -0.648 OA
BRANCH   7   9
HETATM    9  O   UNK N   1      21.459  20.641   1.656  0.00  0.00    -0.775 OA
HETATM   10  H   UNK N   1      20.842  20.306   1.034  0.00  0.00     0.167 HD
ENDBRANCH   7   9
ENDBRANCH   6   7
BRANCH   6  11
HETATM   11  N   UNK N   1      23.863  20.602   2.863  0.00  0.00    -0.343 N 
HETATM   12  C   UNK N   1      25.228  20.565   2.930  0.00  0.00     0.252 C 
HETATM   13  O   UNK N   1      25.843  21.063   1.999  0.00  0.00    -0.268 OA
HETATM   14  H   UNK N   1      23.520  21.224   2.181  0.00  0.00     0.163 HD
BRANCH  12  15
HETATM   15  C   UNK N   1      26.039  19.968   4.036  0.00  0.00     0.032 A 
HETATM   16  C   UNK N   1      26.824  18.845   3.736  0.00  0.00     0.017 A 
HETATM   17  C   UNK N   1      27.638  18.259   4.702  0.00  0.00     0.008 A 
HETATM   18  C   UNK N   1      27.723  18.814   5.977  0.00  0.00    -0.058 A 
HETATM   19  C   UNK N   1      26.967  19.952   6.292  0.00  0.00     0.008 A 
HETATM   20  C   UNK N   1      26.128  20.525   5.325  0.00  0.00     0.017 A 
BRANCH  18  21
HETATM   21  C   UNK N   1      28.645  18.199   6.973  0.00  0.00     0.043 C 
BRANCH  21  22
HETATM   22  C   UNK N   1      29.298  16.950   6.396  0.00  0.00     0.045 C 
BRANCH  22  23
HETATM   23  C   UNK N   1      30.773  17.156   6.253  0.00  0.00    -0.024 A 
HETATM   24  C   UNK N   1      31.444  17.359   5.050  0.00  0.00     0.098 A 
HETATM   25  N   UNK N   1      32.771  17.514   5.288  0.00  0.00    -0.350 N 
HETATM   26  C   UNK N   1      32.920  17.405   6.619  0.00  0.00     0.136 A 
HETATM   27  H   UNK N   1      33.481  17.674   4.623  0.00  0.00     0.166 HD
HETATM   28  C   UNK N   1      31.734  17.182   7.242  0.00  0.00     0.067 A 
HETATM   29  N   UNK N   1      34.089  17.495   7.298  0.00  0.00    -0.176 N 
HETATM   30  C   UNK N   1      31.706  17.027   8.624  0.00  0.00     0.170 A 
HETATM   31  N   UNK N   1      32.883  17.120   9.311  0.00  0.00    -0.170 N 
HETATM   32  C   UNK N   1      34.066  17.355   8.658  0.00  0.00     0.679 A 
ATOM     33  HN  UNK N   1      32.883  17.013  10.325  1.00  0.00     0.186 HD
HETATM   34  N   UNK N   1      35.154  17.437   9.325  0.00  0.00    -0.234 N 
HETATM   35  H   UNK N   1      36.022  17.470   8.860  0.00  0.00     0.174 HD
ATOM     36  HN  UNK N   1      35.123  17.468  10.344  1.00  0.00     0.174 HD
HETATM   37  H   UNK N   1      34.936  17.656   6.823  0.00  0.00     0.186 HD
BRANCH  30  38
HETATM   38  O   UNK N   1      30.562  16.776   9.279  0.00  0.00    -0.345 OA
HETATM   39  H   UNK N   1      30.437  16.000   9.788  0.00  0.00     0.219 HD
ENDBRANCH  30  38
ENDBRANCH  22  23
ENDBRANCH  21  22
ENDBRANCH  18  21
ENDBRANCH  12  15
ENDBRANCH   6  11
ENDBRANCH   5   6
ENDBRANCH   4   5
ENDBRANCH   1   4
BRANCH   1  40
HETATM   40  O   UNK N   1      21.326  18.592   6.794  0.00  0.00    -0.350 OA
HETATM   41  H   UNK N   1      21.721  19.075   7.493  0.00  0.00     0.219 HD
ENDBRANCH   1  40
BRANCH   2  42
HETATM   42  C   UNK N   1      20.852  16.070   4.208  0.00  0.00     0.181 C 
BRANCH  42  43
HETATM   43  C   UNK N   1      20.366  14.718   4.755  0.00  0.00     0.044 C 
BRANCH  43  44
HETATM   44  C   UNK N   1      21.534  13.762   5.028  0.00  0.00     0.086 C 
BRANCH  44  45
HETATM   45  C   UNK N   1      22.600  13.778   3.970  0.00  0.00     0.112 C 
HETATM   46  N   UNK N   1      23.851  13.844   4.284  0.00  0.00    -0.360 N 
ATOM     47  HN  UNK N   1      24.533  13.839   3.526  1.00  0.00     0.162 HD
BRANCH  46  48
HETATM   48  C   UNK N   1      24.349  13.924   5.647  0.00  0.00     0.181 C 
BRANCH  48  49
HETATM   49  C   UNK N   1      24.993  12.609   6.110  0.00  0.00     0.044 C 
BRANCH  49  50
HETATM   50  C   UNK N   1      24.111  11.747   7.012  0.00  0.00     0.086 C 
BRANCH  50  51
HETATM   51  C   UNK N   1      23.879  12.449   8.307  0.00  0.00     0.112 C 
HETATM   52  N   UNK N   1      22.689  12.477   8.819  0.00  0.00    -0.360 N 
ATOM     53  HN  UNK N   1      21.958  11.946   8.347  1.00  0.00     0.162 HD
BRANCH  52  54
HETATM   54  C   UNK N   1      22.325  13.212  10.017  0.00  0.00     0.181 C 
BRANCH  54  55
HETATM   55  C   UNK N   1      20.942  13.860   9.881  0.00  0.00     0.046 C 
BRANCH  55  56
HETATM   56  C   UNK N   1      20.672  14.290   8.443  0.00  0.00     0.112 C 
BRANCH  56  57
HETATM   57  C   UNK N   1      20.141  15.689   8.420  0.00  0.00     0.139 C 
HETATM   58  O   UNK N   1      20.755  16.593   8.965  0.00  0.00    -0.650 OA
BRANCH  57  59
HETATM   59  O   UNK N   1      18.988  15.957   7.779  0.00  0.00    -0.776 OA
HETATM   60  H   UNK N   1      18.285  16.452   8.153  0.00  0.00     0.167 HD
ENDBRANCH  57  59
ENDBRANCH  56  57
ENDBRANCH  55  56
ENDBRANCH  54  55
BRANCH  54  61
HETATM   61  C   UNK N   1      22.401  12.313  11.226  0.00  0.00     0.163 C 
HETATM   62  O   UNK N   1      23.491  11.963  11.653  0.00  0.00    -0.648 OA
BRANCH  61  63
HETATM   63  O   UNK N   1      21.280  11.881  11.835  0.00  0.00    -0.775 OA
HETATM   64  H   UNK N   1      20.959  11.706  12.697  0.00  0.00     0.167 HD
ENDBRANCH  61  63
ENDBRANCH  54  61
ENDBRANCH  52  54
BRANCH  51  65
HETATM   65  O   UNK N   1      24.904  13.108   8.885  0.00  0.00    -0.350 OA
HETATM   66  H   UNK N   1      25.783  13.065   9.209  0.00  0.00     0.219 HD
ENDBRANCH  51  65
ENDBRANCH  50  51
ENDBRANCH  49  50
ENDBRANCH  48  49
BRANCH  48  67
HETATM   67  C   UNK N   1      25.314  15.073   5.753  0.00  0.00     0.163 C 
HETATM   68  O   UNK N   1      25.832  15.522   4.743  0.00  0.00    -0.648 OA
BRANCH  67  69
HETATM   69  O   UNK N   1      25.597  15.631   6.948  0.00  0.00    -0.775 OA
HETATM   70  H   UNK N   1      25.683  16.557   7.061  0.00  0.00     0.167 HD
ENDBRANCH  67  69
ENDBRANCH  48  67
ENDBRANCH  46  48
BRANCH  45  71
HETATM   71  O   UNK N   1      22.255  13.745   2.671  0.00  0.00    -0.350 OA
HETATM   72  H   UNK N   1      22.717  13.571   1.875  0.00  0.00     0.219 HD
ENDBRANCH  45  71
ENDBRANCH  44  45
ENDBRANCH  43  44
ENDBRANCH  42  43
BRANCH  42  73
HETATM   73  C   UNK N   1      20.096  16.484   2.971  0.00  0.00     0.163 C 
HETATM   74  O   UNK N   1      20.286  15.923   1.902  0.00  0.00    -0.648 OA
BRANCH  73  75
HETATM   75  O   UNK N   1      19.202  17.488   3.041  0.00  0.00    -0.775 OA
HETATM   76  H   UNK N   1      19.493  18.378   3.079  0.00  0.00     0.167 HD
ENDBRANCH  73  75
ENDBRANCH  42  73
ENDBRANCH   2  42
TORSDOF 33
ENDMDL
MODEL 2
REMARK VINA RESULT:      -7.6      2.370      4.896
REMARK WARNING: 32 MAX_TORS EXCEEDED!!!
REMARK  33 active torsions:
REMARK  status: ('A' for Active; 'I' for Inactive)
REMARK    1  A    between atoms: C_6  and  C_3 
REMARK    2  A    between atoms: C_16  and  C_3 
REMARK    3  A    between atoms: C_18  and  C_6 
REMARK    4  A    between atoms: C_11  and  C_7 
REMARK    5  A    between atoms: C_20  and  C_7 
REMARK    6  A    between atoms: C_12  and  C_8 
REMARK    7  A    between atoms: C_19  and  C_8 
REMARK    8  A    between atoms: C_13  and  C_9 
REMARK    9  A    between atoms: C_22  and  C_9 
REMARK   10  A    between atoms: C_14  and  C_10 
REMARK   11  A    between atoms: C_21  and  C_10 
REMARK   12  A    between atoms: C_23  and  C_11 
REMARK   13  A    between atoms: C_24  and  C_12 
REMARK   14  A    between atoms: C_25  and  C_13 
REMARK   15  A    between atoms: C_26  and  C_14 
REMARK   16  A    between atoms: C_29  and  C_17 
REMARK   17  A    between atoms: C_31  and  C_19 
REMARK   18  A    between atoms: C_19  and  N_39 
REMARK   19  A    between atoms: C_32  and  C_20 
REMARK   20  A    between atoms: C_20  and  N_41 
REMARK   21  A    between atoms: C_33  and  C_21 
REMARK   22  A    between atoms: N_43  and  C_21 
REMARK   23  A    between atoms: C_34  and  C_22 
REMARK   24  A    between atoms: C_22  and  N_45 
REMARK   25  A    between atoms: C_23  and  O_49 
REMARK   26  A    between atoms: O_50  and  C_24 
REMARK   27  A    between atoms: C_25  and  O_51 
REMARK   28  A    between atoms: O_53  and  C_26 
REMARK       I    between atoms: N_45  and  C_29 
REMARK   29  A    between atoms: O_55  and  C_30 
REMARK   30  A    between atoms: O_57  and  C_31 
REMARK   31  A    between atoms: O_59  and  C_32 
REMARK   32  A    between atoms: O_61  and  C_33 
REMARK   33  A    between atoms: O_63  and  C_34 
ROOT
HETATM    1  C   UNK N   1      23.402  18.489   4.428  0.00  0.00     0.112 C 
HETATM    2  N   UNK N   1      22.360  19.222   4.229  0.00  0.00    -0.360 N 
ATOM      3  HN  UNK N   1      22.026  19.790   5.007  1.00  0.00     0.162 HD
ENDROOT
BRANCH   1   4
HETATM    4  C   UNK N   1      24.053  17.717   3.303  0.00  0.00     0.086 C 
BRANCH   4   5
HETATM    5  C   UNK N   1      25.577  17.715   3.348  0.00  0.00     0.044 C 
BRANCH   5   6
HETATM    6  C   UNK N   1      26.208  16.346   3.639  0.00  0.00     0.183 C 
BRANCH   6   7
HETATM    7  C   UNK N   1      25.821  15.387   2.533  0.00  0.00     0.163 C 
HETATM    8  O   UNK N   1      25.947  15.705   1.361  0.00  0.00    -0.648 OA
BRANCH   7   9
HETATM    9  O   UNK N   1      25.315  14.176   2.834  0.00  0.00    -0.775 OA
HETATM   10  H   UNK N   1      25.214  13.915   3.728  0.00  0.00     0.167 HD
ENDBRANCH   7   9
ENDBRANCH   6   7
BRANCH   6  11
HETATM   11  N   UNK N   1      25.798  15.779   4.917  0.00  0.00    -0.343 N 
HETATM   12  C   UNK N   1      26.323  15.851   6.177  0.00  0.00     0.252 C 
HETATM   13  O   UNK N   1      25.607  15.490   7.098  0.00  0.00    -0.268 OA
HETATM   14  H   UNK N   1      24.979  15.235   4.862  0.00  0.00     0.163 HD
BRANCH  12  15
HETATM   15  C   UNK N   1      27.693  16.335   6.534  0.00  0.00     0.032 A 
HETATM   16  C   UNK N   1      27.826  17.131   7.681  0.00  0.00     0.017 A 
HETATM   17  C   UNK N   1      29.074  17.584   8.100  0.00  0.00     0.008 A 
HETATM   18  C   UNK N   1      30.223  17.209   7.409  0.00  0.00    -0.058 A 
HETATM   19  C   UNK N   1      30.117  16.392   6.275  0.00  0.00     0.008 A 
HETATM   20  C   UNK N   1      28.857  15.958   5.839  0.00  0.00     0.017 A 
BRANCH  18  21
HETATM   21  C   UNK N   1      31.550  17.662   7.913  0.00  0.00     0.043 C 
BRANCH  21  22
HETATM   22  C   UNK N   1      32.652  16.725   7.437  0.00  0.00     0.045 C 
BRANCH  22  23
HETATM   23  C   UNK N   1      32.992  15.739   8.510  0.00  0.00    -0.024 A 
HETATM   24  C   UNK N   1      32.357  14.516   8.710  0.00  0.00     0.098 A 
HETATM   25  N   UNK N   1      32.922  13.875   9.765  0.00  0.00    -0.350 N 
HETATM   26  C   UNK N   1      33.890  14.692  10.214  0.00  0.00     0.136 A 
HETATM   27  H   UNK N   1      32.674  12.994  10.128  0.00  0.00     0.166 HD
HETATM   28  C   UNK N   1      33.964  15.835   9.485  0.00  0.00     0.067 A 
HETATM   29  N   UNK N   1      34.712  14.448  11.263  0.00  0.00    -0.176 N 
HETATM   30  C   UNK N   1      34.903  16.803   9.823  0.00  0.00     0.170 A 
HETATM   31  N   UNK N   1      35.735  16.557  10.878  0.00  0.00    -0.170 N 
HETATM   32  C   UNK N   1      35.646  15.391  11.593  0.00  0.00     0.679 A 
ATOM     33  HN  UNK N   1      36.433  17.254  11.140  1.00  0.00     0.186 HD
HETATM   34  N   UNK N   1      36.436  15.186  12.577  0.00  0.00    -0.234 N 
HETATM   35  H   UNK N   1      36.296  14.419  13.178  0.00  0.00     0.174 HD
ATOM     36  HN  UNK N   1      37.217  15.821  12.741  1.00  0.00     0.174 HD
HETATM   37  H   UNK N   1      34.639  13.611  11.776  0.00  0.00     0.186 HD
BRANCH  30  38
HETATM   38  O   UNK N   1      34.993  17.960   9.150  0.00  0.00    -0.345 OA
HETATM   39  H   UNK N   1      35.103  17.990   8.220  0.00  0.00     0.219 HD
ENDBRANCH  30  38
ENDBRANCH  22  23
ENDBRANCH  21  22
ENDBRANCH  18  21
ENDBRANCH  12  15
ENDBRANCH   6  11
ENDBRANCH   5   6
ENDBRANCH   4   5
ENDBRANCH   1   4
BRANCH   1  40
HETATM   40  O   UNK N   1      23.896  18.398   5.679  0.00  0.00    -0.350 OA
HETATM   41  H   UNK N   1      24.375  17.840   6.259  0.00  0.00     0.219 HD
ENDBRANCH   1  40
BRANCH   2  42
HETATM   42  C   UNK N   1      21.625  19.300   2.976  0.00  0.00     0.181 C 
BRANCH  42  43
HETATM   43  C   UNK N   1      20.125  19.276   3.312  0.00  0.00     0.044 C 
BRANCH  43  44
HETATM   44  C   UNK N   1      19.438  18.020   2.759  0.00  0.00     0.086 C 
BRANCH  44  45
HETATM   45  C   UNK N   1      20.144  17.401   1.586  0.00  0.00     0.112 C 
HETATM   46  N   UNK N   1      20.659  16.221   1.665  0.00  0.00    -0.360 N 
ATOM     47  HN  UNK N   1      21.116  15.844   0.835  1.00  0.00     0.162 HD
BRANCH  46  48
HETATM   48  C   UNK N   1      20.631  15.393   2.859  0.00  0.00     0.181 C 
BRANCH  48  49
HETATM   49  C   UNK N   1      19.477  14.380   2.839  0.00  0.00     0.044 C 
BRANCH  49  50
HETATM   50  C   UNK N   1      19.119  13.790   4.202  0.00  0.00     0.086 C 
BRANCH  50  51
HETATM   51  C   UNK N   1      19.196  14.852   5.246  0.00  0.00     0.112 C 
HETATM   52  N   UNK N   1      20.140  14.814   6.133  0.00  0.00    -0.360 N 
ATOM     53  HN  UNK N   1      20.851  14.089   6.037  1.00  0.00     0.162 HD
BRANCH  52  54
HETATM   54  C   UNK N   1      20.256  15.731   7.252  0.00  0.00     0.181 C 
BRANCH  54  55
HETATM   55  C   UNK N   1      20.393  14.981   8.582  0.00  0.00     0.046 C 
BRANCH  55  56
HETATM   56  C   UNK N   1      21.007  13.601   8.378  0.00  0.00     0.112 C 
BRANCH  56  57
HETATM   57  C   UNK N   1      22.390  13.567   8.949  0.00  0.00     0.139 C 
HETATM   58  O   UNK N   1      22.561  13.391  10.145  0.00  0.00    -0.650 OA
BRANCH  57  59
HETATM   59  O   UNK N   1      23.453  13.715   8.137  0.00  0.00    -0.776 OA
HETATM   60  H   UNK N   1      23.420  13.606   7.207  0.00  0.00     0.167 HD
ENDBRANCH  57  59
ENDBRANCH  56  57
ENDBRANCH  55  56
ENDBRANCH  54  55
BRANCH  54  61
HETATM   61  C   UNK N   1      21.405  16.684   7.031  0.00  0.00     0.163 C 
HETATM   62  O   UNK N   1      21.209  17.889   7.075  0.00  0.00    -0.648 OA
BRANCH  61  63
HETATM   63  O   UNK N   1      22.644  16.222   6.773  0.00  0.00    -0.775 OA
HETATM   64  H   UNK N   1      23.350  15.792   7.213  0.00  0.00     0.167 HD
ENDBRANCH  61  63
ENDBRANCH  54  61
ENDBRANCH  52  54
BRANCH  51  65
HETATM   65  O   UNK N   1      18.232  15.793   5.292  0.00  0.00    -0.350 OA
HETATM   66  H   UNK N   1      17.608  16.303   4.812  0.00  0.00     0.219 HD
ENDBRANCH  51  65
ENDBRANCH  50  51
ENDBRANCH  49  50
ENDBRANCH  48  49
BRANCH  48  67
HETATM   67  C   UNK N   1      21.960  14.706   3.016  0.00  0.00     0.163 C 
HETATM   68  O   UNK N   1      22.428  14.077   2.081  0.00  0.00    -0.648 OA
BRANCH  67  69
HETATM   69  O   UNK N   1      22.653  14.794   4.169  0.00  0.00    -0.775 OA
HETATM   70  H   UNK N   1      23.334  14.190   4.393  0.00  0.00     0.167 HD
ENDBRANCH  67  69
ENDBRANCH  48  67
ENDBRANCH  46  48
BRANCH  45  71
HETATM   71  O   UNK N   1      20.264  18.091   0.437  0.00  0.00    -0.350 OA
HETATM   72  H   UNK N   1      19.699  18.252  -0.292  0.00  0.00     0.219 HD
ENDBRANCH  45  71
ENDBRANCH  44  45
ENDBRANCH  43  44
ENDBRANCH  42  43
BRANCH  42  73
HETATM   73  C   UNK N   1      22.017  20.550   2.230  0.00  0.00     0.163 C 
HETATM   74  O   UNK N   1      22.638  21.443   2.784  0.00  0.00    -0.648 OA
BRANCH  73  75
HETATM   75  O   UNK N   1      21.674  20.688   0.935  0.00  0.00    -0.775 OA
HETATM   76  H   UNK N   1      21.053  20.105   0.545  0.00  0.00     0.167 HD
ENDBRANCH  73  75
ENDBRANCH  42  73
ENDBRANCH   2  42
TORSDOF 33
ENDMDL
MODEL 3
REMARK VINA RESULT:      -7.6      3.172      7.837
REMARK WARNING: 32 MAX_TORS EXCEEDED!!!
REMARK  33 active torsions:
REMARK  status: ('A' for Active; 'I' for Inactive)
REMARK    1  A    between atoms: C_6  and  C_3 
REMARK    2  A    between atoms: C_16  and  C_3 
REMARK    3  A    between atoms: C_18  and  C_6 
REMARK    4  A    between atoms: C_11  and  C_7 
REMARK    5  A    between atoms: C_20  and  C_7 
REMARK    6  A    between atoms: C_12  and  C_8 
REMARK    7  A    between atoms: C_19  and  C_8 
REMARK    8  A    between atoms: C_13  and  C_9 
REMARK    9  A    between atoms: C_22  and  C_9 
REMARK   10  A    between atoms: C_14  and  C_10 
REMARK   11  A    between atoms: C_21  and  C_10 
REMARK   12  A    between atoms: C_23  and  C_11 
REMARK   13  A    between atoms: C_24  and  C_12 
REMARK   14  A    between atoms: C_25  and  C_13 
REMARK   15  A    between atoms: C_26  and  C_14 
REMARK   16  A    between atoms: C_29  and  C_17 
REMARK   17  A    between atoms: C_31  and  C_19 
REMARK   18  A    between atoms: C_19  and  N_39 
REMARK   19  A    between atoms: C_32  and  C_20 
REMARK   20  A    between atoms: C_20  and  N_41 
REMARK   21  A    between atoms: C_33  and  C_21 
REMARK   22  A    between atoms: N_43  and  C_21 
REMARK   23  A    between atoms: C_34  and  C_22 
REMARK   24  A    between atoms: C_22  and  N_45 
REMARK   25  A    between atoms: C_23  and  O_49 
REMARK   26  A    between atoms: O_50  and  C_24 
REMARK   27  A    between atoms: C_25  and  O_51 
REMARK   28  A    between atoms: O_53  and  C_26 
REMARK       I    between atoms: N_45  and  C_29 
REMARK   29  A    between atoms: O_55  and  C_30 
REMARK   30  A    between atoms: O_57  and  C_31 
REMARK   31  A    between atoms: O_59  and  C_32 
REMARK   32  A    between atoms: O_61  and  C_33 
REMARK   33  A    between atoms: O_63  and  C_34 
ROOT
HETATM    1  C   UNK N   1      21.173  18.567   4.988  0.00  0.00     0.112 C 
HETATM    2  N   UNK N   1      21.612  17.884   5.990  0.00  0.00    -0.360 N 
ATOM      3  HN  UNK N   1      22.302  18.326   6.597  1.00  0.00     0.162 HD
ENDROOT
BRANCH   1   4
HETATM    4  C   UNK N   1      20.054  18.053   4.111  0.00  0.00     0.086 C 
BRANCH   4   5
HETATM    5  C   UNK N   1      19.708  18.969   2.941  0.00  0.00     0.044 C 
BRANCH   5   6
HETATM    6  C   UNK N   1      20.636  18.836   1.726  0.00  0.00     0.183 C 
BRANCH   6   7
HETATM    7  C   UNK N   1      20.908  20.217   1.168  0.00  0.00     0.163 C 
HETATM    8  O   UNK N   1      21.409  21.083   1.868  0.00  0.00    -0.648 OA
BRANCH   7   9
HETATM    9  O   UNK N   1      20.581  20.510  -0.104  0.00  0.00    -0.775 OA
HETATM   10  H   UNK N   1      20.606  19.844  -0.764  0.00  0.00     0.167 HD
ENDBRANCH   7   9
ENDBRANCH   6   7
BRANCH   6  11
HETATM   11  N   UNK N   1      20.087  18.002   0.666  0.00  0.00    -0.343 N 
HETATM   12  C   UNK N   1      19.914  16.652   0.540  0.00  0.00     0.252 C 
HETATM   13  O   UNK N   1      19.179  16.267  -0.356  0.00  0.00    -0.268 OA
HETATM   14  H   UNK N   1      19.779  18.512  -0.118  0.00  0.00     0.163 HD
BRANCH  12  15
HETATM   15  C   UNK N   1      20.539  15.600   1.403  0.00  0.00     0.032 A 
HETATM   16  C   UNK N   1      19.828  15.179   2.536  0.00  0.00     0.017 A 
HETATM   17  C   UNK N   1      20.325  14.175   3.363  0.00  0.00     0.008 A 
HETATM   18  C   UNK N   1      21.521  13.535   3.046  0.00  0.00    -0.058 A 
HETATM   19  C   UNK N   1      22.236  13.922   1.904  0.00  0.00     0.008 A 
HETATM   20  C   UNK N   1      21.747  14.951   1.086  0.00  0.00     0.017 A 
BRANCH  18  21
HETATM   21  C   UNK N   1      22.001  12.427   3.919  0.00  0.00     0.043 C 
BRANCH  21  22
HETATM   22  C   UNK N   1      21.385  12.535   5.307  0.00  0.00     0.045 C 
BRANCH  22  23
HETATM   23  C   UNK N   1      22.288  11.912   6.325  0.00  0.00    -0.024 A 
HETATM   24  C   UNK N   1      23.383  11.101   6.039  0.00  0.00     0.098 A 
HETATM   25  N   UNK N   1      23.979  10.715   7.197  0.00  0.00    -0.350 N 
HETATM   26  C   UNK N   1      23.261  11.276   8.184  0.00  0.00     0.136 A 
HETATM   27  H   UNK N   1      24.774  10.141   7.294  0.00  0.00     0.166 HD
HETATM   28  C   UNK N   1      22.223  12.006   7.700  0.00  0.00     0.067 A 
HETATM   29  N   UNK N   1      23.503  11.153   9.511  0.00  0.00    -0.176 N 
HETATM   30  C   UNK N   1      21.364  12.646   8.587  0.00  0.00     0.170 A 
HETATM   31  N   UNK N   1      21.608  12.525   9.926  0.00  0.00    -0.170 N 
HETATM   32  C   UNK N   1      22.669  11.789  10.388  0.00  0.00     0.679 A 
ATOM     33  HN  UNK N   1      20.991  12.990  10.592  1.00  0.00     0.186 HD
HETATM   34  N   UNK N   1      22.874  11.691  11.646  0.00  0.00    -0.234 N 
HETATM   35  H   UNK N   1      23.545  11.061  11.994  0.00  0.00     0.174 HD
ATOM     36  HN  UNK N   1      22.339  12.270  12.294  1.00  0.00     0.174 HD
HETATM   37  H   UNK N   1      24.261  10.617   9.837  0.00  0.00     0.186 HD
BRANCH  30  38
HETATM   38  O   UNK N   1      20.310  13.354   8.156  0.00  0.00    -0.345 OA
HETATM   39  H   UNK N   1      20.110  13.450   7.245  0.00  0.00     0.219 HD
ENDBRANCH  30  38
ENDBRANCH  22  23
ENDBRANCH  21  22
ENDBRANCH  18  21
ENDBRANCH  12  15
ENDBRANCH   6  11
ENDBRANCH   5   6
ENDBRANCH   4   5
ENDBRANCH   1   4
BRANCH   1  40
HETATM   40  O   UNK N   1      21.751  19.753   4.714  0.00  0.00    -0.350 OA
HETATM   41  H   UNK N   1      22.036  20.306   4.013  0.00  0.00     0.219 HD
ENDBRANCH   1  40
BRANCH   2  42
HETATM   42  C   UNK N   1      21.198  16.529   6.319  0.00  0.00     0.181 C 
BRANCH  42  43
HETATM   43  C   UNK N   1      22.459  15.730   6.686  0.00  0.00     0.044 C 
BRANCH  43  44
HETATM   44  C   UNK N   1      23.473  15.706   5.534  0.00  0.00     0.086 C 
BRANCH  44  45
HETATM   45  C   UNK N   1      24.841  15.231   5.932  0.00  0.00     0.112 C 
HETATM   46  N   UNK N   1      25.658  14.744   5.059  0.00  0.00    -0.360 N 
ATOM     47  HN  UNK N   1      26.579  14.448   5.381  1.00  0.00     0.162 HD
BRANCH  46  48
HETATM   48  C   UNK N   1      25.351  14.589   3.647  0.00  0.00     0.181 C 
BRANCH  48  49
HETATM   49  C   UNK N   1      26.051  15.646   2.780  0.00  0.00     0.044 C 
BRANCH  49  50
HETATM   50  C   UNK N   1      27.576  15.649   2.882  0.00  0.00     0.086 C 
BRANCH  50  51
HETATM   51  C   UNK N   1      28.036  16.931   3.489  0.00  0.00     0.112 C 
HETATM   52  N   UNK N   1      27.232  17.609   4.246  0.00  0.00    -0.360 N 
ATOM     53  HN  UNK N   1      26.325  17.196   4.462  1.00  0.00     0.162 HD
BRANCH  52  54
HETATM   54  C   UNK N   1      27.532  18.914   4.807  0.00  0.00     0.181 C 
BRANCH  54  55
HETATM   55  C   UNK N   1      26.365  19.890   4.619  0.00  0.00     0.046 C 
BRANCH  55  56
HETATM   56  C   UNK N   1      26.394  20.527   3.235  0.00  0.00     0.112 C 
BRANCH  56  57
HETATM   57  C   UNK N   1      25.007  20.602   2.677  0.00  0.00     0.139 C 
HETATM   58  O   UNK N   1      24.819  20.514   1.474  0.00  0.00    -0.650 OA
BRANCH  57  59
HETATM   59  O   UNK N   1      23.958  20.750   3.508  0.00  0.00    -0.776 OA
HETATM   60  H   UNK N   1      23.112  20.379   3.352  0.00  0.00     0.167 HD
ENDBRANCH  57  59
ENDBRANCH  56  57
ENDBRANCH  55  56
ENDBRANCH  54  55
BRANCH  54  61
HETATM   61  C   UNK N   1      27.919  18.783   6.260  0.00  0.00     0.163 C 
HETATM   62  O   UNK N   1      28.872  18.087   6.572  0.00  0.00    -0.648 OA
BRANCH  61  63
HETATM   63  O   UNK N   1      27.216  19.415   7.219  0.00  0.00    -0.775 OA
HETATM   64  H   UNK N   1      26.348  19.732   7.376  0.00  0.00     0.167 HD
ENDBRANCH  61  63
ENDBRANCH  54  61
ENDBRANCH  52  54
BRANCH  51  65
HETATM   65  O   UNK N   1      29.260  17.400   3.176  0.00  0.00    -0.350 OA
HETATM   66  H   UNK N   1      30.167  17.200   3.040  0.00  0.00     0.219 HD
ENDBRANCH  51  65
ENDBRANCH  50  51
ENDBRANCH  49  50
ENDBRANCH  48  49
BRANCH  48  67
HETATM   67  C   UNK N   1      25.712  13.196   3.212  0.00  0.00     0.163 C 
HETATM   68  O   UNK N   1      26.043  12.370   4.048  0.00  0.00    -0.648 OA
BRANCH  67  69
HETATM   69  O   UNK N   1      25.654  12.839   1.913  0.00  0.00    -0.775 OA
HETATM   70  H   UNK N   1      25.426  13.446   1.236  0.00  0.00     0.167 HD
ENDBRANCH  67  69
ENDBRANCH  48  67
ENDBRANCH  46  48
BRANCH  45  71
HETATM   71  O   UNK N   1      25.223  15.291   7.220  0.00  0.00    -0.350 OA
HETATM   72  H   UNK N   1      25.420  15.989   7.813  0.00  0.00     0.219 HD
ENDBRANCH  45  71
ENDBRANCH  44  45
ENDBRANCH  43  44
ENDBRANCH  42  43
BRANCH  42  73
HETATM   73  C   UNK N   1      20.200  16.560   7.448  0.00  0.00     0.163 C 
HETATM   74  O   UNK N   1      19.107  16.027   7.333  0.00  0.00    -0.648 OA
BRANCH  73  75
HETATM   75  O   UNK N   1      20.512  17.187   8.598  0.00  0.00    -0.775 OA
HETATM   76  H   UNK N   1      20.958  18.012   8.581  0.00  0.00     0.167 HD
ENDBRANCH  73  75
ENDBRANCH  42  73
ENDBRANCH   2  42
TORSDOF 33
ENDMDL
MODEL 4
REMARK VINA RESULT:      -7.6      2.841      7.505
REMARK WARNING: 32 MAX_TORS EXCEEDED!!!
REMARK  33 active torsions:
REMARK  status: ('A' for Active; 'I' for Inactive)
REMARK    1  A    between atoms: C_6  and  C_3 
REMARK    2  A    between atoms: C_16  and  C_3 
REMARK    3  A    between atoms: C_18  and  C_6 
REMARK    4  A    between atoms: C_11  and  C_7 
REMARK    5  A    between atoms: C_20  and  C_7 
REMARK    6  A    between atoms: C_12  and  C_8 
REMARK    7  A    between atoms: C_19  and  C_8 
REMARK    8  A    between atoms: C_13  and  C_9 
REMARK    9  A    between atoms: C_22  and  C_9 
REMARK   10  A    between atoms: C_14  and  C_10 
REMARK   11  A    between atoms: C_21  and  C_10 
REMARK   12  A    between atoms: C_23  and  C_11 
REMARK   13  A    between atoms: C_24  and  C_12 
REMARK   14  A    between atoms: C_25  and  C_13 
REMARK   15  A    between atoms: C_26  and  C_14 
REMARK   16  A    between atoms: C_29  and  C_17 
REMARK   17  A    between atoms: C_31  and  C_19 
REMARK   18  A    between atoms: C_19  and  N_39 
REMARK   19  A    between atoms: C_32  and  C_20 
REMARK   20  A    between atoms: C_20  and  N_41 
REMARK   21  A    between atoms: C_33  and  C_21 
REMARK   22  A    between atoms: N_43  and  C_21 
REMARK   23  A    between atoms: C_34  and  C_22 
REMARK   24  A    between atoms: C_22  and  N_45 
REMARK   25  A    between atoms: C_23  and  O_49 
REMARK   26  A    between atoms: O_50  and  C_24 
REMARK   27  A    between atoms: C_25  and  O_51 
REMARK   28  A    between atoms: O_53  and  C_26 
REMARK       I    between atoms: N_45  and  C_29 
REMARK   29  A    between atoms: O_55  and  C_30 
REMARK   30  A    between atoms: O_57  and  C_31 
REMARK   31  A    between atoms: O_59  and  C_32 
REMARK   32  A    between atoms: O_61  and  C_33 
REMARK   33  A    between atoms: O_63  and  C_34 
ROOT
HETATM    1  C   UNK N   1      21.184  18.286   4.914  0.00  0.00     0.112 C 
HETATM    2  N   UNK N   1      22.053  17.601   5.575  0.00  0.00    -0.360 N 
ATOM      3  HN  UNK N   1      22.667  18.107   6.214  1.00  0.00     0.162 HD
ENDROOT
BRANCH   1   4
HETATM    4  C   UNK N   1      20.144  17.616   4.045  0.00  0.00     0.086 C 
BRANCH   4   5
HETATM    5  C   UNK N   1      19.626  18.488   2.907  0.00  0.00     0.044 C 
BRANCH   5   6
HETATM    6  C   UNK N   1      20.527  18.525   1.665  0.00  0.00     0.183 C 
BRANCH   6   7
HETATM    7  C   UNK N   1      20.706  19.966   1.237  0.00  0.00     0.163 C 
HETATM    8  O   UNK N   1      20.864  20.250   0.060  0.00  0.00    -0.648 OA
BRANCH   7   9
HETATM    9  O   UNK N   1      20.710  20.950   2.156  0.00  0.00    -0.775 OA
HETATM   10  H   UNK N   1      20.151  21.696   2.052  0.00  0.00     0.167 HD
ENDBRANCH   7   9
ENDBRANCH   6   7
BRANCH   6  11
HETATM   11  N   UNK N   1      19.998  17.764   0.542  0.00  0.00    -0.343 N 
HETATM   12  C   UNK N   1      19.721  16.437   0.367  0.00  0.00     0.252 C 
HETATM   13  O   UNK N   1      19.033  16.135  -0.597  0.00  0.00    -0.268 OA
HETATM   14  H   UNK N   1      19.800  18.314  -0.250  0.00  0.00     0.163 HD
BRANCH  12  15
HETATM   15  C   UNK N   1      20.181  15.317   1.247  0.00  0.00     0.032 A 
HETATM   16  C   UNK N   1      21.563  15.109   1.370  0.00  0.00     0.017 A 
HETATM   17  C   UNK N   1      22.067  14.114   2.203  0.00  0.00     0.008 A 
HETATM   18  C   UNK N   1      21.202  13.339   2.971  0.00  0.00    -0.058 A 
HETATM   19  C   UNK N   1      19.819  13.546   2.884  0.00  0.00     0.008 A 
HETATM   20  C   UNK N   1      19.311  14.531   2.025  0.00  0.00     0.017 A 
BRANCH  18  21
HETATM   21  C   UNK N   1      21.774  12.319   3.896  0.00  0.00     0.043 C 
BRANCH  21  22
HETATM   22  C   UNK N   1      23.007  11.671   3.280  0.00  0.00     0.045 C 
BRANCH  22  23
HETATM   23  C   UNK N   1      24.242  12.128   3.990  0.00  0.00    -0.024 A 
HETATM   24  C   UNK N   1      24.422  12.128   5.371  0.00  0.00     0.098 A 
HETATM   25  N   UNK N   1      25.659  12.601   5.670  0.00  0.00    -0.350 N 
HETATM   26  C   UNK N   1      26.234  12.894   4.491  0.00  0.00     0.136 A 
HETATM   27  H   UNK N   1      26.055  12.708   6.566  0.00  0.00     0.166 HD
HETATM   28  C   UNK N   1      25.407  12.627   3.447  0.00  0.00     0.067 A 
HETATM   29  N   UNK N   1      27.480  13.398   4.318  0.00  0.00    -0.176 N 
HETATM   30  C   UNK N   1      25.838  12.888   2.150  0.00  0.00     0.170 A 
HETATM   31  N   UNK N   1      27.094  13.393   1.974  0.00  0.00    -0.170 N 
HETATM   32  C   UNK N   1      27.912  13.645   3.045  0.00  0.00     0.679 A 
ATOM     33  HN  UNK N   1      27.429  13.587   1.030  1.00  0.00     0.186 HD
HETATM   34  N   UNK N   1      29.084  14.119   2.852  0.00  0.00    -0.234 N 
HETATM   35  H   UNK N   1      29.628  14.429   3.612  0.00  0.00     0.174 HD
ATOM     36  HN  UNK N   1      29.458  14.177   1.905  1.00  0.00     0.174 HD
HETATM   37  H   UNK N   1      28.060  13.584   5.091  0.00  0.00     0.186 HD
BRANCH  30  38
HETATM   38  O   UNK N   1      25.045  12.667   1.090  0.00  0.00    -0.345 OA
HETATM   39  H   UNK N   1      24.637  11.838   0.935  0.00  0.00     0.219 HD
ENDBRANCH  30  38
ENDBRANCH  22  23
ENDBRANCH  21  22
ENDBRANCH  18  21
ENDBRANCH  12  15
ENDBRANCH   6  11
ENDBRANCH   5   6
ENDBRANCH   4   5
ENDBRANCH   1   4
BRANCH   1  40
HETATM   40  O   UNK N   1      21.232  19.631   4.988  0.00  0.00    -0.350 OA
HETATM   41  H   UNK N   1      20.739  20.388   5.236  0.00  0.00     0.219 HD
ENDBRANCH   1  40
BRANCH   2  42
HETATM   42  C   UNK N   1      22.226  16.160   5.478  0.00  0.00     0.181 C 
BRANCH  42  43
HETATM   43  C   UNK N   1      23.670  15.890   5.026  0.00  0.00     0.044 C 
BRANCH  43  44
HETATM   44  C   UNK N   1      24.523  17.165   5.058  0.00  0.00     0.086 C 
BRANCH  44  45
HETATM   45  C   UNK N   1      25.477  17.294   3.904  0.00  0.00     0.112 C 
HETATM   46  N   UNK N   1      25.844  18.452   3.467  0.00  0.00    -0.360 N 
ATOM     47  HN  UNK N   1      26.502  18.481   2.689  1.00  0.00     0.162 HD
BRANCH  46  48
HETATM   48  C   UNK N   1      25.379  19.717   4.012  0.00  0.00     0.181 C 
BRANCH  48  49
HETATM   49  C   UNK N   1      26.539  20.637   4.418  0.00  0.00     0.044 C 
BRANCH  49  50
HETATM   50  C   UNK N   1      27.213  20.273   5.739  0.00  0.00     0.086 C 
BRANCH  50  51
HETATM   51  C   UNK N   1      28.221  19.198   5.510  0.00  0.00     0.112 C 
HETATM   52  N   UNK N   1      28.538  18.397   6.479  0.00  0.00    -0.360 N 
ATOM     53  HN  UNK N   1      28.023  18.486   7.355  1.00  0.00     0.162 HD
BRANCH  52  54
HETATM   54  C   UNK N   1      29.575  17.383   6.403  0.00  0.00     0.181 C 
BRANCH  54  55
HETATM   55  C   UNK N   1      30.348  17.269   7.722  0.00  0.00     0.046 C 
BRANCH  55  56
HETATM   56  C   UNK N   1      29.852  18.288   8.743  0.00  0.00     0.112 C 
BRANCH  56  57
HETATM   57  C   UNK N   1      28.786  17.677   9.598  0.00  0.00     0.139 C 
HETATM   58  O   UNK N   1      29.078  16.873  10.469  0.00  0.00    -0.650 OA
BRANCH  57  59
HETATM   59  O   UNK N   1      27.500  18.028   9.417  0.00  0.00    -0.776 OA
HETATM   60  H   UNK N   1      26.997  18.511  10.043  0.00  0.00     0.167 HD
ENDBRANCH  57  59
ENDBRANCH  56  57
ENDBRANCH  55  56
ENDBRANCH  54  55
BRANCH  54  61
HETATM   61  C   UNK N   1      28.981  16.059   5.990  0.00  0.00     0.163 C 
HETATM   62  O   UNK N   1      27.768  15.919   5.968  0.00  0.00    -0.648 OA
BRANCH  61  63
HETATM   63  O   UNK N   1      29.775  15.022   5.657  0.00  0.00    -0.775 OA
HETATM   64  H   UNK N   1      29.740  14.228   5.162  0.00  0.00     0.167 HD
ENDBRANCH  61  63
ENDBRANCH  54  61
ENDBRANCH  52  54
BRANCH  51  65
HETATM   65  O   UNK N   1      28.841  19.128   4.315  0.00  0.00    -0.350 OA
HETATM   66  H   UNK N   1      28.862  19.416   3.423  0.00  0.00     0.219 HD
ENDBRANCH  51  65
ENDBRANCH  50  51
ENDBRANCH  49  50
ENDBRANCH  48  49
BRANCH  48  67
HETATM   67  C   UNK N   1      24.475  20.383   3.012  0.00  0.00     0.163 C 
HETATM   68  O   UNK N   1      23.304  20.579   3.294  0.00  0.00    -0.648 OA
BRANCH  67  69
HETATM   69  O   UNK N   1      24.946  20.787   1.815  0.00  0.00    -0.775 OA
HETATM   70  H   UNK N   1      25.851  20.986   1.673  0.00  0.00     0.167 HD
ENDBRANCH  67  69
ENDBRANCH  48  67
ENDBRANCH  46  48
BRANCH  45  71
HETATM   71  O   UNK N   1      25.945  16.189   3.295  0.00  0.00    -0.350 OA
HETATM   72  H   UNK N   1      26.332  15.391   3.596  0.00  0.00     0.219 HD
ENDBRANCH  45  71
ENDBRANCH  44  45
ENDBRANCH  43  44
ENDBRANCH  42  43
BRANCH  42  73
HETATM   73  C   UNK N   1      21.921  15.518   6.808  0.00  0.00     0.163 C 
HETATM   74  O   UNK N   1      21.372  16.148   7.698  0.00  0.00    -0.648 OA
BRANCH  73  75
HETATM   75  O   UNK N   1      22.262  14.232   7.021  0.00  0.00    -0.775 OA
HETATM   76  H   UNK N   1      23.164  13.980   7.043  0.00  0.00     0.167 HD
ENDBRANCH  73  75
ENDBRANCH  42  73
ENDBRANCH   2  42
TORSDOF 33
ENDMDL
MODEL 5
REMARK VINA RESULT:      -7.6      2.413      4.402
REMARK WARNING: 32 MAX_TORS EXCEEDED!!!
REMARK  33 active torsions:
REMARK  status: ('A' for Active; 'I' for Inactive)
REMARK    1  A    between atoms: C_6  and  C_3 
REMARK    2  A    between atoms: C_16  and  C_3 
REMARK    3  A    between atoms: C_18  and  C_6 
REMARK    4  A    between atoms: C_11  and  C_7 
REMARK    5  A    between atoms: C_20  and  C_7 
REMARK    6  A    between atoms: C_12  and  C_8 
REMARK    7  A    between atoms: C_19  and  C_8 
REMARK    8  A    between atoms: C_13  and  C_9 
REMARK    9  A    between atoms: C_22  and  C_9 
REMARK   10  A    between atoms: C_14  and  C_10 
REMARK   11  A    between atoms: C_21  and  C_10 
REMARK   12  A    between atoms: C_23  and  C_11 
REMARK   13  A    between atoms: C_24  and  C_12 
REMARK   14  A    between atoms: C_25  and  C_13 
REMARK   15  A    between atoms: C_26  and  C_14 
REMARK   16  A    between atoms: C_29  and  C_17 
REMARK   17  A    between atoms: C_31  and  C_19 
REMARK   18  A    between atoms: C_19  and  N_39 
REMARK   19  A    between atoms: C_32  and  C_20 
REMARK   20  A    between atoms: C_20  and  N_41 
REMARK   21  A    between atoms: C_33  and  C_21 
REMARK   22  A    between atoms: N_43  and  C_21 
REMARK   23  A    between atoms: C_34  and  C_22 
REMARK   24  A    between atoms: C_22  and  N_45 
REMARK   25  A    between atoms: C_23  and  O_49 
REMARK   26  A    between atoms: O_50  and  C_24 
REMARK   27  A    between atoms: C_25  and  O_51 
REMARK   28  A    between atoms: O_53  and  C_26 
REMARK       I    between atoms: N_45  and  C_29 
REMARK   29  A    between atoms: O_55  and  C_30 
REMARK   30  A    between atoms: O_57  and  C_31 
REMARK   31  A    between atoms: O_59  and  C_32 
REMARK   32  A    between atoms: O_61  and  C_33 
REMARK   33  A    between atoms: O_63  and  C_34 
ROOT
HETATM    1  C   UNK N   1      19.476  14.833   1.531  0.00  0.00     0.112 C 
HETATM    2  N   UNK N   1      18.902  13.991   2.321  0.00  0.00    -0.360 N 
ATOM      3  HN  UNK N   1      17.960  13.682   2.077  1.00  0.00     0.162 HD
ENDROOT
BRANCH   1   4
HETATM    4  C   UNK N   1      20.916  15.248   1.731  0.00  0.00     0.086 C 
BRANCH   4   5
HETATM    5  C   UNK N   1      21.086  16.628   2.359  0.00  0.00     0.044 C 
BRANCH   5   6
HETATM    6  C   UNK N   1      20.005  17.646   1.972  0.00  0.00     0.183 C 
BRANCH   6   7
HETATM    7  C   UNK N   1      20.360  18.243   0.625  0.00  0.00     0.163 C 
HETATM    8  O   UNK N   1      20.420  17.539  -0.371  0.00  0.00    -0.648 OA
BRANCH   7   9
HETATM    9  O   UNK N   1      20.631  19.557   0.517  0.00  0.00    -0.775 OA
HETATM   10  H   UNK N   1      19.934  20.178   0.435  0.00  0.00     0.167 HD
ENDBRANCH   7   9
ENDBRANCH   6   7
BRANCH   6  11
HETATM   11  N   UNK N   1      19.853  18.726   2.937  0.00  0.00    -0.343 N 
HETATM   12  C   UNK N   1      20.742  19.587   3.516  0.00  0.00     0.252 C 
HETATM   13  O   UNK N   1      20.279  20.562   4.088  0.00  0.00    -0.268 OA
HETATM   14  H   UNK N   1      18.924  18.862   3.234  0.00  0.00     0.163 HD
BRANCH  12  15
HETATM   15  C   UNK N   1      22.232  19.450   3.510  0.00  0.00     0.032 A 
HETATM   16  C   UNK N   1      22.977  20.441   2.852  0.00  0.00     0.017 A 
HETATM   17  C   UNK N   1      24.368  20.404   2.841  0.00  0.00     0.008 A 
HETATM   18  C   UNK N   1      25.048  19.402   3.529  0.00  0.00    -0.058 A 
HETATM   19  C   UNK N   1      24.326  18.416   4.215  0.00  0.00     0.008 A 
HETATM   20  C   UNK N   1      22.923  18.440   4.205  0.00  0.00     0.017 A 
BRANCH  18  21
HETATM   21  C   UNK N   1      26.538  19.420   3.545  0.00  0.00     0.043 C 
BRANCH  21  22
HETATM   22  C   UNK N   1      27.052  19.918   4.889  0.00  0.00     0.045 C 
BRANCH  22  23
HETATM   23  C   UNK N   1      28.016  18.933   5.473  0.00  0.00    -0.024 A 
HETATM   24  C   UNK N   1      28.840  18.083   4.740  0.00  0.00     0.098 A 
HETATM   25  N   UNK N   1      29.587  17.330   5.587  0.00  0.00    -0.350 N 
HETATM   26  C   UNK N   1      29.227  17.704   6.826  0.00  0.00     0.136 A 
HETATM   27  H   UNK N   1      30.256  16.648   5.344  0.00  0.00     0.166 HD
HETATM   28  C   UNK N   1      28.272  18.670   6.802  0.00  0.00     0.067 A 
HETATM   29  N   UNK N   1      29.723  17.205   7.983  0.00  0.00    -0.176 N 
HETATM   30  C   UNK N   1      27.770  19.165   8.001  0.00  0.00     0.170 A 
HETATM   31  N   UNK N   1      28.272  18.665   9.169  0.00  0.00    -0.170 N 
HETATM   32  C   UNK N   1      29.242  17.696   9.165  0.00  0.00     0.679 A 
ATOM     33  HN  UNK N   1      27.919  19.018  10.059  1.00  0.00     0.186 HD
HETATM   34  N   UNK N   1      29.694  17.244  10.272  0.00  0.00    -0.234 N 
HETATM   35  H   UNK N   1      30.288  16.459  10.285  0.00  0.00     0.174 HD
ATOM     36  HN  UNK N   1      29.438  17.700  11.148  1.00  0.00     0.174 HD
HETATM   37  H   UNK N   1      30.415  16.504   7.974  0.00  0.00     0.186 HD
BRANCH  30  38
HETATM   38  O   UNK N   1      26.807  20.099   8.027  0.00  0.00    -0.345 OA
HETATM   39  H   UNK N   1      26.992  21.010   7.916  0.00  0.00     0.219 HD
ENDBRANCH  30  38
ENDBRANCH  22  23
ENDBRANCH  21  22
ENDBRANCH  18  21
ENDBRANCH  12  15
ENDBRANCH   6  11
ENDBRANCH   5   6
ENDBRANCH   4   5
ENDBRANCH   1   4
BRANCH   1  40
HETATM   40  O   UNK N   1      18.755  15.368   0.525  0.00  0.00    -0.350 OA
HETATM   41  H   UNK N   1      17.985  15.866   0.335  0.00  0.00     0.219 HD
ENDBRANCH   1  40
BRANCH   2  42
HETATM   42  C   UNK N   1      19.495  13.448   3.532  0.00  0.00     0.181 C 
BRANCH  42  43
HETATM   43  C   UNK N   1      19.360  14.509   4.636  0.00  0.00     0.044 C 
BRANCH  43  44
HETATM   44  C   UNK N   1      20.290  14.219   5.821  0.00  0.00     0.086 C 
BRANCH  44  45
HETATM   45  C   UNK N   1      21.511  15.092   5.871  0.00  0.00     0.112 C 
HETATM   46  N   UNK N   1      21.658  15.983   6.794  0.00  0.00    -0.360 N 
ATOM     47  HN  UNK N   1      22.511  16.540   6.788  1.00  0.00     0.162 HD
BRANCH  46  48
HETATM   48  C   UNK N   1      20.684  16.243   7.841  0.00  0.00     0.181 C 
BRANCH  48  49
HETATM   49  C   UNK N   1      21.072  15.585   9.174  0.00  0.00     0.044 C 
BRANCH  49  50
HETATM   50  C   UNK N   1      20.132  14.473   9.636  0.00  0.00     0.086 C 
BRANCH  50  51
HETATM   51  C   UNK N   1      20.929  13.293  10.079  0.00  0.00     0.112 C 
HETATM   52  N   UNK N   1      22.165  13.176   9.708  0.00  0.00    -0.360 N 
ATOM     53  HN  UNK N   1      22.576  13.946   9.181  1.00  0.00     0.162 HD
BRANCH  52  54
HETATM   54  C   UNK N   1      23.005  12.026   9.991  0.00  0.00     0.181 C 
BRANCH  54  55
HETATM   55  C   UNK N   1      24.059  11.816   8.898  0.00  0.00     0.046 C 
BRANCH  55  56
HETATM   56  C   UNK N   1      23.616  12.434   7.577  0.00  0.00     0.112 C 
BRANCH  56  57
HETATM   57  C   UNK N   1      24.661  13.383   7.080  0.00  0.00     0.139 C 
HETATM   58  O   UNK N   1      24.514  14.588   7.212  0.00  0.00    -0.650 OA
BRANCH  57  59
HETATM   59  O   UNK N   1      25.777  12.906   6.497  0.00  0.00    -0.776 OA
HETATM   60  H   UNK N   1      26.346  13.420   5.959  0.00  0.00     0.167 HD
ENDBRANCH  57  59
ENDBRANCH  56  57
ENDBRANCH  55  56
ENDBRANCH  54  55
BRANCH  54  61
HETATM   61  C   UNK N   1      23.638  12.164  11.354  0.00  0.00     0.163 C 
HETATM   62  O   UNK N   1      22.971  11.954  12.356  0.00  0.00    -0.648 OA
BRANCH  61  63
HETATM   63  O   UNK N   1      24.929  12.527  11.481  0.00  0.00    -0.775 OA
HETATM   64  H   UNK N   1      25.670  12.348  12.025  0.00  0.00     0.167 HD
ENDBRANCH  61  63
ENDBRANCH  54  61
ENDBRANCH  52  54
BRANCH  51  65
HETATM   65  O   UNK N   1      20.322  12.327  10.797  0.00  0.00    -0.350 OA
HETATM   66  H   UNK N   1      20.057  12.028  11.646  0.00  0.00     0.219 HD
ENDBRANCH  51  65
ENDBRANCH  50  51
ENDBRANCH  49  50
ENDBRANCH  48  49
BRANCH  48  67
HETATM   67  C   UNK N   1      20.509  17.729   7.995  0.00  0.00     0.163 C 
HETATM   68  O   UNK N   1      20.994  18.483   7.167  0.00  0.00    -0.648 OA
BRANCH  67  69
HETATM   69  O   UNK N   1      19.804  18.240   9.024  0.00  0.00    -0.775 OA
HETATM   70  H   UNK N   1      18.884  18.090   9.126  0.00  0.00     0.167 HD
ENDBRANCH  67  69
ENDBRANCH  48  67
ENDBRANCH  46  48
BRANCH  45  71
HETATM   71  O   UNK N   1      22.464  14.966   4.930  0.00  0.00    -0.350 OA
HETATM   72  H   UNK N   1      23.342  15.280   4.841  0.00  0.00     0.219 HD
ENDBRANCH  45  71
ENDBRANCH  44  45
ENDBRANCH  43  44
ENDBRANCH  42  43
BRANCH  42  73
HETATM   73  C   UNK N   1      18.810  12.157   3.903  0.00  0.00     0.163 C 
HETATM   74  O   UNK N   1      17.591  12.072   3.906  0.00  0.00    -0.648 OA
BRANCH  73  75
HETATM   75  O   UNK N   1      19.549  11.084   4.242  0.00  0.00    -0.775 OA
HETATM   76  H   UNK N   1      19.248  10.492   4.903  0.00  0.00     0.167 HD
ENDBRANCH  73  75
ENDBRANCH  42  73
ENDBRANCH   2  42
TORSDOF 33
ENDMDL
MODEL 6
REMARK VINA RESULT:      -7.5      2.901      8.349
REMARK WARNING: 32 MAX_TORS EXCEEDED!!!
REMARK  33 active torsions:
REMARK  status: ('A' for Active; 'I' for Inactive)
REMARK    1  A    between atoms: C_6  and  C_3 
REMARK    2  A    between atoms: C_16  and  C_3 
REMARK    3  A    between atoms: C_18  and  C_6 
REMARK    4  A    between atoms: C_11  and  C_7 
REMARK    5  A    between atoms: C_20  and  C_7 
REMARK    6  A    between atoms: C_12  and  C_8 
REMARK    7  A    between atoms: C_19  and  C_8 
REMARK    8  A    between atoms: C_13  and  C_9 
REMARK    9  A    between atoms: C_22  and  C_9 
REMARK   10  A    between atoms: C_14  and  C_10 
REMARK   11  A    between atoms: C_21  and  C_10 
REMARK   12  A    between atoms: C_23  and  C_11 
REMARK   13  A    between atoms: C_24  and  C_12 
REMARK   14  A    between atoms: C_25  and  C_13 
REMARK   15  A    between atoms: C_26  and  C_14 
REMARK   16  A    between atoms: C_29  and  C_17 
REMARK   17  A    between atoms: C_31  and  C_19 
REMARK   18  A    between atoms: C_19  and  N_39 
REMARK   19  A    between atoms: C_32  and  C_20 
REMARK   20  A    between atoms: C_20  and  N_41 
REMARK   21  A    between atoms: C_33  and  C_21 
REMARK   22  A    between atoms: N_43  and  C_21 
REMARK   23  A    between atoms: C_34  and  C_22 
REMARK   24  A    between atoms: C_22  and  N_45 
REMARK   25  A    between atoms: C_23  and  O_49 
REMARK   26  A    between atoms: O_50  and  C_24 
REMARK   27  A    between atoms: C_25  and  O_51 
REMARK   28  A    between atoms: O_53  and  C_26 
REMARK       I    between atoms: N_45  and  C_29 
REMARK   29  A    between atoms: O_55  and  C_30 
REMARK   30  A    between atoms: O_57  and  C_31 
REMARK   31  A    between atoms: O_59  and  C_32 
REMARK   32  A    between atoms: O_61  and  C_33 
REMARK   33  A    between atoms: O_63  and  C_34 
ROOT
HETATM    1  C   UNK N   1      21.514  18.196   4.862  0.00  0.00     0.112 C 
HETATM    2  N   UNK N   1      22.477  17.578   5.457  0.00  0.00    -0.360 N 
ATOM      3  HN  UNK N   1      23.141  18.139   5.991  1.00  0.00     0.162 HD
ENDROOT
BRANCH   1   4
HETATM    4  C   UNK N   1      20.407  17.444   4.160  0.00  0.00     0.086 C 
BRANCH   4   5
HETATM    5  C   UNK N   1      19.705  18.245   3.068  0.00  0.00     0.044 C 
BRANCH   5   6
HETATM    6  C   UNK N   1      20.458  18.306   1.732  0.00  0.00     0.183 C 
BRANCH   6   7
HETATM    7  C   UNK N   1      20.623  19.758   1.333  0.00  0.00     0.163 C 
HETATM    8  O   UNK N   1      20.666  20.635   2.181  0.00  0.00    -0.648 OA
BRANCH   7   9
HETATM    9  O   UNK N   1      20.706  20.097   0.033  0.00  0.00    -0.775 OA
HETATM   10  H   UNK N   1      20.653  20.997  -0.225  0.00  0.00     0.167 HD
ENDBRANCH   7   9
ENDBRANCH   6   7
BRANCH   6  11
HETATM   11  N   UNK N   1      19.784  17.596   0.654  0.00  0.00    -0.343 N 
HETATM   12  C   UNK N   1      19.546  16.271   0.420  0.00  0.00     0.252 C 
HETATM   13  O   UNK N   1      18.720  15.998  -0.438  0.00  0.00    -0.268 OA
HETATM   14  H   UNK N   1      19.430  18.190  -0.048  0.00  0.00     0.163 HD
BRANCH  12  15
HETATM   15  C   UNK N   1      20.200  15.122   1.119  0.00  0.00     0.032 A 
HETATM   16  C   UNK N   1      21.601  15.062   1.107  0.00  0.00     0.017 A 
HETATM   17  C   UNK N   1      22.282  14.047   1.772  0.00  0.00     0.008 A 
HETATM   18  C   UNK N   1      21.579  13.095   2.506  0.00  0.00    -0.058 A 
HETATM   19  C   UNK N   1      20.179  13.149   2.553  0.00  0.00     0.008 A 
HETATM   20  C   UNK N   1      19.493  14.158   1.862  0.00  0.00     0.017 A 
BRANCH  18  21
HETATM   21  C   UNK N   1      22.337  12.052   3.253  0.00  0.00     0.043 C 
BRANCH  21  22
HETATM   22  C   UNK N   1      21.472  11.443   4.347  0.00  0.00     0.045 C 
BRANCH  22  23
HETATM   23  C   UNK N   1      22.297  11.161   5.564  0.00  0.00    -0.024 A 
HETATM   24  C   UNK N   1      23.401  10.314   5.608  0.00  0.00     0.098 A 
HETATM   25  N   UNK N   1      23.912  10.296   6.865  0.00  0.00    -0.350 N 
HETATM   26  C   UNK N   1      23.133  11.117   7.590  0.00  0.00     0.136 A 
HETATM   27  H   UNK N   1      24.693   9.786   7.183  0.00  0.00     0.166 HD
HETATM   28  C   UNK N   1      22.138  11.658   6.841  0.00  0.00     0.067 A 
HETATM   29  N   UNK N   1      23.282  11.396   8.907  0.00  0.00    -0.176 N 
HETATM   30  C   UNK N   1      21.226  12.522   7.437  0.00  0.00     0.170 A 
HETATM   31  N   UNK N   1      21.376  12.807   8.764  0.00  0.00    -0.170 N 
HETATM   32  C   UNK N   1      22.395  12.253   9.496  0.00  0.00     0.679 A 
ATOM     33  HN  UNK N   1      20.719  13.441   9.219  1.00  0.00     0.186 HD
HETATM   34  N   UNK N   1      22.512  12.536  10.737  0.00  0.00    -0.234 N 
HETATM   35  H   UNK N   1      23.152  12.045  11.303  0.00  0.00     0.174 HD
ATOM     36  HN  UNK N   1      21.939  13.275  11.146  1.00  0.00     0.174 HD
HETATM   37  H   UNK N   1      24.011  10.990   9.429  0.00  0.00     0.186 HD
BRANCH  30  38
HETATM   38  O   UNK N   1      20.210  13.058   6.743  0.00  0.00    -0.345 OA
HETATM   39  H   UNK N   1      20.164  13.012   5.809  0.00  0.00     0.219 HD
ENDBRANCH  30  38
ENDBRANCH  22  23
ENDBRANCH  21  22
ENDBRANCH  18  21
ENDBRANCH  12  15
ENDBRANCH   6  11
ENDBRANCH   5   6
ENDBRANCH   4   5
ENDBRANCH   1   4
BRANCH   1  40
HETATM   40  O   UNK N   1      21.523  19.544   4.852  0.00  0.00    -0.350 OA
HETATM   41  H   UNK N   1      21.876  20.296   5.286  0.00  0.00     0.219 HD
ENDBRANCH   1  40
BRANCH   2  42
HETATM   42  C   UNK N   1      22.688  16.139   5.424  0.00  0.00     0.181 C 
BRANCH  42  43
HETATM   43  C   UNK N   1      24.065  15.882   4.792  0.00  0.00     0.044 C 
BRANCH  43  44
HETATM   44  C   UNK N   1      24.943  17.141   4.809  0.00  0.00     0.086 C 
BRANCH  44  45
HETATM   45  C   UNK N   1      25.634  17.426   3.506  0.00  0.00     0.112 C 
HETATM   46  N   UNK N   1      25.728  18.630   3.050  0.00  0.00    -0.360 N 
ATOM     47  HN  UNK N   1      26.218  18.768   2.166  1.00  0.00     0.162 HD
BRANCH  46  48
HETATM   48  C   UNK N   1      25.183  19.802   3.714  0.00  0.00     0.181 C 
BRANCH  48  49
HETATM   49  C   UNK N   1      26.277  20.678   4.341  0.00  0.00     0.044 C 
BRANCH  49  50
HETATM   50  C   UNK N   1      26.303  20.676   5.869  0.00  0.00     0.086 C 
BRANCH  50  51
HETATM   51  C   UNK N   1      27.503  19.932   6.350  0.00  0.00     0.112 C 
HETATM   52  N   UNK N   1      27.982  18.958   5.642  0.00  0.00    -0.360 N 
ATOM     53  HN  UNK N   1      27.559  18.782   4.731  1.00  0.00     0.162 HD
BRANCH  52  54
HETATM   54  C   UNK N   1      29.078  18.100   6.056  0.00  0.00     0.181 C 
BRANCH  54  55
HETATM   55  C   UNK N   1      28.602  17.002   7.014  0.00  0.00     0.046 C 
BRANCH  55  56
HETATM   56  C   UNK N   1      29.409  17.008   8.307  0.00  0.00     0.112 C 
BRANCH  56  57
HETATM   57  C   UNK N   1      28.805  17.970   9.282  0.00  0.00     0.139 C 
HETATM   58  O   UNK N   1      29.512  18.755   9.895  0.00  0.00    -0.650 OA
BRANCH  57  59
HETATM   59  O   UNK N   1      27.473  17.981   9.474  0.00  0.00    -0.776 OA
HETATM   60  H   UNK N   1      26.922  17.232   9.356  0.00  0.00     0.167 HD
ENDBRANCH  57  59
ENDBRANCH  56  57
ENDBRANCH  55  56
ENDBRANCH  54  55
BRANCH  54  61
HETATM   61  C   UNK N   1      29.774  17.522   4.849  0.00  0.00     0.163 C 
HETATM   62  O   UNK N   1      30.989  17.604   4.753  0.00  0.00    -0.648 OA
BRANCH  61  63
HETATM   63  O   UNK N   1      29.070  16.925   3.868  0.00  0.00    -0.775 OA
HETATM   64  H   UNK N   1      29.139  16.742   2.952  0.00  0.00     0.167 HD
ENDBRANCH  61  63
ENDBRANCH  54  61
ENDBRANCH  52  54
BRANCH  51  65
HETATM   65  O   UNK N   1      28.022  20.240   7.556  0.00  0.00    -0.350 OA
HETATM   66  H   UNK N   1      28.010  20.824   8.290  0.00  0.00     0.219 HD
ENDBRANCH  51  65
ENDBRANCH  50  51
ENDBRANCH  49  50
ENDBRANCH  48  49
BRANCH  48  67
HETATM   67  C   UNK N   1      24.350  20.582   2.735  0.00  0.00     0.163 C 
HETATM   68  O   UNK N   1      24.679  20.623   1.560  0.00  0.00    -0.648 OA
BRANCH  67  69
HETATM   69  O   UNK N   1      23.230  21.220   3.132  0.00  0.00    -0.775 OA
HETATM   70  H   UNK N   1      22.451  20.760   3.376  0.00  0.00     0.167 HD
ENDBRANCH  67  69
ENDBRANCH  48  67
ENDBRANCH  46  48
BRANCH  45  71
HETATM   71  O   UNK N   1      26.145  16.413   2.783  0.00  0.00    -0.350 OA
HETATM   72  H   UNK N   1      25.879  15.964   2.005  0.00  0.00     0.219 HD
ENDBRANCH  45  71
ENDBRANCH  44  45
ENDBRANCH  43  44
ENDBRANCH  42  43
BRANCH  42  73
HETATM   73  C   UNK N   1      22.593  15.576   6.819  0.00  0.00     0.163 C 
HETATM   74  O   UNK N   1      21.625  15.810   7.525  0.00  0.00    -0.648 OA
BRANCH  73  75
HETATM   75  O   UNK N   1      23.592  14.810   7.299  0.00  0.00    -0.775 OA
HETATM   76  H   UNK N   1      23.622  14.586   8.208  0.00  0.00     0.167 HD
ENDBRANCH  73  75
ENDBRANCH  42  73
ENDBRANCH   2  42
TORSDOF 33
ENDMDL
MODEL 7
REMARK VINA RESULT:      -7.4      2.001      6.220
REMARK WARNING: 32 MAX_TORS EXCEEDED!!!
REMARK  33 active torsions:
REMARK  status: ('A' for Active; 'I' for Inactive)
REMARK    1  A    between atoms: C_6  and  C_3 
REMARK    2  A    between atoms: C_16  and  C_3 
REMARK    3  A    between atoms: C_18  and  C_6 
REMARK    4  A    between atoms: C_11  and  C_7 
REMARK    5  A    between atoms: C_20  and  C_7 
REMARK    6  A    between atoms: C_12  and  C_8 
REMARK    7  A    between atoms: C_19  and  C_8 
REMARK    8  A    between atoms: C_13  and  C_9 
REMARK    9  A    between atoms: C_22  and  C_9 
REMARK   10  A    between atoms: C_14  and  C_10 
REMARK   11  A    between atoms: C_21  and  C_10 
REMARK   12  A    between atoms: C_23  and  C_11 
REMARK   13  A    between atoms: C_24  and  C_12 
REMARK   14  A    between atoms: C_25  and  C_13 
REMARK   15  A    between atoms: C_26  and  C_14 
REMARK   16  A    between atoms: C_29  and  C_17 
REMARK   17  A    between atoms: C_31  and  C_19 
REMARK   18  A    between atoms: C_19  and  N_39 
REMARK   19  A    between atoms: C_32  and  C_20 
REMARK   20  A    between atoms: C_20  and  N_41 
REMARK   21  A    between atoms: C_33  and  C_21 
REMARK   22  A    between atoms: N_43  and  C_21 
REMARK   23  A    between atoms: C_34  and  C_22 
REMARK   24  A    between atoms: C_22  and  N_45 
REMARK   25  A    between atoms: C_23  and  O_49 
REMARK   26  A    between atoms: O_50  and  C_24 
REMARK   27  A    between atoms: C_25  and  O_51 
REMARK   28  A    between atoms: O_53  and  C_26 
REMARK       I    between atoms: N_45  and  C_29 
REMARK   29  A    between atoms: O_55  and  C_30 
REMARK   30  A    between atoms: O_57  and  C_31 
REMARK   31  A    between atoms: O_59  and  C_32 
REMARK   32  A    between atoms: O_61  and  C_33 
REMARK   33  A    between atoms: O_63  and  C_34 
ROOT
HETATM    1  C   UNK N   1      19.317  16.328   4.903  0.00  0.00     0.112 C 
HETATM    2  N   UNK N   1      19.216  17.105   3.878  0.00  0.00    -0.360 N 
ATOM      3  HN  UNK N   1      18.283  17.419   3.614  1.00  0.00     0.162 HD
ENDROOT
BRANCH   1   4
HETATM    4  C   UNK N   1      20.664  15.917   5.454  0.00  0.00     0.086 C 
BRANCH   4   5
HETATM    5  C   UNK N   1      20.618  14.693   6.363  0.00  0.00     0.044 C 
BRANCH   5   6
HETATM    6  C   UNK N   1      21.615  13.585   5.997  0.00  0.00     0.183 C 
BRANCH   6   7
HETATM    7  C   UNK N   1      20.875  12.492   5.254  0.00  0.00     0.163 C 
HETATM    8  O   UNK N   1      21.037  12.336   4.054  0.00  0.00    -0.648 OA
BRANCH   7   9
HETATM    9  O   UNK N   1      20.015  11.691   5.910  0.00  0.00    -0.775 OA
HETATM   10  H   UNK N   1      20.332  10.953   6.395  0.00  0.00     0.167 HD
ENDBRANCH   7   9
ENDBRANCH   6   7
BRANCH   6  11
HETATM   11  N   UNK N   1      22.281  13.000   7.152  0.00  0.00    -0.343 N 
HETATM   12  C   UNK N   1      23.554  13.098   7.640  0.00  0.00     0.252 C 
HETATM   13  O   UNK N   1      23.744  12.702   8.780  0.00  0.00    -0.268 OA
HETATM   14  H   UNK N   1      21.697  12.417   7.691  0.00  0.00     0.163 HD
BRANCH  12  15
HETATM   15  C   UNK N   1      24.737  13.647   6.907  0.00  0.00     0.032 A 
HETATM   16  C   UNK N   1      25.199  14.920   7.275  0.00  0.00     0.017 A 
HETATM   17  C   UNK N   1      26.320  15.479   6.668  0.00  0.00     0.008 A 
HETATM   18  C   UNK N   1      27.034  14.758   5.715  0.00  0.00    -0.058 A 
HETATM   19  C   UNK N   1      26.606  13.474   5.350  0.00  0.00     0.008 A 
HETATM   20  C   UNK N   1      25.462  12.921   5.944  0.00  0.00     0.017 A 
BRANCH  18  21
HETATM   21  C   UNK N   1      28.262  15.360   5.123  0.00  0.00     0.043 C 
BRANCH  21  22
HETATM   22  C   UNK N   1      28.667  16.611   5.892  0.00  0.00     0.045 C 
BRANCH  22  23
HETATM   23  C   UNK N   1      30.132  16.868   5.727  0.00  0.00    -0.024 A 
HETATM   24  C   UNK N   1      30.822  16.846   4.517  0.00  0.00     0.098 A 
HETATM   25  N   UNK N   1      32.132  17.128   4.733  0.00  0.00    -0.350 N 
HETATM   26  C   UNK N   1      32.253  17.317   6.058  0.00  0.00     0.136 A 
HETATM   27  H   UNK N   1      32.848  17.182   4.059  0.00  0.00     0.166 HD
HETATM   28  C   UNK N   1      31.065  17.163   6.699  0.00  0.00     0.067 A 
HETATM   29  N   UNK N   1      33.397  17.620   6.716  0.00  0.00    -0.176 N 
HETATM   30  C   UNK N   1      31.010  17.308   8.081  0.00  0.00     0.170 A 
HETATM   31  N   UNK N   1      32.163  17.617   8.746  0.00  0.00    -0.170 N 
HETATM   32  C   UNK N   1      33.347  17.775   8.074  0.00  0.00     0.679 A 
ATOM     33  HN  UNK N   1      32.142  17.731   9.760  1.00  0.00     0.186 HD
HETATM   34  N   UNK N   1      34.411  18.063   8.721  0.00  0.00    -0.234 N 
HETATM   35  H   UNK N   1      35.288  18.047   8.272  0.00  0.00     0.174 HD
ATOM     36  HN  UNK N   1      34.353  18.312   9.708  1.00  0.00     0.174 HD
HETATM   37  H   UNK N   1      34.246  17.725   6.229  0.00  0.00     0.186 HD
BRANCH  30  38
HETATM   38  O   UNK N   1      29.866  17.138   8.760  0.00  0.00    -0.345 OA
HETATM   39  H   UNK N   1      29.536  16.288   8.979  0.00  0.00     0.219 HD
ENDBRANCH  30  38
ENDBRANCH  22  23
ENDBRANCH  21  22
ENDBRANCH  18  21
ENDBRANCH  12  15
ENDBRANCH   6  11
ENDBRANCH   5   6
ENDBRANCH   4   5
ENDBRANCH   1   4
BRANCH   1  40
HETATM   40  O   UNK N   1      18.187  15.860   5.470  0.00  0.00    -0.350 OA
HETATM   41  H   UNK N   1      17.843  15.474   6.251  0.00  0.00     0.219 HD
ENDBRANCH   1  40
BRANCH   2  42
HETATM   42  C   UNK N   1      20.335  17.565   3.070  0.00  0.00     0.181 C 
BRANCH  42  43
HETATM   43  C   UNK N   1      19.894  17.531   1.598  0.00  0.00     0.044 C 
BRANCH  43  44
HETATM   44  C   UNK N   1      20.378  16.260   0.888  0.00  0.00     0.086 C 
BRANCH  44  45
HETATM   45  C   UNK N   1      20.248  15.010   1.712  0.00  0.00     0.112 C 
HETATM   46  N   UNK N   1      21.290  14.408   2.179  0.00  0.00    -0.360 N 
ATOM     47  HN  UNK N   1      21.145  13.571   2.742  1.00  0.00     0.162 HD
BRANCH  46  48
HETATM   48  C   UNK N   1      22.658  14.847   1.955  0.00  0.00     0.181 C 
BRANCH  48  49
HETATM   49  C   UNK N   1      23.440  15.007   3.267  0.00  0.00     0.044 C 
BRANCH  49  50
HETATM   50  C   UNK N   1      24.720  15.834   3.153  0.00  0.00     0.086 C 
BRANCH  50  51
HETATM   51  C   UNK N   1      24.521  17.161   3.803  0.00  0.00     0.112 C 
HETATM   52  N   UNK N   1      25.124  18.206   3.330  0.00  0.00    -0.360 N 
ATOM     53  HN  UNK N   1      25.662  18.093   2.471  1.00  0.00     0.162 HD
BRANCH  52  54
HETATM   54  C   UNK N   1      25.086  19.524   3.937  0.00  0.00     0.181 C 
BRANCH  54  55
HETATM   55  C   UNK N   1      26.453  19.920   4.508  0.00  0.00     0.046 C 
BRANCH  55  56
HETATM   56  C   UNK N   1      26.321  21.039   5.533  0.00  0.00     0.112 C 
BRANCH  56  57
HETATM   57  C   UNK N   1      26.780  20.560   6.875  0.00  0.00     0.139 C 
HETATM   58  O   UNK N   1      27.801  19.899   6.979  0.00  0.00    -0.650 OA
BRANCH  57  59
HETATM   59  O   UNK N   1      26.071  20.873   7.976  0.00  0.00    -0.776 OA
HETATM   60  H   UNK N   1      26.024  21.736   8.339  0.00  0.00     0.167 HD
ENDBRANCH  57  59
ENDBRANCH  56  57
ENDBRANCH  55  56
ENDBRANCH  54  55
BRANCH  54  61
HETATM   61  C   UNK N   1      24.583  20.543   2.944  0.00  0.00     0.163 C 
HETATM   62  O   UNK N   1      25.313  20.922   2.042  0.00  0.00    -0.648 OA
BRANCH  61  63
HETATM   63  O   UNK N   1      23.339  21.050   3.049  0.00  0.00    -0.775 OA
HETATM   64  H   UNK N   1      22.517  20.844   3.448  0.00  0.00     0.167 HD
ENDBRANCH  61  63
ENDBRANCH  54  61
ENDBRANCH  52  54
BRANCH  51  65
HETATM   65  O   UNK N   1      23.772  17.234   4.922  0.00  0.00    -0.350 OA
HETATM   66  H   UNK N   1      22.910  17.247   5.291  0.00  0.00     0.219 HD
ENDBRANCH  51  65
ENDBRANCH  50  51
ENDBRANCH  49  50
ENDBRANCH  48  49
BRANCH  48  67
HETATM   67  C   UNK N   1      23.340  13.881   1.025  0.00  0.00     0.163 C 
HETATM   68  O   UNK N   1      23.140  12.683   1.145  0.00  0.00    -0.648 OA
BRANCH  67  69
HETATM   69  O   UNK N   1      24.153  14.323   0.044  0.00  0.00    -0.775 OA
HETATM   70  H   UNK N   1      25.057  14.082  -0.005  0.00  0.00     0.167 HD
ENDBRANCH  67  69
ENDBRANCH  48  67
ENDBRANCH  46  48
BRANCH  45  71
HETATM   71  O   UNK N   1      19.032  14.490   1.953  0.00  0.00    -0.350 OA
HETATM   72  H   UNK N   1      18.221  14.477   1.483  0.00  0.00     0.219 HD
ENDBRANCH  45  71
ENDBRANCH  44  45
ENDBRANCH  43  44
ENDBRANCH  42  43
BRANCH  42  73
HETATM   73  C   UNK N   1      20.745  18.949   3.506  0.00  0.00     0.163 C 
HETATM   74  O   UNK N   1      20.371  19.936   2.892  0.00  0.00    -0.648 OA
BRANCH  73  75
HETATM   75  O   UNK N   1      21.539  19.101   4.582  0.00  0.00    -0.775 OA
HETATM   76  H   UNK N   1      22.468  19.008   4.502  0.00  0.00     0.167 HD
ENDBRANCH  73  75
ENDBRANCH  42  73
ENDBRANCH   2  42
TORSDOF 33
ENDMDL
MODEL 8
REMARK VINA RESULT:      -7.4      2.234      6.634
REMARK WARNING: 32 MAX_TORS EXCEEDED!!!
REMARK  33 active torsions:
REMARK  status: ('A' for Active; 'I' for Inactive)
REMARK    1  A    between atoms: C_6  and  C_3 
REMARK    2  A    between atoms: C_16  and  C_3 
REMARK    3  A    between atoms: C_18  and  C_6 
REMARK    4  A    between atoms: C_11  and  C_7 
REMARK    5  A    between atoms: C_20  and  C_7 
REMARK    6  A    between atoms: C_12  and  C_8 
REMARK    7  A    between atoms: C_19  and  C_8 
REMARK    8  A    between atoms: C_13  and  C_9 
REMARK    9  A    between atoms: C_22  and  C_9 
REMARK   10  A    between atoms: C_14  and  C_10 
REMARK   11  A    between atoms: C_21  and  C_10 
REMARK   12  A    between atoms: C_23  and  C_11 
REMARK   13  A    between atoms: C_24  and  C_12 
REMARK   14  A    between atoms: C_25  and  C_13 
REMARK   15  A    between atoms: C_26  and  C_14 
REMARK   16  A    between atoms: C_29  and  C_17 
REMARK   17  A    between atoms: C_31  and  C_19 
REMARK   18  A    between atoms: C_19  and  N_39 
REMARK   19  A    between atoms: C_32  and  C_20 
REMARK   20  A    between atoms: C_20  and  N_41 
REMARK   21  A    between atoms: C_33  and  C_21 
REMARK   22  A    between atoms: N_43  and  C_21 
REMARK   23  A    between atoms: C_34  and  C_22 
REMARK   24  A    between atoms: C_22  and  N_45 
REMARK   25  A    between atoms: C_23  and  O_49 
REMARK   26  A    between atoms: O_50  and  C_24 
REMARK   27  A    between atoms: C_25  and  O_51 
REMARK   28  A    between atoms: O_53  and  C_26 
REMARK       I    between atoms: N_45  and  C_29 
REMARK   29  A    between atoms: O_55  and  C_30 
REMARK   30  A    between atoms: O_57  and  C_31 
REMARK   31  A    between atoms: O_59  and  C_32 
REMARK   32  A    between atoms: O_61  and  C_33 
REMARK   33  A    between atoms: O_63  and  C_34 
ROOT
HETATM    1  C   UNK N   1      24.053  12.341   7.744  0.00  0.00     0.112 C 
HETATM    2  N   UNK N   1      23.445  12.012   8.833  0.00  0.00    -0.360 N 
ATOM      3  HN  UNK N   1      23.081  11.062   8.902  1.00  0.00     0.162 HD
ENDROOT
BRANCH   1   4
HETATM    4  C   UNK N   1      24.743  13.678   7.596  0.00  0.00     0.086 C 
BRANCH   4   5
HETATM    5  C   UNK N   1      24.413  14.409   6.299  0.00  0.00     0.044 C 
BRANCH   5   6
HETATM    6  C   UNK N   1      25.636  14.866   5.492  0.00  0.00     0.183 C 
BRANCH   6   7
HETATM    7  C   UNK N   1      26.082  16.218   6.008  0.00  0.00     0.163 C 
HETATM    8  O   UNK N   1      25.676  17.247   5.491  0.00  0.00    -0.648 OA
BRANCH   7   9
HETATM    9  O   UNK N   1      26.948  16.298   7.036  0.00  0.00    -0.775 OA
HETATM   10  H   UNK N   1      26.779  16.880   7.752  0.00  0.00     0.167 HD
ENDBRANCH   7   9
ENDBRANCH   6   7
BRANCH   6  11
HETATM   11  N   UNK N   1      25.380  14.972   4.062  0.00  0.00    -0.343 N 
HETATM   12  C   UNK N   1      26.199  14.955   2.967  0.00  0.00     0.252 C 
HETATM   13  O   UNK N   1      25.667  14.795   1.879  0.00  0.00    -0.268 OA
HETATM   14  H   UNK N   1      24.427  15.077   3.838  0.00  0.00     0.163 HD
BRANCH  12  15
HETATM   15  C   UNK N   1      27.687  15.110   2.978  0.00  0.00     0.032 A 
HETATM   16  C   UNK N   1      28.207  16.403   3.138  0.00  0.00     0.017 A 
HETATM   17  C   UNK N   1      29.580  16.622   3.200  0.00  0.00     0.008 A 
HETATM   18  C   UNK N   1      30.464  15.547   3.154  0.00  0.00    -0.058 A 
HETATM   19  C   UNK N   1      29.966  14.243   3.020  0.00  0.00     0.008 A 
HETATM   20  C   UNK N   1      28.583  14.026   2.932  0.00  0.00     0.017 A 
BRANCH  18  21
HETATM   21  C   UNK N   1      31.925  15.806   3.279  0.00  0.00     0.043 C 
BRANCH  21  22
HETATM   22  C   UNK N   1      32.482  15.140   4.529  0.00  0.00     0.045 C 
BRANCH  22  23
HETATM   23  C   UNK N   1      32.732  16.162   5.594  0.00  0.00    -0.024 A 
HETATM   24  C   UNK N   1      33.926  16.854   5.779  0.00  0.00     0.098 A 
HETATM   25  N   UNK N   1      33.801  17.705   6.830  0.00  0.00    -0.350 N 
HETATM   26  C   UNK N   1      32.550  17.538   7.291  0.00  0.00     0.136 A 
HETATM   27  H   UNK N   1      34.486  18.319   7.183  0.00  0.00     0.166 HD
HETATM   28  C   UNK N   1      31.869  16.607   6.573  0.00  0.00     0.067 A 
HETATM   29  N   UNK N   1      31.996  18.192   8.340  0.00  0.00    -0.176 N 
HETATM   30  C   UNK N   1      30.560  16.297   6.925  0.00  0.00     0.170 A 
HETATM   31  N   UNK N   1      29.998  16.957   7.980  0.00  0.00    -0.170 N 
HETATM   32  C   UNK N   1      30.705  17.899   8.683  0.00  0.00     0.679 A 
ATOM     33  HN  UNK N   1      29.038  16.745   8.251  1.00  0.00     0.186 HD
HETATM   34  N   UNK N   1      30.156  18.501   9.668  0.00  0.00    -0.234 N 
HETATM   35  H   UNK N   1      30.691  19.077  10.261  0.00  0.00     0.174 HD
ATOM     36  HN  UNK N   1      29.158  18.385   9.841  1.00  0.00     0.174 HD
HETATM   37  H   UNK N   1      32.511  18.862   8.845  0.00  0.00     0.186 HD
BRANCH  30  38
HETATM   38  O   UNK N   1      29.858  15.364   6.263  0.00  0.00    -0.345 OA
HETATM   39  H   UNK N   1      29.872  14.460   6.509  0.00  0.00     0.219 HD
ENDBRANCH  30  38
ENDBRANCH  22  23
ENDBRANCH  21  22
ENDBRANCH  18  21
ENDBRANCH  12  15
ENDBRANCH   6  11
ENDBRANCH   5   6
ENDBRANCH   4   5
ENDBRANCH   1   4
BRANCH   1  40
HETATM   40  O   UNK N   1      24.043  11.472   6.713  0.00  0.00    -0.350 OA
HETATM   41  H   UNK N   1      24.172  11.403   5.788  0.00  0.00     0.219 HD
ENDBRANCH   1  40
BRANCH   2  42
HETATM   42  C   UNK N   1      23.239  12.896   9.969  0.00  0.00     0.181 C 
BRANCH  42  43
HETATM   43  C   UNK N   1      21.731  13.170  10.082  0.00  0.00     0.044 C 
BRANCH  43  44
HETATM   44  C   UNK N   1      21.341  14.490   9.402  0.00  0.00     0.086 C 
BRANCH  44  45
HETATM   45  C   UNK N   1      20.747  14.322   8.032  0.00  0.00     0.112 C 
HETATM   46  N   UNK N   1      20.314  15.338   7.364  0.00  0.00    -0.360 N 
ATOM     47  HN  UNK N   1      19.932  15.170   6.434  1.00  0.00     0.162 HD
BRANCH  46  48
HETATM   48  C   UNK N   1      20.336  16.708   7.852  0.00  0.00     0.181 C 
BRANCH  48  49
HETATM   49  C   UNK N   1      20.820  17.699   6.783  0.00  0.00     0.044 C 
BRANCH  49  50
HETATM   50  C   UNK N   1      22.216  17.413   6.231  0.00  0.00     0.086 C 
BRANCH  50  51
HETATM   51  C   UNK N   1      22.242  17.682   4.764  0.00  0.00     0.112 C 
HETATM   52  N   UNK N   1      21.310  18.404   4.227  0.00  0.00    -0.360 N 
ATOM     53  HN  UNK N   1      20.624  18.831   4.849  1.00  0.00     0.162 HD
BRANCH  52  54
HETATM   54  C   UNK N   1      21.175  18.647   2.802  0.00  0.00     0.181 C 
BRANCH  54  55
HETATM   55  C   UNK N   1      20.024  17.834   2.199  0.00  0.00     0.046 C 
BRANCH  55  56
HETATM   56  C   UNK N   1      20.442  16.391   1.941  0.00  0.00     0.112 C 
BRANCH  56  57
HETATM   57  C   UNK N   1      19.710  15.473   2.869  0.00  0.00     0.139 C 
HETATM   58  O   UNK N   1      19.795  15.621   4.078  0.00  0.00    -0.650 OA
BRANCH  57  59
HETATM   59  O   UNK N   1      18.940  14.489   2.368  0.00  0.00    -0.776 OA
HETATM   60  H   UNK N   1      18.309  14.013   2.871  0.00  0.00     0.167 HD
ENDBRANCH  57  59
ENDBRANCH  56  57
ENDBRANCH  55  56
ENDBRANCH  54  55
BRANCH  54  61
HETATM   61  C   UNK N   1      21.011  20.124   2.536  0.00  0.00     0.163 C 
HETATM   62  O   UNK N   1      20.640  20.863   3.434  0.00  0.00    -0.648 OA
BRANCH  61  63
HETATM   63  O   UNK N   1      21.259  20.635   1.315  0.00  0.00    -0.775 OA
HETATM   64  H   UNK N   1      20.946  20.562   0.435  0.00  0.00     0.167 HD
ENDBRANCH  61  63
ENDBRANCH  54  61
ENDBRANCH  52  54
BRANCH  51  65
HETATM   65  O   UNK N   1      23.198  17.102   4.011  0.00  0.00    -0.350 OA
HETATM   66  H   UNK N   1      24.027  17.199   3.582  0.00  0.00     0.219 HD
ENDBRANCH  51  65
ENDBRANCH  50  51
ENDBRANCH  49  50
ENDBRANCH  48  49
BRANCH  48  67
HETATM   67  C   UNK N   1      18.967  17.074   8.358  0.00  0.00     0.163 C 
HETATM   68  O   UNK N   1      18.000  16.415   8.011  0.00  0.00    -0.648 OA
BRANCH  67  69
HETATM   69  O   UNK N   1      18.798  18.106   9.208  0.00  0.00    -0.775 OA
HETATM   70  H   UNK N   1      18.292  18.863   8.983  0.00  0.00     0.167 HD
ENDBRANCH  67  69
ENDBRANCH  48  67
ENDBRANCH  46  48
BRANCH  45  71
HETATM   71  O   UNK N   1      20.641  13.095   7.494  0.00  0.00    -0.350 OA
HETATM   72  H   UNK N   1      21.230  12.528   7.035  0.00  0.00     0.219 HD
ENDBRANCH  45  71
ENDBRANCH  44  45
ENDBRANCH  43  44
ENDBRANCH  42  43
BRANCH  42  73
HETATM   73  C   UNK N   1      23.792  12.259  11.219  0.00  0.00     0.163 C 
HETATM   74  O   UNK N   1      23.056  11.698  12.016  0.00  0.00    -0.648 OA
BRANCH  73  75
HETATM   75  O   UNK N   1      25.115  12.313  11.465  0.00  0.00    -0.775 OA
HETATM   76  H   UNK N   1      25.518  13.123  11.709  0.00  0.00     0.167 HD
ENDBRANCH  73  75
ENDBRANCH  42  73
ENDBRANCH   2  42
TORSDOF 33
ENDMDL
MODEL 9
REMARK VINA RESULT:      -7.4      2.337      6.630
REMARK WARNING: 32 MAX_TORS EXCEEDED!!!
REMARK  33 active torsions:
REMARK  status: ('A' for Active; 'I' for Inactive)
REMARK    1  A    between atoms: C_6  and  C_3 
REMARK    2  A    between atoms: C_16  and  C_3 
REMARK    3  A    between atoms: C_18  and  C_6 
REMARK    4  A    between atoms: C_11  and  C_7 
REMARK    5  A    between atoms: C_20  and  C_7 
REMARK    6  A    between atoms: C_12  and  C_8 
REMARK    7  A    between atoms: C_19  and  C_8 
REMARK    8  A    between atoms: C_13  and  C_9 
REMARK    9  A    between atoms: C_22  and  C_9 
REMARK   10  A    between atoms: C_14  and  C_10 
REMARK   11  A    between atoms: C_21  and  C_10 
REMARK   12  A    between atoms: C_23  and  C_11 
REMARK   13  A    between atoms: C_24  and  C_12 
REMARK   14  A    between atoms: C_25  and  C_13 
REMARK   15  A    between atoms: C_26  and  C_14 
REMARK   16  A    between atoms: C_29  and  C_17 
REMARK   17  A    between atoms: C_31  and  C_19 
REMARK   18  A    between atoms: C_19  and  N_39 
REMARK   19  A    between atoms: C_32  and  C_20 
REMARK   20  A    between atoms: C_20  and  N_41 
REMARK   21  A    between atoms: C_33  and  C_21 
REMARK   22  A    between atoms: N_43  and  C_21 
REMARK   23  A    between atoms: C_34  and  C_22 
REMARK   24  A    between atoms: C_22  and  N_45 
REMARK   25  A    between atoms: C_23  and  O_49 
REMARK   26  A    between atoms: O_50  and  C_24 
REMARK   27  A    between atoms: C_25  and  O_51 
REMARK   28  A    between atoms: O_53  and  C_26 
REMARK       I    between atoms: N_45  and  C_29 
REMARK   29  A    between atoms: O_55  and  C_30 
REMARK   30  A    between atoms: O_57  and  C_31 
REMARK   31  A    between atoms: O_59  and  C_32 
REMARK   32  A    between atoms: O_61  and  C_33 
REMARK   33  A    between atoms: O_63  and  C_34 
ROOT
HETATM    1  C   UNK N   1      23.451  13.070   9.988  0.00  0.00     0.112 C 
HETATM    2  N   UNK N   1      22.219  13.175   9.621  0.00  0.00    -0.360 N 
ATOM      3  HN  UNK N   1      21.502  12.898  10.291  1.00  0.00     0.162 HD
ENDROOT
BRANCH   1   4
HETATM    4  C   UNK N   1      24.580  13.578   9.121  0.00  0.00     0.086 C 
BRANCH   4   5
HETATM    5  C   UNK N   1      24.777  12.790   7.830  0.00  0.00     0.044 C 
BRANCH   5   6
HETATM    6  C   UNK N   1      25.549  13.538   6.734  0.00  0.00     0.183 C 
BRANCH   6   7
HETATM    7  C   UNK N   1      25.295  15.023   6.888  0.00  0.00     0.163 C 
HETATM    8  O   UNK N   1      24.194  15.495   6.646  0.00  0.00    -0.648 OA
BRANCH   7   9
HETATM    9  O   UNK N   1      26.289  15.844   7.276  0.00  0.00    -0.775 OA
HETATM   10  H   UNK N   1      26.480  16.619   6.786  0.00  0.00     0.167 HD
ENDBRANCH   7   9
ENDBRANCH   6   7
BRANCH   6  11
HETATM   11  N   UNK N   1      25.176  13.136   5.385  0.00  0.00    -0.343 N 
HETATM   12  C   UNK N   1      25.887  12.997   4.226  0.00  0.00     0.252 C 
HETATM   13  O   UNK N   1      25.351  12.384   3.315  0.00  0.00    -0.268 OA
HETATM   14  H   UNK N   1      24.220  12.921   5.287  0.00  0.00     0.163 HD
BRANCH  12  15
HETATM   15  C   UNK N   1      27.264  13.523   3.970  0.00  0.00     0.032 A 
HETATM   16  C   UNK N   1      27.386  14.672   3.173  0.00  0.00     0.017 A 
HETATM   17  C   UNK N   1      28.631  15.244   2.926  0.00  0.00     0.008 A 
HETATM   18  C   UNK N   1      29.777  14.710   3.510  0.00  0.00    -0.058 A 
HETATM   19  C   UNK N   1      29.676  13.578   4.330  0.00  0.00     0.008 A 
HETATM   20  C   UNK N   1      28.424  12.987   4.558  0.00  0.00     0.017 A 
BRANCH  18  21
HETATM   21  C   UNK N   1      31.088  15.377   3.271  0.00  0.00     0.043 C 
BRANCH  21  22
HETATM   22  C   UNK N   1      31.059  16.810   3.785  0.00  0.00     0.045 C 
BRANCH  22  23
HETATM   23  C   UNK N   1      30.982  16.823   5.279  0.00  0.00    -0.024 A 
HETATM   24  C   UNK N   1      31.930  16.273   6.138  0.00  0.00     0.098 A 
HETATM   25  N   UNK N   1      31.547  16.470   7.426  0.00  0.00    -0.350 N 
HETATM   26  C   UNK N   1      30.377  17.128   7.365  0.00  0.00     0.136 A 
HETATM   27  H   UNK N   1      32.027  16.187   8.239  0.00  0.00     0.166 HD
HETATM   28  C   UNK N   1      29.996  17.358   6.082  0.00  0.00     0.067 A 
HETATM   29  N   UNK N   1      29.634  17.528   8.424  0.00  0.00    -0.176 N 
HETATM   30  C   UNK N   1      28.796  18.016   5.833  0.00  0.00     0.170 A 
HETATM   31  N   UNK N   1      28.047  18.424   6.900  0.00  0.00    -0.170 N 
HETATM   32  C   UNK N   1      28.460  18.186   8.186  0.00  0.00     0.679 A 
ATOM     33  HN  UNK N   1      27.166  18.912   6.738  1.00  0.00     0.186 HD
HETATM   34  N   UNK N   1      27.739  18.578   9.167  0.00  0.00    -0.234 N 
HETATM   35  H   UNK N   1      27.954  18.297  10.086  0.00  0.00     0.174 HD
ATOM     36  HN  UNK N   1      26.936  19.183   8.996  1.00  0.00     0.174 HD
HETATM   37  H   UNK N   1      29.932  17.349   9.345  0.00  0.00     0.186 HD
BRANCH  30  38
HETATM   38  O   UNK N   1      28.365  18.241   4.582  0.00  0.00    -0.345 OA
HETATM   39  H   UNK N   1      28.386  17.578   3.920  0.00  0.00     0.219 HD
ENDBRANCH  30  38
ENDBRANCH  22  23
ENDBRANCH  21  22
ENDBRANCH  18  21
ENDBRANCH  12  15
ENDBRANCH   6  11
ENDBRANCH   5   6
ENDBRANCH   4   5
ENDBRANCH   1   4
BRANCH   1  40
HETATM   40  O   UNK N   1      23.724  12.468  11.163  0.00  0.00    -0.350 OA
HETATM   41  H   UNK N   1      23.975  12.632  12.051  0.00  0.00     0.219 HD
ENDBRANCH   1  40
BRANCH   2  42
HETATM   42  C   UNK N   1      21.776  13.657   8.323  0.00  0.00     0.181 C 
BRANCH  42  43
HETATM   43  C   UNK N   1      21.204  12.459   7.549  0.00  0.00     0.044 C 
BRANCH  43  44
HETATM   44  C   UNK N   1      21.282  12.673   6.031  0.00  0.00     0.086 C 
BRANCH  44  45
HETATM   45  C   UNK N   1      19.957  12.574   5.329  0.00  0.00     0.112 C 
HETATM   46  N   UNK N   1      19.428  13.602   4.755  0.00  0.00    -0.360 N 
ATOM     47  HN  UNK N   1      18.533  13.476   4.283  1.00  0.00     0.162 HD
BRANCH  46  48
HETATM   48  C   UNK N   1      20.024  14.928   4.739  0.00  0.00     0.181 C 
BRANCH  48  49
HETATM   49  C   UNK N   1      20.885  15.164   3.490  0.00  0.00     0.044 C 
BRANCH  49  50
HETATM   50  C   UNK N   1      22.310  15.635   3.774  0.00  0.00     0.086 C 
BRANCH  50  51
HETATM   51  C   UNK N   1      22.288  17.052   4.239  0.00  0.00     0.112 C 
HETATM   52  N   UNK N   1      22.302  18.014   3.371  0.00  0.00    -0.360 N 
ATOM     53  HN  UNK N   1      22.252  17.762   2.384  1.00  0.00     0.162 HD
BRANCH  52  54
HETATM   54  C   UNK N   1      22.385  19.424   3.706  0.00  0.00     0.181 C 
BRANCH  54  55
HETATM   55  C   UNK N   1      23.692  20.047   3.200  0.00  0.00     0.046 C 
BRANCH  55  56
HETATM   56  C   UNK N   1      24.865  19.091   3.380  0.00  0.00     0.112 C 
BRANCH  56  57
HETATM   57  C   UNK N   1      25.395  19.190   4.777  0.00  0.00     0.139 C 
HETATM   58  O   UNK N   1      25.943  20.212   5.159  0.00  0.00    -0.650 OA
BRANCH  57  59
HETATM   59  O   UNK N   1      25.252  18.152   5.622  0.00  0.00    -0.776 OA
HETATM   60  H   UNK N   1      24.445  17.929   6.044  0.00  0.00     0.167 HD
ENDBRANCH  57  59
ENDBRANCH  56  57
ENDBRANCH  55  56
ENDBRANCH  54  55
BRANCH  54  61
HETATM   61  C   UNK N   1      21.178  20.159   3.176  0.00  0.00     0.163 C 
HETATM   62  O   UNK N   1      20.094  19.598   3.144  0.00  0.00    -0.648 OA
BRANCH  61  63
HETATM   63  O   UNK N   1      21.284  21.425   2.727  0.00  0.00    -0.775 OA
HETATM   64  H   UNK N   1      20.744  22.104   2.375  0.00  0.00     0.167 HD
ENDBRANCH  61  63
ENDBRANCH  54  61
ENDBRANCH  52  54
BRANCH  51  65
HETATM   65  O   UNK N   1      22.330  17.306   5.563  0.00  0.00    -0.350 OA
HETATM   66  H   UNK N   1      22.185  17.930   6.248  0.00  0.00     0.219 HD
ENDBRANCH  51  65
ENDBRANCH  50  51
ENDBRANCH  49  50
ENDBRANCH  48  49
BRANCH  48  67
HETATM   67  C   UNK N   1      18.936  15.960   4.858  0.00  0.00     0.163 C 
HETATM   68  O   UNK N   1      18.113  15.868   5.754  0.00  0.00    -0.648 OA
BRANCH  67  69
HETATM   69  O   UNK N   1      18.872  16.999   4.002  0.00  0.00    -0.775 OA
HETATM   70  H   UNK N   1      18.490  16.924   3.149  0.00  0.00     0.167 HD
ENDBRANCH  67  69
ENDBRANCH  48  67
ENDBRANCH  46  48
BRANCH  45  71
HETATM   71  O   UNK N   1      19.295  11.404   5.311  0.00  0.00    -0.350 OA
HETATM   72  H   UNK N   1      19.266  10.677   4.721  0.00  0.00     0.219 HD
ENDBRANCH  45  71
ENDBRANCH  44  45
ENDBRANCH  43  44
ENDBRANCH  42  43
BRANCH  42  73
HETATM   73  C   UNK N   1      20.756  14.752   8.505  0.00  0.00     0.163 C 
HETATM   74  O   UNK N   1      19.677  14.523   9.030  0.00  0.00    -0.648 OA
BRANCH  73  75
HETATM   75  O   UNK N   1      21.032  15.999   8.078  0.00  0.00    -0.775 OA
HETATM   76  H   UNK N   1      20.744  16.284   7.234  0.00  0.00     0.167 HD
ENDBRANCH  73  75
ENDBRANCH  42  73
ENDBRANCH   2  42
TORSDOF 33
ENDMDL
