MODEL 1
REMARK VINA RESULT:      -3.7      0.000      0.000
REMARK  2 active torsions:
REMARK  status: ('A' for Active; 'I' for Inactive)
REMARK    1  A    between atoms: C_3  and  C_4 
REMARK    2  A    between atoms: C_4  and  O_5 
ROOT
HETATM    1  C   UNK N   1      23.738  12.100  12.280  0.00  0.00     0.164 C 
HETATM    2  O   UNK N   1      23.601  12.022  13.491  0.00  0.00    -0.647 OA
ENDROOT
BRANCH   1   3
HETATM    3  C   UNK N   1      22.555  12.076  11.407  0.00  0.00     0.076 C 
HETATM    4  C   UNK N   1      22.425  12.968  10.426  0.00  0.00    -0.024 C 
HETATM    5  C   UNK N   1      21.230  12.950   9.539  0.00  0.00     0.036 C 
ENDBRANCH   1   3
BRANCH   1   6
HETATM    6  O   UNK N   1      24.972  12.206  11.753  0.00  0.00    -0.773 OA
HETATM    7  H   UNK N   1      25.644  11.605  12.008  0.00  0.00     0.167 HD
ENDBRANCH   1   6
TORSDOF 2
ENDMDL
MODEL 2
REMARK VINA RESULT:      -3.6     11.682     12.333
REMARK  2 active torsions:
REMARK  status: ('A' for Active; 'I' for Inactive)
REMARK    1  A    between atoms: C_3  and  C_4 
REMARK    2  A    between atoms: C_4  and  O_5 
ROOT
HETATM    1  C   UNK N   1      34.309  18.286   7.859  0.00  0.00     0.164 C 
HETATM    2  O   UNK N   1      34.459  18.026   6.676  0.00  0.00    -0.647 OA
ENDROOT
BRANCH   1   3
HETATM    3  C   UNK N   1      33.174  17.712   8.596  0.00  0.00     0.076 C 
HETATM    4  C   UNK N   1      31.996  17.546   7.996  0.00  0.00    -0.024 C 
HETATM    5  C   UNK N   1      30.843  16.966   8.735  0.00  0.00     0.036 C 
ENDBRANCH   1   3
BRANCH   1   6
HETATM    6  O   UNK N   1      35.186  19.097   8.482  0.00  0.00    -0.773 OA
HETATM    7  H   UNK N   1      36.083  18.840   8.565  0.00  0.00     0.167 HD
ENDBRANCH   1   6
TORSDOF 2
ENDMDL
MODEL 3
REMARK VINA RESULT:      -3.5     12.528     13.042
REMARK  2 active torsions:
REMARK  status: ('A' for Active; 'I' for Inactive)
REMARK    1  A    between atoms: C_3  and  C_4 
REMARK    2  A    between atoms: C_4  and  O_5 
ROOT
HETATM    1  C   UNK N   1      34.567  18.248   8.502  0.00  0.00     0.164 C 
HETATM    2  O   UNK N   1      35.319  19.206   8.428  0.00  0.00    -0.647 OA
ENDROOT
BRANCH   1   3
HETATM    3  C   UNK N   1      33.540  18.043   7.469  0.00  0.00     0.076 C 
HETATM    4  C   UNK N   1      33.855  17.457   6.315  0.00  0.00    -0.024 C 
HETATM    5  C   UNK N   1      32.821  17.247   5.265  0.00  0.00     0.036 C 
ENDBRANCH   1   3
BRANCH   1   6
HETATM    6  O   UNK N   1      34.682  17.385   9.529  0.00  0.00    -0.773 OA
HETATM    7  H   UNK N   1      35.471  16.890   9.639  0.00  0.00     0.167 HD
ENDBRANCH   1   6
TORSDOF 2
ENDMDL
MODEL 4
REMARK VINA RESULT:      -3.4     11.506     12.687
REMARK  2 active torsions:
REMARK  status: ('A' for Active; 'I' for Inactive)
REMARK    1  A    between atoms: C_3  and  C_4 
REMARK    2  A    between atoms: C_4  and  O_5 
ROOT
HETATM    1  C   UNK N   1      20.929  20.509   1.223  0.00  0.00     0.164 C 
HETATM    2  O   UNK N   1      21.392  21.323   2.007  0.00  0.00    -0.647 OA
ENDROOT
BRANCH   1   3
HETATM    3  C   UNK N   1      20.605  19.152   1.684  0.00  0.00     0.076 C 
HETATM    4  C   UNK N   1      20.047  18.962   2.879  0.00  0.00    -0.024 C 
HETATM    5  C   UNK N   1      19.716  17.591   3.352  0.00  0.00     0.036 C 
ENDBRANCH   1   3
BRANCH   1   6
HETATM    6  O   UNK N   1      20.719  20.862  -0.060  0.00  0.00    -0.773 OA
HETATM    7  H   UNK N   1      19.927  20.606  -0.492  0.00  0.00     0.167 HD
ENDBRANCH   1   6
TORSDOF 2
ENDMDL
MODEL 5
REMARK VINA RESULT:      -3.3      8.719      9.301
REMARK  2 active torsions:
REMARK  status: ('A' for Active; 'I' for Inactive)
REMARK    1  A    between atoms: C_3  and  C_4 
REMARK    2  A    between atoms: C_4  and  O_5 
ROOT
HETATM    1  C   UNK N   1      28.355  18.115   9.231  0.00  0.00     0.164 C 
HETATM    2  O   UNK N   1      27.928  17.078   9.715  0.00  0.00    -0.647 OA
ENDROOT
BRANCH   1   3
HETATM    3  C   UNK N   1      29.804  18.361   9.195  0.00  0.00     0.076 C 
HETATM    4  C   UNK N   1      30.598  17.598   8.444  0.00  0.00    -0.024 C 
HETATM    5  C   UNK N   1      32.065  17.842   8.403  0.00  0.00     0.036 C 
ENDBRANCH   1   3
BRANCH   1   6
HETATM    6  O   UNK N   1      27.497  19.025   8.734  0.00  0.00    -0.773 OA
HETATM    7  H   UNK N   1      27.211  18.962   7.844  0.00  0.00     0.167 HD
ENDBRANCH   1   6
TORSDOF 2
ENDMDL
MODEL 6
REMARK VINA RESULT:      -3.2      3.644      4.442
REMARK  2 active torsions:
REMARK  status: ('A' for Active; 'I' for Inactive)
REMARK    1  A    between atoms: C_3  and  C_4 
REMARK    2  A    between atoms: C_4  and  O_5 
ROOT
HETATM    1  C   UNK N   1      20.599  14.588   9.453  0.00  0.00     0.164 C 
HETATM    2  O   UNK N   1      20.776  15.640   8.860  0.00  0.00    -0.647 OA
ENDROOT
BRANCH   1   3
HETATM    3  C   UNK N   1      21.752  13.746   9.808  0.00  0.00     0.076 C 
HETATM    4  C   UNK N   1      21.581  12.645  10.538  0.00  0.00    -0.024 C 
HETATM    5  C   UNK N   1      22.743  11.789  10.901  0.00  0.00     0.036 C 
ENDBRANCH   1   3
BRANCH   1   6
HETATM    6  O   UNK N   1      19.350  14.205   9.778  0.00  0.00    -0.773 OA
HETATM    7  H   UNK N   1      19.073  13.325   9.615  0.00  0.00     0.167 HD
ENDBRANCH   1   6
TORSDOF 2
ENDMDL
MODEL 7
REMARK VINA RESULT:      -3.2      2.776      3.430
REMARK  2 active torsions:
REMARK  status: ('A' for Active; 'I' for Inactive)
REMARK    1  A    between atoms: C_3  and  C_4 
REMARK    2  A    between atoms: C_4  and  O_5 
ROOT
HETATM    1  C   UNK N   1      20.777  12.597  10.879  0.00  0.00     0.164 C 
HETATM    2  O   UNK N   1      19.844  13.125  10.294  0.00  0.00    -0.647 OA
ENDROOT
BRANCH   1   3
HETATM    3  C   UNK N   1      22.156  12.863  10.444  0.00  0.00     0.076 C 
HETATM    4  C   UNK N   1      23.013  11.857  10.272  0.00  0.00    -0.024 C 
HETATM    5  C   UNK N   1      24.410  12.118   9.831  0.00  0.00     0.036 C 
ENDBRANCH   1   3
BRANCH   1   6
HETATM    6  O   UNK N   1      20.537  11.777  11.919  0.00  0.00    -0.773 OA
HETATM    7  H   UNK N   1      19.656  11.627  12.203  0.00  0.00     0.167 HD
ENDBRANCH   1   6
TORSDOF 2
ENDMDL
MODEL 8
REMARK VINA RESULT:      -3.2     12.784     13.428
REMARK  2 active torsions:
REMARK  status: ('A' for Active; 'I' for Inactive)
REMARK    1  A    between atoms: C_3  and  C_4 
REMARK    2  A    between atoms: C_4  and  O_5 
ROOT
HETATM    1  C   UNK N   1      35.843  13.795  14.128  0.00  0.00     0.164 C 
HETATM    2  O   UNK N   1      34.848  13.472  13.499  0.00  0.00    -0.647 OA
ENDROOT
BRANCH   1   3
HETATM    3  C   UNK N   1      36.026  13.313  15.504  0.00  0.00     0.076 C 
HETATM    4  C   UNK N   1      34.975  13.149  16.306  0.00  0.00    -0.024 C 
HETATM    5  C   UNK N   1      35.153  12.661  17.700  0.00  0.00     0.036 C 
ENDBRANCH   1   3
BRANCH   1   6
HETATM    6  O   UNK N   1      36.766  14.592  13.556  0.00  0.00    -0.773 OA
HETATM    7  H   UNK N   1      37.676  14.455  13.732  0.00  0.00     0.167 HD
ENDBRANCH   1   6
TORSDOF 2
ENDMDL
MODEL 9
REMARK VINA RESULT:      -3.1      1.950      2.651
REMARK  2 active torsions:
REMARK  status: ('A' for Active; 'I' for Inactive)
REMARK    1  A    between atoms: C_3  and  C_4 
REMARK    2  A    between atoms: C_4  and  O_5 
ROOT
HETATM    1  C   UNK N   1      21.999  12.145  10.899  0.00  0.00     0.164 C 
HETATM    2  O   UNK N   1      23.005  11.460  10.799  0.00  0.00    -0.647 OA
ENDROOT
BRANCH   1   3
HETATM    3  C   UNK N   1      21.840  13.338  10.055  0.00  0.00     0.076 C 
HETATM    4  C   UNK N   1      20.637  13.883   9.879  0.00  0.00    -0.024 C 
HETATM    5  C   UNK N   1      20.470  15.091   9.026  0.00  0.00     0.036 C 
ENDBRANCH   1   3
BRANCH   1   6
HETATM    6  O   UNK N   1      21.041  11.801  11.781  0.00  0.00    -0.773 OA
HETATM    7  H   UNK N   1      21.252  11.712  12.690  0.00  0.00     0.167 HD
ENDBRANCH   1   6
TORSDOF 2
ENDMDL
