MODEL 1
REMARK VINA RESULT:      -6.7      0.000      0.000
REMARK  8 active torsions:
REMARK  status: ('A' for Active; 'I' for Inactive)
REMARK    1  A    between atoms: C_8  and  C_5 
REMARK    2  A    between atoms: O_14  and  C_5 
REMARK    3  A    between atoms: N_13  and  C_6 
REMARK    4  A    between atoms: O_20  and  C_7 
REMARK    5  A    between atoms: C_9  and  O_15 
REMARK    6  A    between atoms: C_10  and  O_16 
REMARK    7  A    between atoms: C_11  and  O_17 
REMARK    8  A    between atoms: C_12  and  O_20 
ROOT
HETATM    1  C   UNK N   1      21.448  19.596   3.093  0.00  0.00     0.179 C 
HETATM    2  C   UNK N   1      20.748  19.177   1.780  0.00  0.00     0.180 C 
HETATM    3  C   UNK N   1      19.676  18.094   2.030  0.00  0.00     0.183 C 
HETATM    4  C   UNK N   1      20.109  17.031   3.069  0.00  0.00     0.205 C 
HETATM    5  C   UNK N   1      20.908  17.653   4.250  0.00  0.00     0.298 C 
HETATM    6  O   UNK N   1      21.963  18.443   3.730  0.00  0.00    -0.348 OA
ENDROOT
BRANCH   5   7
HETATM    7  O   UNK N   1      21.490  16.695   5.078  0.00  0.00    -0.318 OA
BRANCH   7   8
HETATM    8  C   UNK N   1      21.179  16.386   6.365  0.00  0.00     0.074 A 
HETATM    9  C   UNK N   1      21.513  15.150   6.934  0.00  0.00     0.037 A 
HETATM   10  C   UNK N   1      21.206  14.871   8.265  0.00  0.00     0.005 A 
HETATM   11  C   UNK N   1      20.536  15.818   9.038  0.00  0.00     0.036 A 
HETATM   12  C   UNK N   1      20.172  17.056   8.485  0.00  0.00     0.105 A 
HETATM   13  C   UNK N   1      20.509  17.336   7.149  0.00  0.00     0.072 A 
BRANCH  12  14
HETATM   14  N   UNK N   1      19.453  18.002   9.272  0.00  0.00    -0.116 N 
HETATM   15  O   UNK N   1      18.302  17.804   9.545  0.00  0.00    -0.532 OA
HETATM   16  O   UNK N   1      19.995  18.973   9.695  0.00  0.00    -0.532 OA
ENDBRANCH  12  14
ENDBRANCH   7   8
ENDBRANCH   5   7
BRANCH   4  17
HETATM   17  O   UNK N   1      20.884  16.048   2.455  0.00  0.00    -0.388 OA
HETATM   18  H   UNK N   1      21.306  15.234   2.137  0.00  0.00     0.210 HD
ENDBRANCH   4  17
BRANCH   3  19
HETATM   19  O   UNK N   1      18.488  18.694   2.454  0.00  0.00    -0.390 OA
HETATM   20  H   UNK N   1      17.567  18.704   2.759  0.00  0.00     0.210 HD
ENDBRANCH   3  19
BRANCH   1  21
HETATM   21  C   UNK N   1      22.631  20.524   2.808  0.00  0.00     0.198 C 
BRANCH  21  22
HETATM   22  O   UNK N   1      22.243  21.864   2.818  0.00  0.00    -0.398 OA
HETATM   23  H   UNK N   1      22.627  22.576   2.283  0.00  0.00     0.209 HD
ENDBRANCH  21  22
ENDBRANCH   1  21
BRANCH   2  24
HETATM   24  O   UNK N   1      20.156  20.288   1.164  0.00  0.00    -0.390 OA
HETATM   25  H   UNK N   1      19.324  20.711   1.427  0.00  0.00     0.210 HD
ENDBRANCH   2  24
TORSDOF 8
ENDMDL
MODEL 2
REMARK VINA RESULT:      -6.5     16.499     18.175
REMARK  8 active torsions:
REMARK  status: ('A' for Active; 'I' for Inactive)
REMARK    1  A    between atoms: C_8  and  C_5 
REMARK    2  A    between atoms: O_14  and  C_5 
REMARK    3  A    between atoms: N_13  and  C_6 
REMARK    4  A    between atoms: O_20  and  C_7 
REMARK    5  A    between atoms: C_9  and  O_15 
REMARK    6  A    between atoms: C_10  and  O_16 
REMARK    7  A    between atoms: C_11  and  O_17 
REMARK    8  A    between atoms: C_12  and  O_20 
ROOT
HETATM    1  C   UNK N   1      37.278  12.918  11.358  0.00  0.00     0.179 C 
HETATM    2  C   UNK N   1      36.869  13.863  10.207  0.00  0.00     0.180 C 
HETATM    3  C   UNK N   1      36.036  15.058  10.722  0.00  0.00     0.183 C 
HETATM    4  C   UNK N   1      35.020  14.667  11.823  0.00  0.00     0.205 C 
HETATM    5  C   UNK N   1      35.596  13.608  12.807  0.00  0.00     0.298 C 
HETATM    6  O   UNK N   1      36.118  12.520  12.063  0.00  0.00    -0.348 OA
ENDROOT
BRANCH   5   7
HETATM    7  O   UNK N   1      34.633  13.085  13.668  0.00  0.00    -0.318 OA
BRANCH   7   8
HETATM    8  C   UNK N   1      34.806  12.544  14.903  0.00  0.00     0.074 A 
HETATM    9  C   UNK N   1      34.817  11.159  15.114  0.00  0.00     0.037 A 
HETATM   10  C   UNK N   1      35.024  10.633  16.388  0.00  0.00     0.005 A 
HETATM   11  C   UNK N   1      35.197  11.488  17.475  0.00  0.00     0.036 A 
HETATM   12  C   UNK N   1      35.170  12.880  17.294  0.00  0.00     0.105 A 
HETATM   13  C   UNK N   1      34.985  13.399  16.000  0.00  0.00     0.072 A 
BRANCH  12  14
HETATM   14  N   UNK N   1      35.309  13.745  18.417  0.00  0.00    -0.116 N 
HETATM   15  O   UNK N   1      35.026  13.354  19.514  0.00  0.00    -0.532 OA
HETATM   16  O   UNK N   1      35.741  14.846  18.282  0.00  0.00    -0.532 OA
ENDBRANCH  12  14
ENDBRANCH   7   8
ENDBRANCH   5   7
BRANCH   4  17
HETATM   17  O   UNK N   1      33.853  14.170  11.244  0.00  0.00    -0.388 OA
HETATM   18  H   UNK N   1      32.947  13.933  10.990  0.00  0.00     0.210 HD
ENDBRANCH   4  17
BRANCH   3  19
HETATM   19  O   UNK N   1      36.888  16.050  11.215  0.00  0.00    -0.390 OA
HETATM   20  H   UNK N   1      37.104  16.868  11.689  0.00  0.00     0.210 HD
ENDBRANCH   3  19
BRANCH   1  21
HETATM   21  C   UNK N   1      37.934  11.647  10.813  0.00  0.00     0.198 C 
BRANCH  21  22
HETATM   22  O   UNK N   1      37.577  11.420   9.482  0.00  0.00    -0.398 OA
HETATM   23  H   UNK N   1      37.899  10.700   8.918  0.00  0.00     0.209 HD
ENDBRANCH  21  22
ENDBRANCH   1  21
BRANCH   2  24
HETATM   24  O   UNK N   1      38.003  14.339   9.536  0.00  0.00    -0.390 OA
HETATM   25  H   UNK N   1      38.346  14.010   8.690  0.00  0.00     0.210 HD
ENDBRANCH   2  24
TORSDOF 8
ENDMDL
MODEL 3
REMARK VINA RESULT:      -6.4     14.934     17.084
REMARK  8 active torsions:
REMARK  status: ('A' for Active; 'I' for Inactive)
REMARK    1  A    between atoms: C_8  and  C_5 
REMARK    2  A    between atoms: O_14  and  C_5 
REMARK    3  A    between atoms: N_13  and  C_6 
REMARK    4  A    between atoms: O_20  and  C_7 
REMARK    5  A    between atoms: C_9  and  O_15 
REMARK    6  A    between atoms: C_10  and  O_16 
REMARK    7  A    between atoms: C_11  and  O_17 
REMARK    8  A    between atoms: C_12  and  O_20 
ROOT
HETATM    1  C   UNK N   1      36.490  13.844  13.625  0.00  0.00     0.179 C 
HETATM    2  C   UNK N   1      36.814  12.363  13.324  0.00  0.00     0.180 C 
HETATM    3  C   UNK N   1      36.663  12.044  11.820  0.00  0.00     0.183 C 
HETATM    4  C   UNK N   1      35.440  12.734  11.168  0.00  0.00     0.205 C 
HETATM    5  C   UNK N   1      35.220  14.177  11.706  0.00  0.00     0.298 C 
HETATM    6  O   UNK N   1      35.202  14.145  13.123  0.00  0.00    -0.348 OA
ENDROOT
BRANCH   5   7
HETATM    7  O   UNK N   1      34.009  14.732  11.298  0.00  0.00    -0.318 OA
BRANCH   7   8
HETATM    8  C   UNK N   1      33.632  15.118  10.050  0.00  0.00     0.074 A 
HETATM    9  C   UNK N   1      32.718  14.379   9.288  0.00  0.00     0.037 A 
HETATM   10  C   UNK N   1      32.328  14.814   8.022  0.00  0.00     0.005 A 
HETATM   11  C   UNK N   1      32.869  15.983   7.490  0.00  0.00     0.036 A 
HETATM   12  C   UNK N   1      33.802  16.731   8.226  0.00  0.00     0.105 A 
HETATM   13  C   UNK N   1      34.169  16.296   9.511  0.00  0.00     0.072 A 
BRANCH  12  14
HETATM   14  N   UNK N   1      34.378  17.904   7.657  0.00  0.00    -0.116 N 
HETATM   15  O   UNK N   1      34.417  18.037   6.467  0.00  0.00    -0.532 OA
HETATM   16  O   UNK N   1      34.791  18.774   8.357  0.00  0.00    -0.532 OA
ENDBRANCH  12  14
ENDBRANCH   7   8
ENDBRANCH   5   7
BRANCH   4  17
HETATM   17  O   UNK N   1      34.288  11.980  11.391  0.00  0.00    -0.388 OA
HETATM   18  H   UNK N   1      33.423  11.622  11.648  0.00  0.00     0.210 HD
ENDBRANCH   4  17
BRANCH   3  19
HETATM   19  O   UNK N   1      37.821  12.423  11.138  0.00  0.00    -0.390 OA
HETATM   20  H   UNK N   1      38.498  12.352  10.446  0.00  0.00     0.210 HD
ENDBRANCH   3  19
BRANCH   1  21
HETATM   21  C   UNK N   1      36.458  14.098  15.134  0.00  0.00     0.198 C 
BRANCH  21  22
HETATM   22  O   UNK N   1      37.687  14.569  15.598  0.00  0.00    -0.398 OA
HETATM   23  H   UNK N   1      38.534  14.099  15.555  0.00  0.00     0.209 HD
ENDBRANCH  21  22
ENDBRANCH   1  21
BRANCH   2  24
HETATM   24  O   UNK N   1      38.116  12.052  13.739  0.00  0.00    -0.390 OA
HETATM   25  H   UNK N   1      38.365  11.346  14.355  0.00  0.00     0.210 HD
ENDBRANCH   2  24
TORSDOF 8
ENDMDL
MODEL 4
REMARK VINA RESULT:      -6.4     16.456     18.194
REMARK  8 active torsions:
REMARK  status: ('A' for Active; 'I' for Inactive)
REMARK    1  A    between atoms: C_8  and  C_5 
REMARK    2  A    between atoms: O_14  and  C_5 
REMARK    3  A    between atoms: N_13  and  C_6 
REMARK    4  A    between atoms: O_20  and  C_7 
REMARK    5  A    between atoms: C_9  and  O_15 
REMARK    6  A    between atoms: C_10  and  O_16 
REMARK    7  A    between atoms: C_11  and  O_17 
REMARK    8  A    between atoms: C_12  and  O_20 
ROOT
HETATM    1  C   UNK N   1      34.811  13.922  11.086  0.00  0.00     0.179 C 
HETATM    2  C   UNK N   1      36.323  14.094  10.817  0.00  0.00     0.180 C 
HETATM    3  C   UNK N   1      37.167  13.153  11.706  0.00  0.00     0.183 C 
HETATM    4  C   UNK N   1      36.630  13.032  13.152  0.00  0.00     0.205 C 
HETATM    5  C   UNK N   1      35.075  13.000  13.203  0.00  0.00     0.298 C 
HETATM    6  O   UNK N   1      34.565  14.098  12.468  0.00  0.00    -0.348 OA
ENDROOT
BRANCH   5   7
HETATM    7  O   UNK N   1      34.570  13.110  14.497  0.00  0.00    -0.318 OA
BRANCH   7   8
HETATM    8  C   UNK N   1      34.710  12.246  15.538  0.00  0.00     0.074 A 
HETATM    9  C   UNK N   1      34.577  10.860  15.377  0.00  0.00     0.037 A 
HETATM   10  C   UNK N   1      34.753   9.996  16.456  0.00  0.00     0.005 A 
HETATM   11  C   UNK N   1      35.041  10.510  17.720  0.00  0.00     0.036 A 
HETATM   12  C   UNK N   1      35.160  11.895  17.911  0.00  0.00     0.105 A 
HETATM   13  C   UNK N   1      35.004  12.756  16.810  0.00  0.00     0.072 A 
BRANCH  12  14
HETATM   14  N   UNK N   1      35.415  12.413  19.214  0.00  0.00    -0.116 N 
HETATM   15  O   UNK N   1      35.769  11.678  20.093  0.00  0.00    -0.532 OA
HETATM   16  O   UNK N   1      35.316  13.579  19.431  0.00  0.00    -0.532 OA
ENDBRANCH  12  14
ENDBRANCH   7   8
ENDBRANCH   5   7
BRANCH   4  17
HETATM   17  O   UNK N   1      37.094  14.095  13.927  0.00  0.00    -0.388 OA
HETATM   18  H   UNK N   1      37.270  14.774  14.597  0.00  0.00     0.210 HD
ENDBRANCH   4  17
BRANCH   3  19
HETATM   19  O   UNK N   1      37.223  11.882  11.129  0.00  0.00    -0.390 OA
HETATM   20  H   UNK N   1      37.109  11.233  10.416  0.00  0.00     0.210 HD
ENDBRANCH   3  19
BRANCH   1  21
HETATM   21  C   UNK N   1      34.002  14.988  10.342  0.00  0.00     0.198 C 
BRANCH  21  22
HETATM   22  O   UNK N   1      32.682  15.033  10.794  0.00  0.00    -0.398 OA
HETATM   23  H   UNK N   1      32.272  15.757  11.293  0.00  0.00     0.209 HD
ENDBRANCH  21  22
ENDBRANCH   1  21
BRANCH   2  24
HETATM   24  O   UNK N   1      36.613  13.847   9.468  0.00  0.00    -0.390 OA
HETATM   25  H   UNK N   1      36.964  13.020   9.102  0.00  0.00     0.210 HD
ENDBRANCH   2  24
TORSDOF 8
ENDMDL
MODEL 5
REMARK VINA RESULT:      -6.4      3.815      5.830
REMARK  8 active torsions:
REMARK  status: ('A' for Active; 'I' for Inactive)
REMARK    1  A    between atoms: C_8  and  C_5 
REMARK    2  A    between atoms: O_14  and  C_5 
REMARK    3  A    between atoms: N_13  and  C_6 
REMARK    4  A    between atoms: O_20  and  C_7 
REMARK    5  A    between atoms: C_9  and  O_15 
REMARK    6  A    between atoms: C_10  and  O_16 
REMARK    7  A    between atoms: C_11  and  O_17 
REMARK    8  A    between atoms: C_12  and  O_20 
ROOT
HETATM    1  C   UNK N   1      20.775  18.142   3.368  0.00  0.00     0.179 C 
HETATM    2  C   UNK N   1      19.720  19.027   2.666  0.00  0.00     0.180 C 
HETATM    3  C   UNK N   1      20.373  19.985   1.646  0.00  0.00     0.183 C 
HETATM    4  C   UNK N   1      21.708  20.590   2.142  0.00  0.00     0.205 C 
HETATM    5  C   UNK N   1      22.565  19.560   2.933  0.00  0.00     0.298 C 
HETATM    6  O   UNK N   1      21.764  18.973   3.944  0.00  0.00    -0.348 OA
ENDROOT
BRANCH   5   7
HETATM    7  O   UNK N   1      23.661  20.138   3.570  0.00  0.00    -0.318 OA
BRANCH   7   8
HETATM    8  C   UNK N   1      24.818  19.545   3.969  0.00  0.00     0.074 A 
HETATM    9  C   UNK N   1      25.243  18.317   3.446  0.00  0.00     0.037 A 
HETATM   10  C   UNK N   1      26.448  17.746   3.853  0.00  0.00     0.005 A 
HETATM   11  C   UNK N   1      27.233  18.386   4.810  0.00  0.00     0.036 A 
HETATM   12  C   UNK N   1      26.820  19.609   5.364  0.00  0.00     0.105 A 
HETATM   13  C   UNK N   1      25.615  20.187   4.928  0.00  0.00     0.072 A 
BRANCH  12  14
HETATM   14  N   UNK N   1      27.610  20.236   6.371  0.00  0.00    -0.116 N 
HETATM   15  O   UNK N   1      27.788  21.421   6.342  0.00  0.00    -0.532 OA
HETATM   16  O   UNK N   1      28.067  19.597   7.265  0.00  0.00    -0.532 OA
ENDBRANCH  12  14
ENDBRANCH   7   8
ENDBRANCH   5   7
BRANCH   4  17
HETATM   17  O   UNK N   1      21.462  21.701   2.949  0.00  0.00    -0.388 OA
HETATM   18  H   UNK N   1      21.461  22.411   3.610  0.00  0.00     0.210 HD
ENDBRANCH   4  17
BRANCH   3  19
HETATM   19  O   UNK N   1      20.592  19.314   0.440  0.00  0.00    -0.390 OA
HETATM   20  H   UNK N   1      20.391  18.672  -0.259  0.00  0.00     0.210 HD
ENDBRANCH   3  19
BRANCH   1  21
HETATM   21  C   UNK N   1      20.141  17.338   4.505  0.00  0.00     0.198 C 
BRANCH  21  22
HETATM   22  O   UNK N   1      19.161  16.465   4.029  0.00  0.00    -0.398 OA
HETATM   23  H   UNK N   1      18.202  16.610   4.056  0.00  0.00     0.209 HD
ENDBRANCH  21  22
ENDBRANCH   1  21
BRANCH   2  24
HETATM   24  O   UNK N   1      18.766  18.231   2.016  0.00  0.00    -0.390 OA
HETATM   25  H   UNK N   1      18.891  17.764   1.175  0.00  0.00     0.210 HD
ENDBRANCH   2  24
TORSDOF 8
ENDMDL
MODEL 6
REMARK VINA RESULT:      -6.3      2.066      2.524
REMARK  8 active torsions:
REMARK  status: ('A' for Active; 'I' for Inactive)
REMARK    1  A    between atoms: C_8  and  C_5 
REMARK    2  A    between atoms: O_14  and  C_5 
REMARK    3  A    between atoms: N_13  and  C_6 
REMARK    4  A    between atoms: O_20  and  C_7 
REMARK    5  A    between atoms: C_9  and  O_15 
REMARK    6  A    between atoms: C_10  and  O_16 
REMARK    7  A    between atoms: C_11  and  O_17 
REMARK    8  A    between atoms: C_12  and  O_20 
ROOT
HETATM    1  C   UNK N   1      21.452  19.563   3.154  0.00  0.00     0.179 C 
HETATM    2  C   UNK N   1      20.734  19.148   1.850  0.00  0.00     0.180 C 
HETATM    3  C   UNK N   1      19.667  18.063   2.111  0.00  0.00     0.183 C 
HETATM    4  C   UNK N   1      20.116  16.997   3.139  0.00  0.00     0.205 C 
HETATM    5  C   UNK N   1      20.932  17.615   4.311  0.00  0.00     0.298 C 
HETATM    6  O   UNK N   1      21.978  18.408   3.779  0.00  0.00    -0.348 OA
ENDROOT
BRANCH   5   7
HETATM    7  O   UNK N   1      21.527  16.655   5.127  0.00  0.00    -0.318 OA
BRANCH   7   8
HETATM    8  C   UNK N   1      21.158  16.256   6.373  0.00  0.00     0.074 A 
HETATM    9  C   UNK N   1      20.588  17.140   7.299  0.00  0.00     0.037 A 
HETATM   10  C   UNK N   1      20.194  16.697   8.560  0.00  0.00     0.005 A 
HETATM   11  C   UNK N   1      20.391  15.366   8.923  0.00  0.00     0.036 A 
HETATM   12  C   UNK N   1      20.979  14.464   8.022  0.00  0.00     0.105 A 
HETATM   13  C   UNK N   1      21.349  14.917   6.743  0.00  0.00     0.072 A 
BRANCH  12  14
HETATM   14  N   UNK N   1      21.211  13.115   8.416  0.00  0.00    -0.116 N 
HETATM   15  O   UNK N   1      20.979  12.219   7.654  0.00  0.00    -0.532 OA
HETATM   16  O   UNK N   1      21.670  12.869   9.486  0.00  0.00    -0.532 OA
ENDBRANCH  12  14
ENDBRANCH   7   8
ENDBRANCH   5   7
BRANCH   4  17
HETATM   17  O   UNK N   1      20.884  16.017   2.511  0.00  0.00    -0.388 OA
HETATM   18  H   UNK N   1      21.546  15.491   2.034  0.00  0.00     0.210 HD
ENDBRANCH   4  17
BRANCH   3  19
HETATM   19  O   UNK N   1      18.485  18.660   2.555  0.00  0.00    -0.390 OA
HETATM   20  H   UNK N   1      17.799  19.347   2.576  0.00  0.00     0.210 HD
ENDBRANCH   3  19
BRANCH   1  21
HETATM   21  C   UNK N   1      22.630  20.493   2.855  0.00  0.00     0.198 C 
BRANCH  21  22
HETATM   22  O   UNK N   1      22.236  21.832   2.853  0.00  0.00    -0.398 OA
HETATM   23  H   UNK N   1      22.819  22.601   2.755  0.00  0.00     0.209 HD
ENDBRANCH  21  22
ENDBRANCH   1  21
BRANCH   2  24
HETATM   24  O   UNK N   1      20.132  20.261   1.246  0.00  0.00    -0.390 OA
HETATM   25  H   UNK N   1      20.595  20.994   0.812  0.00  0.00     0.210 HD
ENDBRANCH   2  24
TORSDOF 8
ENDMDL
MODEL 7
REMARK VINA RESULT:      -6.2     13.628     14.806
REMARK  8 active torsions:
REMARK  status: ('A' for Active; 'I' for Inactive)
REMARK    1  A    between atoms: C_8  and  C_5 
REMARK    2  A    between atoms: O_14  and  C_5 
REMARK    3  A    between atoms: N_13  and  C_6 
REMARK    4  A    between atoms: O_20  and  C_7 
REMARK    5  A    between atoms: C_9  and  O_15 
REMARK    6  A    between atoms: C_10  and  O_16 
REMARK    7  A    between atoms: C_11  and  O_17 
REMARK    8  A    between atoms: C_12  and  O_20 
ROOT
HETATM    1  C   UNK N   1      27.486  28.007  -5.181  0.00  0.00     0.179 C 
HETATM    2  C   UNK N   1      26.035  28.161  -4.671  0.00  0.00     0.180 C 
HETATM    3  C   UNK N   1      25.587  26.930  -3.853  0.00  0.00     0.183 C 
HETATM    4  C   UNK N   1      26.076  25.588  -4.449  0.00  0.00     0.205 C 
HETATM    5  C   UNK N   1      27.521  25.687  -5.019  0.00  0.00     0.298 C 
HETATM    6  O   UNK N   1      27.594  26.794  -5.901  0.00  0.00    -0.348 OA
ENDROOT
BRANCH   5   7
HETATM    7  O   UNK N   1      27.897  24.562  -5.749  0.00  0.00    -0.318 OA
BRANCH   7   8
HETATM    8  C   UNK N   1      28.708  23.538  -5.370  0.00  0.00     0.074 A 
HETATM    9  C   UNK N   1      28.951  22.436  -6.200  0.00  0.00     0.037 A 
HETATM   10  C   UNK N   1      29.810  21.415  -5.796  0.00  0.00     0.005 A 
HETATM   11  C   UNK N   1      30.417  21.470  -4.543  0.00  0.00     0.036 A 
HETATM   12  C   UNK N   1      30.173  22.554  -3.684  0.00  0.00     0.105 A 
HETATM   13  C   UNK N   1      29.325  23.590  -4.112  0.00  0.00     0.072 A 
BRANCH  12  14
HETATM   14  N   UNK N   1      30.768  22.582  -2.390  0.00  0.00    -0.116 N 
HETATM   15  O   UNK N   1      30.199  23.117  -1.480  0.00  0.00    -0.532 OA
HETATM   16  O   UNK N   1      31.811  22.044  -2.192  0.00  0.00    -0.532 OA
ENDBRANCH  12  14
ENDBRANCH   7   8
ENDBRANCH   5   7
BRANCH   4  17
HETATM   17  O   UNK N   1      25.211  25.167  -5.459  0.00  0.00    -0.388 OA
HETATM   18  H   UNK N   1      24.778  24.881  -6.279  0.00  0.00     0.210 HD
ENDBRANCH   4  17
BRANCH   3  19
HETATM   19  O   UNK N   1      26.046  27.044  -2.539  0.00  0.00    -0.390 OA
HETATM   20  H   UNK N   1      25.982  27.291  -1.602  0.00  0.00     0.210 HD
ENDBRANCH   3  19
BRANCH   1  21
HETATM   21  C   UNK N   1      27.848  29.139  -6.144  0.00  0.00     0.198 C 
BRANCH  21  22
HETATM   22  O   UNK N   1      28.072  30.337  -5.462  0.00  0.00    -0.398 OA
HETATM   23  H   UNK N   1      27.817  31.223  -5.762  0.00  0.00     0.209 HD
ENDBRANCH  21  22
ENDBRANCH   1  21
BRANCH   2  24
HETATM   24  O   UNK N   1      25.912  29.315  -3.885  0.00  0.00    -0.390 OA
HETATM   25  H   UNK N   1      26.618  29.730  -3.366  0.00  0.00     0.210 HD
ENDBRANCH   2  24
TORSDOF 8
ENDMDL
MODEL 8
REMARK VINA RESULT:      -6.2      3.683      6.235
REMARK  8 active torsions:
REMARK  status: ('A' for Active; 'I' for Inactive)
REMARK    1  A    between atoms: C_8  and  C_5 
REMARK    2  A    between atoms: O_14  and  C_5 
REMARK    3  A    between atoms: N_13  and  C_6 
REMARK    4  A    between atoms: O_20  and  C_7 
REMARK    5  A    between atoms: C_9  and  O_15 
REMARK    6  A    between atoms: C_10  and  O_16 
REMARK    7  A    between atoms: C_11  and  O_17 
REMARK    8  A    between atoms: C_12  and  O_20 
ROOT
HETATM    1  C   UNK N   1      20.782  18.130   3.392  0.00  0.00     0.179 C 
HETATM    2  C   UNK N   1      19.734  19.015   2.679  0.00  0.00     0.180 C 
HETATM    3  C   UNK N   1      20.398  19.980   1.672  0.00  0.00     0.183 C 
HETATM    4  C   UNK N   1      21.725  20.587   2.190  0.00  0.00     0.205 C 
HETATM    5  C   UNK N   1      22.573  19.556   2.989  0.00  0.00     0.298 C 
HETATM    6  O   UNK N   1      21.760  18.962   3.986  0.00  0.00    -0.348 OA
ENDROOT
BRANCH   5   7
HETATM    7  O   UNK N   1      23.659  20.134   3.643  0.00  0.00    -0.318 OA
BRANCH   7   8
HETATM    8  C   UNK N   1      24.925  19.655   3.771  0.00  0.00     0.074 A 
HETATM    9  C   UNK N   1      25.984  20.461   4.208  0.00  0.00     0.037 A 
HETATM   10  C   UNK N   1      27.267  19.934   4.356  0.00  0.00     0.005 A 
HETATM   11  C   UNK N   1      27.512  18.598   4.043  0.00  0.00     0.036 A 
HETATM   12  C   UNK N   1      26.471  17.775   3.584  0.00  0.00     0.105 A 
HETATM   13  C   UNK N   1      25.177  18.311   3.462  0.00  0.00     0.072 A 
BRANCH  12  14
HETATM   14  N   UNK N   1      26.740  16.422   3.229  0.00  0.00    -0.116 N 
HETATM   15  O   UNK N   1      25.849  15.712   2.855  0.00  0.00    -0.532 OA
HETATM   16  O   UNK N   1      27.851  15.997   3.265  0.00  0.00    -0.532 OA
ENDBRANCH  12  14
ENDBRANCH   7   8
ENDBRANCH   5   7
BRANCH   4  17
HETATM   17  O   UNK N   1      21.464  21.693   2.998  0.00  0.00    -0.388 OA
HETATM   18  H   UNK N   1      21.100  22.371   3.589  0.00  0.00     0.210 HD
ENDBRANCH   4  17
BRANCH   3  19
HETATM   19  O   UNK N   1      20.637  19.315   0.467  0.00  0.00    -0.390 OA
HETATM   20  H   UNK N   1      20.479  18.640  -0.212  0.00  0.00     0.210 HD
ENDBRANCH   3  19
BRANCH   1  21
HETATM   21  C   UNK N   1      20.134  17.319   4.517  0.00  0.00     0.198 C 
BRANCH  21  22
HETATM   22  O   UNK N   1      19.161  16.448   4.023  0.00  0.00    -0.398 OA
HETATM   23  H   UNK N   1      18.217  16.459   4.245  0.00  0.00     0.209 HD
ENDBRANCH  21  22
ENDBRANCH   1  21
BRANCH   2  24
HETATM   24  O   UNK N   1      18.792  18.219   2.012  0.00  0.00    -0.390 OA
HETATM   25  H   UNK N   1      18.839  17.258   1.894  0.00  0.00     0.210 HD
ENDBRANCH   2  24
TORSDOF 8
ENDMDL
MODEL 9
REMARK VINA RESULT:      -6.2     13.075     15.198
REMARK  8 active torsions:
REMARK  status: ('A' for Active; 'I' for Inactive)
REMARK    1  A    between atoms: C_8  and  C_5 
REMARK    2  A    between atoms: O_14  and  C_5 
REMARK    3  A    between atoms: N_13  and  C_6 
REMARK    4  A    between atoms: O_20  and  C_7 
REMARK    5  A    between atoms: C_9  and  O_15 
REMARK    6  A    between atoms: C_10  and  O_16 
REMARK    7  A    between atoms: C_11  and  O_17 
REMARK    8  A    between atoms: C_12  and  O_20 
ROOT
HETATM    1  C   UNK N   1      35.377  14.743   9.697  0.00  0.00     0.179 C 
HETATM    2  C   UNK N   1      34.190  14.987  10.657  0.00  0.00     0.180 C 
HETATM    3  C   UNK N   1      32.858  15.126   9.887  0.00  0.00     0.183 C 
HETATM    4  C   UNK N   1      32.991  15.934   8.574  0.00  0.00     0.205 C 
HETATM    5  C   UNK N   1      34.320  15.627   7.824  0.00  0.00     0.298 C 
HETATM    6  O   UNK N   1      35.404  15.772   8.726  0.00  0.00    -0.348 OA
ENDROOT
BRANCH   5   7
HETATM    7  O   UNK N   1      34.559  16.496   6.762  0.00  0.00    -0.318 OA
BRANCH   7   8
HETATM    8  C   UNK N   1      33.927  16.558   5.560  0.00  0.00     0.074 A 
HETATM    9  C   UNK N   1      33.113  17.641   5.203  0.00  0.00     0.037 A 
HETATM   10  C   UNK N   1      32.499  17.691   3.952  0.00  0.00     0.005 A 
HETATM   11  C   UNK N   1      32.672  16.643   3.050  0.00  0.00     0.036 A 
HETATM   12  C   UNK N   1      33.467  15.537   3.391  0.00  0.00     0.105 A 
HETATM   13  C   UNK N   1      34.100  15.509   4.645  0.00  0.00     0.072 A 
BRANCH  12  14
HETATM   14  N   UNK N   1      33.605  14.453   2.476  0.00  0.00    -0.116 N 
HETATM   15  O   UNK N   1      34.427  14.505   1.605  0.00  0.00    -0.532 OA
HETATM   16  O   UNK N   1      32.936  13.476   2.592  0.00  0.00    -0.532 OA
ENDBRANCH  12  14
ENDBRANCH   7   8
ENDBRANCH   5   7
BRANCH   4  17
HETATM   17  O   UNK N   1      32.919  17.301   8.842  0.00  0.00    -0.388 OA
HETATM   18  H   UNK N   1      33.054  18.223   9.114  0.00  0.00     0.210 HD
ENDBRANCH   4  17
BRANCH   3  19
HETATM   19  O   UNK N   1      32.345  13.859   9.597  0.00  0.00    -0.390 OA
HETATM   20  H   UNK N   1      31.687  13.147   9.632  0.00  0.00     0.210 HD
ENDBRANCH   3  19
BRANCH   1  21
HETATM   21  C   UNK N   1      36.707  14.798  10.452  0.00  0.00     0.198 C 
BRANCH  21  22
HETATM   22  O   UNK N   1      36.988  16.090  10.899  0.00  0.00    -0.398 OA
HETATM   23  H   UNK N   1      37.715  16.348  11.485  0.00  0.00     0.209 HD
ENDBRANCH  21  22
ENDBRANCH   1  21
BRANCH   2  24
HETATM   24  O   UNK N   1      34.087  13.941  11.585  0.00  0.00    -0.390 OA
HETATM   25  H   UNK N   1      33.524  13.156  11.499  0.00  0.00     0.210 HD
ENDBRANCH   2  24
TORSDOF 8
ENDMDL
