MODEL 1
REMARK VINA RESULT:      -7.5      0.000      0.000
REMARK  19 active torsions:
REMARK  status: ('A' for Active; 'I' for Inactive)
REMARK    1  A    between atoms: C_17  and  C_16 
REMARK    2  A    between atoms: C_26  and  C_16 
REMARK    3  A    between atoms: C_29  and  C_17 
REMARK    4  A    between atoms: C_23  and  C_22 
REMARK    5  A    between atoms: C_29  and  C_22 
REMARK    6  A    between atoms: S_48  and  C_23 
REMARK    7  A    between atoms: C_27  and  C_24 
REMARK    8  A    between atoms: C_32  and  C_24 
REMARK    9  A    between atoms: C_28  and  C_25 
REMARK   10  A    between atoms: O_46  and  C_25 
REMARK   11  A    between atoms: C_29  and  N_35 
REMARK   12  A    between atoms: N_39  and  C_30 
REMARK   13  A    between atoms: O_47  and  C_31 
REMARK   14  A    between atoms: C_33  and  C_32 
REMARK   15  A    between atoms: C_32  and  N_37 
REMARK   16  A    between atoms: C_33  and  O_40 
REMARK   17  A    between atoms: C_34  and  O_41 
REMARK   18  A    between atoms: O_46  and  C_34 
REMARK   19  A    between atoms: S_48  and  O_47 
ROOT
HETATM    1  C   UNK N   1      27.776  24.306  -3.698  0.00  0.00     0.135 C 
HETATM    2  N   UNK N   1      27.211  24.571  -4.833  0.00  0.00    -0.368 N 
ATOM      3  HN  UNK N   1      27.820  24.727  -5.636  1.00  0.00     0.161 HD
ENDROOT
BRANCH   2   4
HETATM    4  C   UNK N   1      25.793  24.664  -5.051  0.00  0.00     0.084 C 
BRANCH   4   5
HETATM    5  C   UNK N   1      25.631  25.854  -5.984  0.00  0.00     0.029 C 
BRANCH   5   6
HETATM    6  C   UNK N   1      25.839  27.169  -5.230  0.00  0.00     0.040 C 
BRANCH   6   7
HETATM    7  C   UNK N   1      26.826  27.969  -5.979  0.00  0.00    -0.058 A 
HETATM    8  C   UNK N   1      27.412  27.465  -7.148  0.00  0.00     0.007 A 
HETATM    9  C   UNK N   1      28.445  28.169  -7.764  0.00  0.00     0.001 A 
HETATM   10  C   UNK N   1      28.891  29.373  -7.212  0.00  0.00     0.000 A 
HETATM   11  C   UNK N   1      28.287  29.884  -6.059  0.00  0.00     0.001 A 
HETATM   12  C   UNK N   1      27.256  29.179  -5.441  0.00  0.00     0.007 A 
ENDBRANCH   6   7
ENDBRANCH   5   6
ENDBRANCH   4   5
BRANCH   4  13
HETATM   13  C   UNK N   1      25.276  23.431  -5.798  0.00  0.00     0.042 C 
BRANCH  13  14
HETATM   14  C   UNK N   1      26.244  22.837  -6.822  0.00  0.00     0.173 C 
BRANCH  14  15
HETATM   15  S   UNK N   1      25.399  22.058  -8.242  0.00  0.00     0.270 S 
HETATM   16  O   UNK N   1      23.892  22.210  -8.116  0.00  0.00    -0.198 OA
HETATM   17  O   UNK N   1      25.586  20.541  -8.360  0.00  0.00    -0.198 OA
BRANCH  15  18
HETATM   18  O   UNK N   1      25.620  22.679  -9.801  0.00  0.00    -0.233 OA
BRANCH  18  19
HETATM   19  C   UNK N   1      26.170  23.893  -9.955  0.00  0.00     0.089 A 
HETATM   20  C   UNK N   1      25.345  25.007  -9.886  0.00  0.00     0.040 A 
HETATM   21  C   UNK N   1      25.811  26.236 -10.341  0.00  0.00     0.039 A 
HETATM   22  C   UNK N   1      27.117  26.356 -10.848  0.00  0.00     0.103 A 
HETATM   23  C   UNK N   1      27.985  25.261 -10.787  0.00  0.00     0.039 A 
HETATM   24  C   UNK N   1      27.513  24.032 -10.345  0.00  0.00     0.040 A 
BRANCH  22  25
HETATM   25  N   UNK N   1      27.509  27.548 -11.510  0.00  0.00    -0.116 N 
HETATM   26  O   UNK N   1      28.471  28.145 -11.145  0.00  0.00    -0.532 OA
HETATM   27  O   UNK N   1      26.775  28.050 -12.314  0.00  0.00    -0.532 OA
ENDBRANCH  22  25
ENDBRANCH  18  19
ENDBRANCH  15  18
ENDBRANCH  14  15
ENDBRANCH  13  14
ENDBRANCH   4  13
ENDBRANCH   2   4
BRANCH   1  28
HETATM   28  C   UNK N   1      29.254  24.525  -3.573  0.00  0.00     0.164 C 
BRANCH  28  29
HETATM   29  C   UNK N   1      29.594  25.482  -4.729  0.00  0.00     0.072 C 
BRANCH  29  30
HETATM   30  C   UNK N   1      30.297  26.748  -4.477  0.00  0.00    -0.056 A 
HETATM   31  C   UNK N   1      29.828  27.558  -3.441  0.00  0.00     0.007 A 
HETATM   32  C   UNK N   1      30.383  28.819  -3.234  0.00  0.00     0.001 A 
HETATM   33  C   UNK N   1      31.398  29.276  -4.077  0.00  0.00     0.000 A 
HETATM   34  C   UNK N   1      31.859  28.468  -5.124  0.00  0.00     0.001 A 
HETATM   35  C   UNK N   1      31.302  27.203  -5.331  0.00  0.00     0.007 A 
ENDBRANCH  29  30
ENDBRANCH  28  29
BRANCH  28  36
HETATM   36  N   UNK N   1      29.926  23.240  -3.623  0.00  0.00    -0.338 N 
HETATM   37  C   UNK N   1      30.485  22.679  -2.604  0.00  0.00     0.259 C 
ATOM     38  HN  UNK N   1      29.957  22.751  -4.518  1.00  0.00     0.164 HD
BRANCH  37  39
HETATM   39  O   UNK N   1      30.343  23.189  -1.366  0.00  0.00    -0.327 OA
HETATM   40  H   UNK N   1      29.954  23.678  -0.668  0.00  0.00     0.221 HD
ENDBRANCH  37  39
BRANCH  37  41
HETATM   41  O   UNK N   1      31.279  21.607  -2.763  0.00  0.00    -0.312 OA
BRANCH  41  42
HETATM   42  C   UNK N   1      31.131  20.644  -3.728  0.00  0.00     0.218 C 
BRANCH  42  43
HETATM   43  C   UNK N   1      32.466  20.541  -4.341  0.00  0.00    -0.034 A 
HETATM   44  C   UNK N   1      32.571  20.086  -5.659  0.00  0.00     0.009 A 
HETATM   45  C   UNK N   1      33.823  19.797  -6.197  0.00  0.00     0.001 A 
HETATM   46  C   UNK N   1      34.970  19.945  -5.410  0.00  0.00     0.000 A 
HETATM   47  C   UNK N   1      34.863  20.398  -4.091  0.00  0.00     0.001 A 
HETATM   48  C   UNK N   1      33.608  20.690  -3.552  0.00  0.00     0.009 A 
ENDBRANCH  42  43
ENDBRANCH  41  42
ENDBRANCH  37  41
ENDBRANCH  28  36
ENDBRANCH   1  28
BRANCH   1  49
HETATM   49  O   UNK N   1      27.046  23.960  -2.615  0.00  0.00    -0.348 OA
HETATM   50  H   UNK N   1      26.331  24.303  -2.117  0.00  0.00     0.219 HD
ENDBRANCH   1  49
TORSDOF 19
ENDMDL
MODEL 2
REMARK VINA RESULT:      -7.4     14.195     18.819
REMARK  19 active torsions:
REMARK  status: ('A' for Active; 'I' for Inactive)
REMARK    1  A    between atoms: C_17  and  C_16 
REMARK    2  A    between atoms: C_26  and  C_16 
REMARK    3  A    between atoms: C_29  and  C_17 
REMARK    4  A    between atoms: C_23  and  C_22 
REMARK    5  A    between atoms: C_29  and  C_22 
REMARK    6  A    between atoms: S_48  and  C_23 
REMARK    7  A    between atoms: C_27  and  C_24 
REMARK    8  A    between atoms: C_32  and  C_24 
REMARK    9  A    between atoms: C_28  and  C_25 
REMARK   10  A    between atoms: O_46  and  C_25 
REMARK   11  A    between atoms: C_29  and  N_35 
REMARK   12  A    between atoms: N_39  and  C_30 
REMARK   13  A    between atoms: O_47  and  C_31 
REMARK   14  A    between atoms: C_33  and  C_32 
REMARK   15  A    between atoms: C_32  and  N_37 
REMARK   16  A    between atoms: C_33  and  O_40 
REMARK   17  A    between atoms: C_34  and  O_41 
REMARK   18  A    between atoms: O_46  and  C_34 
REMARK   19  A    between atoms: S_48  and  O_47 
ROOT
HETATM    1  C   UNK N   1      34.484  16.181   9.492  0.00  0.00     0.135 C 
HETATM    2  N   UNK N   1      33.491  16.470   8.712  0.00  0.00    -0.368 N 
ATOM      3  HN  UNK N   1      32.854  15.713   8.463  1.00  0.00     0.161 HD
ENDROOT
BRANCH   2   4
HETATM    4  C   UNK N   1      33.216  17.772   8.168  0.00  0.00     0.084 C 
BRANCH   4   5
HETATM    5  C   UNK N   1      33.737  17.703   6.741  0.00  0.00     0.029 C 
BRANCH   5   6
HETATM    6  C   UNK N   1      32.587  17.508   5.751  0.00  0.00     0.040 C 
BRANCH   6   7
HETATM    7  C   UNK N   1      32.702  16.150   5.185  0.00  0.00    -0.058 A 
HETATM    8  C   UNK N   1      33.561  15.898   4.107  0.00  0.00     0.007 A 
HETATM    9  C   UNK N   1      33.552  14.647   3.493  0.00  0.00     0.001 A 
HETATM   10  C   UNK N   1      32.687  13.652   3.956  0.00  0.00     0.000 A 
HETATM   11  C   UNK N   1      31.849  13.900   5.047  0.00  0.00     0.001 A 
HETATM   12  C   UNK N   1      31.855  15.152   5.659  0.00  0.00     0.007 A 
ENDBRANCH   6   7
ENDBRANCH   5   6
ENDBRANCH   4   5
BRANCH   4  13
HETATM   13  C   UNK N   1      31.707  18.020   8.087  0.00  0.00     0.042 C 
BRANCH  13  14
HETATM   14  C   UNK N   1      30.837  16.974   8.787  0.00  0.00     0.173 C 
BRANCH  14  15
HETATM   15  S   UNK N   1      29.273  17.661   9.438  0.00  0.00     0.270 S 
HETATM   16  O   UNK N   1      29.545  18.872  10.314  0.00  0.00    -0.198 OA
HETATM   17  O   UNK N   1      28.489  16.728  10.368  0.00  0.00    -0.198 OA
BRANCH  15  18
HETATM   18  O   UNK N   1      28.137  18.326   8.375  0.00  0.00    -0.233 OA
BRANCH  18  19
HETATM   19  C   UNK N   1      28.092  17.898   7.105  0.00  0.00     0.089 A 
HETATM   20  C   UNK N   1      27.926  16.540   6.869  0.00  0.00     0.040 A 
HETATM   21  C   UNK N   1      28.181  16.028   5.602  0.00  0.00     0.039 A 
HETATM   22  C   UNK N   1      28.583  16.881   4.559  0.00  0.00     0.103 A 
HETATM   23  C   UNK N   1      28.616  18.263   4.771  0.00  0.00     0.039 A 
HETATM   24  C   UNK N   1      28.374  18.771   6.040  0.00  0.00     0.040 A 
BRANCH  22  25
HETATM   25  N   UNK N   1      29.053  16.330   3.339  0.00  0.00    -0.116 N 
HETATM   26  O   UNK N   1      30.151  16.577   2.955  0.00  0.00    -0.532 OA
HETATM   27  O   UNK N   1      28.286  15.767   2.607  0.00  0.00    -0.532 OA
ENDBRANCH  22  25
ENDBRANCH  18  19
ENDBRANCH  15  18
ENDBRANCH  14  15
ENDBRANCH  13  14
ENDBRANCH   4  13
ENDBRANCH   2   4
BRANCH   1  28
HETATM   28  C   UNK N   1      34.795  14.735   9.740  0.00  0.00     0.164 C 
BRANCH  28  29
HETATM   29  C   UNK N   1      34.005  13.987   8.651  0.00  0.00     0.072 C 
BRANCH  29  30
HETATM   30  C   UNK N   1      34.671  13.509   7.431  0.00  0.00    -0.056 A 
HETATM   31  C   UNK N   1      34.435  12.191   7.035  0.00  0.00     0.007 A 
HETATM   32  C   UNK N   1      35.130  11.651   5.955  0.00  0.00     0.001 A 
HETATM   33  C   UNK N   1      36.074  12.429   5.280  0.00  0.00     0.000 A 
HETATM   34  C   UNK N   1      36.319  13.746   5.686  0.00  0.00     0.001 A 
HETATM   35  C   UNK N   1      35.622  14.287   6.770  0.00  0.00     0.007 A 
ENDBRANCH  29  30
ENDBRANCH  28  29
BRANCH  28  36
HETATM   36  N   UNK N   1      34.426  14.402  11.103  0.00  0.00    -0.338 N 
HETATM   37  C   UNK N   1      35.255  14.393  12.092  0.00  0.00     0.259 C 
ATOM     38  HN  UNK N   1      33.452  14.161  11.290  1.00  0.00     0.164 HD
BRANCH  37  39
HETATM   39  O   UNK N   1      36.512  14.853  11.948  0.00  0.00    -0.327 OA
HETATM   40  H   UNK N   1      37.238  15.438  12.041  0.00  0.00     0.221 HD
ENDBRANCH  37  39
BRANCH  37  41
HETATM   41  O   UNK N   1      34.904  13.861  13.275  0.00  0.00    -0.312 OA
BRANCH  41  42
HETATM   42  C   UNK N   1      35.717  13.759  14.374  0.00  0.00     0.218 C 
BRANCH  42  43
HETATM   43  C   UNK N   1      35.210  12.576  15.088  0.00  0.00    -0.034 A 
HETATM   44  C   UNK N   1      35.746  12.262  16.341  0.00  0.00     0.009 A 
HETATM   45  C   UNK N   1      35.426  11.050  16.950  0.00  0.00     0.001 A 
HETATM   46  C   UNK N   1      34.584  10.144  16.297  0.00  0.00     0.000 A 
HETATM   47  C   UNK N   1      34.050  10.459  15.044  0.00  0.00     0.001 A 
HETATM   48  C   UNK N   1      34.370  11.674  14.433  0.00  0.00     0.009 A 
ENDBRANCH  42  43
ENDBRANCH  41  42
ENDBRANCH  37  41
ENDBRANCH  28  36
ENDBRANCH   1  28
BRANCH   1  49
HETATM   49  O   UNK N   1      35.299  17.144   9.975  0.00  0.00    -0.348 OA
HETATM   50  H   UNK N   1      36.156  17.483   9.806  0.00  0.00     0.219 HD
ENDBRANCH   1  49
TORSDOF 19
ENDMDL
MODEL 3
REMARK VINA RESULT:      -7.4     17.752     23.149
REMARK  19 active torsions:
REMARK  status: ('A' for Active; 'I' for Inactive)
REMARK    1  A    between atoms: C_17  and  C_16 
REMARK    2  A    between atoms: C_26  and  C_16 
REMARK    3  A    between atoms: C_29  and  C_17 
REMARK    4  A    between atoms: C_23  and  C_22 
REMARK    5  A    between atoms: C_29  and  C_22 
REMARK    6  A    between atoms: S_48  and  C_23 
REMARK    7  A    between atoms: C_27  and  C_24 
REMARK    8  A    between atoms: C_32  and  C_24 
REMARK    9  A    between atoms: C_28  and  C_25 
REMARK   10  A    between atoms: O_46  and  C_25 
REMARK   11  A    between atoms: C_29  and  N_35 
REMARK   12  A    between atoms: N_39  and  C_30 
REMARK   13  A    between atoms: O_47  and  C_31 
REMARK   14  A    between atoms: C_33  and  C_32 
REMARK   15  A    between atoms: C_32  and  N_37 
REMARK   16  A    between atoms: C_33  and  O_40 
REMARK   17  A    between atoms: C_34  and  O_41 
REMARK   18  A    between atoms: O_46  and  C_34 
REMARK   19  A    between atoms: S_48  and  O_47 
ROOT
HETATM    1  C   UNK N   1      37.169  12.945  12.020  0.00  0.00     0.135 C 
HETATM    2  N   UNK N   1      36.724  11.734  12.137  0.00  0.00    -0.368 N 
ATOM      3  HN  UNK N   1      35.817  11.608  12.586  1.00  0.00     0.161 HD
ENDROOT
BRANCH   2   4
HETATM    4  C   UNK N   1      37.409  10.553  11.686  0.00  0.00     0.084 C 
BRANCH   4   5
HETATM    5  C   UNK N   1      37.008   9.479  12.685  0.00  0.00     0.029 C 
BRANCH   5   6
HETATM    6  C   UNK N   1      37.756   9.658  14.008  0.00  0.00     0.040 C 
BRANCH   6   7
HETATM    7  C   UNK N   1      36.754   9.858  15.071  0.00  0.00    -0.058 A 
HETATM    8  C   UNK N   1      37.145   9.937  16.414  0.00  0.00     0.007 A 
HETATM    9  C   UNK N   1      36.178   9.981  17.417  0.00  0.00     0.001 A 
HETATM   10  C   UNK N   1      34.823   9.944  17.077  0.00  0.00     0.000 A 
HETATM   11  C   UNK N   1      34.436   9.889  15.734  0.00  0.00     0.001 A 
HETATM   12  C   UNK N   1      35.403   9.842  14.732  0.00  0.00     0.007 A 
ENDBRANCH   6   7
ENDBRANCH   5   6
ENDBRANCH   4   5
BRANCH   4  13
HETATM   13  C   UNK N   1      36.888  10.112  10.316  0.00  0.00     0.042 C 
BRANCH  13  14
HETATM   14  C   UNK N   1      35.542   9.387  10.334  0.00  0.00     0.173 C 
BRANCH  14  15
HETATM   15  S   UNK N   1      34.120  10.517  10.541  0.00  0.00     0.270 S 
HETATM   16  O   UNK N   1      33.733  10.624  12.007  0.00  0.00    -0.198 OA
HETATM   17  O   UNK N   1      32.820  10.058   9.872  0.00  0.00    -0.198 OA
BRANCH  15  18
HETATM   18  O   UNK N   1      34.285  12.158  10.167  0.00  0.00    -0.233 OA
BRANCH  18  19
HETATM   19  C   UNK N   1      34.595  12.522   8.913  0.00  0.00     0.089 A 
HETATM   20  C   UNK N   1      35.772  13.225   8.700  0.00  0.00     0.040 A 
HETATM   21  C   UNK N   1      35.972  13.878   7.488  0.00  0.00     0.039 A 
HETATM   22  C   UNK N   1      34.998  13.808   6.476  0.00  0.00     0.103 A 
HETATM   23  C   UNK N   1      33.879  12.986   6.649  0.00  0.00     0.039 A 
HETATM   24  C   UNK N   1      33.676  12.347   7.864  0.00  0.00     0.040 A 
BRANCH  22  25
HETATM   25  N   UNK N   1      35.104  14.648   5.338  0.00  0.00    -0.116 N 
HETATM   26  O   UNK N   1      35.028  15.829   5.458  0.00  0.00    -0.532 OA
HETATM   27  O   UNK N   1      35.086  14.166   4.240  0.00  0.00    -0.532 OA
ENDBRANCH  22  25
ENDBRANCH  18  19
ENDBRANCH  15  18
ENDBRANCH  14  15
ENDBRANCH  13  14
ENDBRANCH   4  13
ENDBRANCH   2   4
BRANCH   1  28
HETATM   28  C   UNK N   1      36.477  14.032  12.788  0.00  0.00     0.164 C 
BRANCH  28  29
HETATM   29  C   UNK N   1      35.905  13.316  14.024  0.00  0.00     0.072 C 
BRANCH  29  30
HETATM   30  C   UNK N   1      36.121  13.854  15.374  0.00  0.00    -0.056 A 
HETATM   31  C   UNK N   1      35.258  13.434  16.388  0.00  0.00     0.007 A 
HETATM   32  C   UNK N   1      35.344  13.999  17.658  0.00  0.00     0.001 A 
HETATM   33  C   UNK N   1      36.287  15.000  17.909  0.00  0.00     0.000 A 
HETATM   34  C   UNK N   1      37.143  15.430  16.888  0.00  0.00     0.001 A 
HETATM   35  C   UNK N   1      37.056  14.862  15.613  0.00  0.00     0.007 A 
ENDBRANCH  29  30
ENDBRANCH  28  29
BRANCH  28  36
HETATM   36  N   UNK N   1      35.489  14.659  11.930  0.00  0.00    -0.338 N 
HETATM   37  C   UNK N   1      35.742  15.651  11.145  0.00  0.00     0.259 C 
ATOM     38  HN  UNK N   1      34.537  14.292  11.948  1.00  0.00     0.164 HD
BRANCH  37  39
HETATM   39  O   UNK N   1      37.005  16.079  10.952  0.00  0.00    -0.327 OA
HETATM   40  H   UNK N   1      37.917  16.196  11.126  0.00  0.00     0.221 HD
ENDBRANCH  37  39
BRANCH  37  41
HETATM   41  O   UNK N   1      34.744  16.326  10.551  0.00  0.00    -0.312 OA
BRANCH  41  42
HETATM   42  C   UNK N   1      34.881  17.167   9.477  0.00  0.00     0.218 C 
BRANCH  42  43
HETATM   43  C   UNK N   1      33.638  16.979   8.711  0.00  0.00    -0.034 A 
HETATM   44  C   UNK N   1      32.871  15.831   8.938  0.00  0.00     0.009 A 
HETATM   45  C   UNK N   1      31.800  15.534   8.099  0.00  0.00     0.001 A 
HETATM   46  C   UNK N   1      31.506  16.375   7.021  0.00  0.00     0.000 A 
HETATM   47  C   UNK N   1      32.273  17.521   6.794  0.00  0.00     0.001 A 
HETATM   48  C   UNK N   1      33.347  17.821   7.637  0.00  0.00     0.009 A 
ENDBRANCH  42  43
ENDBRANCH  41  42
ENDBRANCH  37  41
ENDBRANCH  28  36
ENDBRANCH   1  28
BRANCH   1  49
HETATM   49  O   UNK N   1      38.296  13.215  11.326  0.00  0.00    -0.348 OA
HETATM   50  H   UNK N   1      38.676  12.994  10.499  0.00  0.00     0.219 HD
ENDBRANCH   1  49
TORSDOF 19
ENDMDL
MODEL 4
REMARK VINA RESULT:      -7.4     14.567     19.227
REMARK  19 active torsions:
REMARK  status: ('A' for Active; 'I' for Inactive)
REMARK    1  A    between atoms: C_17  and  C_16 
REMARK    2  A    between atoms: C_26  and  C_16 
REMARK    3  A    between atoms: C_29  and  C_17 
REMARK    4  A    between atoms: C_23  and  C_22 
REMARK    5  A    between atoms: C_29  and  C_22 
REMARK    6  A    between atoms: S_48  and  C_23 
REMARK    7  A    between atoms: C_27  and  C_24 
REMARK    8  A    between atoms: C_32  and  C_24 
REMARK    9  A    between atoms: C_28  and  C_25 
REMARK   10  A    between atoms: O_46  and  C_25 
REMARK   11  A    between atoms: C_29  and  N_35 
REMARK   12  A    between atoms: N_39  and  C_30 
REMARK   13  A    between atoms: O_47  and  C_31 
REMARK   14  A    between atoms: C_33  and  C_32 
REMARK   15  A    between atoms: C_32  and  N_37 
REMARK   16  A    between atoms: C_33  and  O_40 
REMARK   17  A    between atoms: C_34  and  O_41 
REMARK   18  A    between atoms: O_46  and  C_34 
REMARK   19  A    between atoms: S_48  and  O_47 
ROOT
HETATM    1  C   UNK N   1      34.272  16.033   9.992  0.00  0.00     0.135 C 
HETATM    2  N   UNK N   1      33.426  16.315   9.052  0.00  0.00    -0.368 N 
ATOM      3  HN  UNK N   1      32.875  15.546   8.671  1.00  0.00     0.161 HD
ENDROOT
BRANCH   2   4
HETATM    4  C   UNK N   1      33.205  17.625   8.503  0.00  0.00     0.084 C 
BRANCH   4   5
HETATM    5  C   UNK N   1      34.015  17.636   7.216  0.00  0.00     0.029 C 
BRANCH   5   6
HETATM    6  C   UNK N   1      33.257  16.931   6.089  0.00  0.00     0.040 C 
BRANCH   6   7
HETATM    7  C   UNK N   1      34.095  15.815   5.610  0.00  0.00    -0.058 A 
HETATM    8  C   UNK N   1      35.314  15.520   6.235  0.00  0.00     0.007 A 
HETATM    9  C   UNK N   1      36.160  14.559   5.684  0.00  0.00     0.001 A 
HETATM   10  C   UNK N   1      35.787  13.896   4.511  0.00  0.00     0.000 A 
HETATM   11  C   UNK N   1      34.559  14.177   3.904  0.00  0.00     0.001 A 
HETATM   12  C   UNK N   1      33.714  15.140   4.453  0.00  0.00     0.007 A 
ENDBRANCH   6   7
ENDBRANCH   5   6
ENDBRANCH   4   5
BRANCH   4  13
HETATM   13  C   UNK N   1      31.736  17.810   8.114  0.00  0.00     0.042 C 
BRANCH  13  14
HETATM   14  C   UNK N   1      30.753  16.874   8.819  0.00  0.00     0.173 C 
BRANCH  14  15
HETATM   15  S   UNK N   1      29.236  17.722   9.386  0.00  0.00     0.270 S 
HETATM   16  O   UNK N   1      29.583  18.887  10.297  0.00  0.00    -0.198 OA
HETATM   17  O   UNK N   1      28.299  16.872  10.251  0.00  0.00    -0.198 OA
BRANCH  15  18
HETATM   18  O   UNK N   1      28.246  18.518   8.268  0.00  0.00    -0.233 OA
BRANCH  18  19
HETATM   19  C   UNK N   1      28.100  18.009   7.035  0.00  0.00     0.089 A 
HETATM   20  C   UNK N   1      28.209  18.865   5.948  0.00  0.00     0.040 A 
HETATM   21  C   UNK N   1      27.765  18.448   4.698  0.00  0.00     0.039 A 
HETATM   22  C   UNK N   1      27.230  17.158   4.530  0.00  0.00     0.103 A 
HETATM   23  C   UNK N   1      27.250  16.256   5.599  0.00  0.00     0.039 A 
HETATM   24  C   UNK N   1      27.681  16.680   6.849  0.00  0.00     0.040 A 
BRANCH  22  25
HETATM   25  N   UNK N   1      26.581  16.818   3.315  0.00  0.00    -0.116 N 
HETATM   26  O   UNK N   1      25.487  17.226   3.088  0.00  0.00    -0.532 OA
HETATM   27  O   UNK N   1      27.055  15.977   2.603  0.00  0.00    -0.532 OA
ENDBRANCH  22  25
ENDBRANCH  18  19
ENDBRANCH  15  18
ENDBRANCH  14  15
ENDBRANCH  13  14
ENDBRANCH   4  13
ENDBRANCH   2   4
BRANCH   1  28
HETATM   28  C   UNK N   1      34.588  14.590  10.253  0.00  0.00     0.164 C 
BRANCH  28  29
HETATM   29  C   UNK N   1      33.638  13.820   9.318  0.00  0.00     0.072 C 
BRANCH  29  30
HETATM   30  C   UNK N   1      34.163  12.872   8.326  0.00  0.00    -0.056 A 
HETATM   31  C   UNK N   1      33.317  12.486   7.284  0.00  0.00     0.007 A 
HETATM   32  C   UNK N   1      33.721  11.503   6.384  0.00  0.00     0.001 A 
HETATM   33  C   UNK N   1      34.970  10.895   6.536  0.00  0.00     0.000 A 
HETATM   34  C   UNK N   1      35.812  11.274   7.588  0.00  0.00     0.001 A 
HETATM   35  C   UNK N   1      35.406  12.259   8.492  0.00  0.00     0.007 A 
ENDBRANCH  29  30
ENDBRANCH  28  29
BRANCH  28  36
HETATM   36  N   UNK N   1      34.410  14.318  11.667  0.00  0.00    -0.338 N 
HETATM   37  C   UNK N   1      35.384  14.124  12.491  0.00  0.00     0.259 C 
ATOM     38  HN  UNK N   1      33.458  14.279  12.031  1.00  0.00     0.164 HD
BRANCH  37  39
HETATM   39  O   UNK N   1      36.662  14.319  12.114  0.00  0.00    -0.327 OA
HETATM   40  H   UNK N   1      37.482  14.136  11.701  0.00  0.00     0.221 HD
ENDBRANCH  37  39
BRANCH  37  41
HETATM   41  O   UNK N   1      35.150  13.657  13.729  0.00  0.00    -0.312 OA
BRANCH  41  42
HETATM   42  C   UNK N   1      36.016  12.892  14.468  0.00  0.00     0.218 C 
BRANCH  42  43
HETATM   43  C   UNK N   1      36.261  13.694  15.678  0.00  0.00    -0.034 A 
HETATM   44  C   UNK N   1      35.457  13.484  16.803  0.00  0.00     0.009 A 
HETATM   45  C   UNK N   1      35.538  14.353  17.888  0.00  0.00     0.001 A 
HETATM   46  C   UNK N   1      36.412  15.444  17.842  0.00  0.00     0.000 A 
HETATM   47  C   UNK N   1      37.215  15.654  16.717  0.00  0.00     0.001 A 
HETATM   48  C   UNK N   1      37.135  14.781  15.628  0.00  0.00     0.009 A 
ENDBRANCH  42  43
ENDBRANCH  41  42
ENDBRANCH  37  41
ENDBRANCH  28  36
ENDBRANCH   1  28
BRANCH   1  49
HETATM   49  O   UNK N   1      34.949  17.005  10.642  0.00  0.00    -0.348 OA
HETATM   50  H   UNK N   1      34.759  17.787  11.121  0.00  0.00     0.219 HD
ENDBRANCH   1  49
TORSDOF 19
ENDMDL
MODEL 5
REMARK VINA RESULT:      -7.3     15.900     21.608
REMARK  19 active torsions:
REMARK  status: ('A' for Active; 'I' for Inactive)
REMARK    1  A    between atoms: C_17  and  C_16 
REMARK    2  A    between atoms: C_26  and  C_16 
REMARK    3  A    between atoms: C_29  and  C_17 
REMARK    4  A    between atoms: C_23  and  C_22 
REMARK    5  A    between atoms: C_29  and  C_22 
REMARK    6  A    between atoms: S_48  and  C_23 
REMARK    7  A    between atoms: C_27  and  C_24 
REMARK    8  A    between atoms: C_32  and  C_24 
REMARK    9  A    between atoms: C_28  and  C_25 
REMARK   10  A    between atoms: O_46  and  C_25 
REMARK   11  A    between atoms: C_29  and  N_35 
REMARK   12  A    between atoms: N_39  and  C_30 
REMARK   13  A    between atoms: O_47  and  C_31 
REMARK   14  A    between atoms: C_33  and  C_32 
REMARK   15  A    between atoms: C_32  and  N_37 
REMARK   16  A    between atoms: C_33  and  O_40 
REMARK   17  A    between atoms: C_34  and  O_41 
REMARK   18  A    between atoms: O_46  and  C_34 
REMARK   19  A    between atoms: S_48  and  O_47 
ROOT
HETATM    1  C   UNK N   1      36.896  14.185  10.364  0.00  0.00     0.135 C 
HETATM    2  N   UNK N   1      36.741  12.943  10.032  0.00  0.00    -0.368 N 
ATOM      3  HN  UNK N   1      35.812  12.539  10.145  1.00  0.00     0.161 HD
ENDROOT
BRANCH   2   4
HETATM    4  C   UNK N   1      37.777  12.087   9.519  0.00  0.00     0.084 C 
BRANCH   4   5
HETATM    5  C   UNK N   1      37.969  11.036  10.602  0.00  0.00     0.029 C 
BRANCH   5   6
HETATM    6  C   UNK N   1      36.621  10.582  11.165  0.00  0.00     0.040 C 
BRANCH   6   7
HETATM    7  C   UNK N   1      36.829  10.187  12.572  0.00  0.00    -0.058 A 
HETATM    8  C   UNK N   1      35.903   9.362  13.224  0.00  0.00     0.007 A 
HETATM    9  C   UNK N   1      36.037   9.116  14.590  0.00  0.00     0.001 A 
HETATM   10  C   UNK N   1      37.093   9.694  15.300  0.00  0.00     0.000 A 
HETATM   11  C   UNK N   1      38.027  10.497  14.640  0.00  0.00     0.001 A 
HETATM   12  C   UNK N   1      37.892  10.747  13.275  0.00  0.00     0.007 A 
ENDBRANCH   6   7
ENDBRANCH   5   6
ENDBRANCH   4   5
BRANCH   4  13
HETATM   13  C   UNK N   1      37.304  11.357   8.259  0.00  0.00     0.042 C 
BRANCH  13  14
HETATM   14  C   UNK N   1      38.062  11.709   6.979  0.00  0.00     0.173 C 
BRANCH  14  15
HETATM   15  S   UNK N   1      38.171  13.509   6.681  0.00  0.00     0.270 S 
HETATM   16  O   UNK N   1      38.572  13.788   5.243  0.00  0.00    -0.198 OA
HETATM   17  O   UNK N   1      39.249  14.239   7.490  0.00  0.00    -0.198 OA
BRANCH  15  18
HETATM   18  O   UNK N   1      36.780  14.467   6.782  0.00  0.00    -0.233 OA
BRANCH  18  19
HETATM   19  C   UNK N   1      35.602  13.964   6.382  0.00  0.00     0.089 A 
HETATM   20  C   UNK N   1      35.429  13.675   5.035  0.00  0.00     0.040 A 
HETATM   21  C   UNK N   1      34.149  13.452   4.540  0.00  0.00     0.039 A 
HETATM   22  C   UNK N   1      33.038  13.496   5.400  0.00  0.00     0.103 A 
HETATM   23  C   UNK N   1      33.235  13.653   6.776  0.00  0.00     0.039 A 
HETATM   24  C   UNK N   1      34.512  13.889   7.266  0.00  0.00     0.040 A 
BRANCH  22  25
HETATM   25  N   UNK N   1      31.727  13.489   4.858  0.00  0.00    -0.116 N 
HETATM   26  O   UNK N   1      31.559  13.683   3.697  0.00  0.00    -0.532 OA
HETATM   27  O   UNK N   1      30.780  13.469   5.595  0.00  0.00    -0.532 OA
ENDBRANCH  22  25
ENDBRANCH  18  19
ENDBRANCH  15  18
ENDBRANCH  14  15
ENDBRANCH  13  14
ENDBRANCH   4  13
ENDBRANCH   2   4
BRANCH   1  28
HETATM   28  C   UNK N   1      35.803  14.853  11.143  0.00  0.00     0.164 C 
BRANCH  28  29
HETATM   29  C   UNK N   1      35.151  13.708  11.938  0.00  0.00     0.072 C 
BRANCH  29  30
HETATM   30  C   UNK N   1      35.366  13.579  13.386  0.00  0.00    -0.056 A 
HETATM   31  C   UNK N   1      36.461  14.242  13.944  0.00  0.00     0.007 A 
HETATM   32  C   UNK N   1      36.778  14.061  15.288  0.00  0.00     0.001 A 
HETATM   33  C   UNK N   1      36.005  13.200  16.072  0.00  0.00     0.000 A 
HETATM   34  C   UNK N   1      34.914  12.526  15.509  0.00  0.00     0.001 A 
HETATM   35  C   UNK N   1      34.597  12.709  14.160  0.00  0.00     0.007 A 
ENDBRANCH  29  30
ENDBRANCH  28  29
BRANCH  28  36
HETATM   36  N   UNK N   1      34.918  15.539  10.219  0.00  0.00    -0.338 N 
HETATM   37  C   UNK N   1      34.977  16.804   9.970  0.00  0.00     0.259 C 
ATOM     38  HN  UNK N   1      34.208  14.987   9.738  1.00  0.00     0.164 HD
BRANCH  37  39
HETATM   39  O   UNK N   1      35.986  17.558  10.445  0.00  0.00    -0.327 OA
HETATM   40  H   UNK N   1      36.855  17.769  10.725  0.00  0.00     0.221 HD
ENDBRANCH  37  39
BRANCH  37  41
HETATM   41  O   UNK N   1      33.995  17.413   9.285  0.00  0.00    -0.312 OA
BRANCH  41  42
HETATM   42  C   UNK N   1      34.170  18.203   8.178  0.00  0.00     0.218 C 
BRANCH  42  43
HETATM   43  C   UNK N   1      33.260  17.624   7.176  0.00  0.00    -0.034 A 
HETATM   44  C   UNK N   1      33.697  17.509   5.852  0.00  0.00     0.009 A 
HETATM   45  C   UNK N   1      32.798  17.147   4.852  0.00  0.00     0.001 A 
HETATM   46  C   UNK N   1      31.457  16.916   5.172  0.00  0.00     0.000 A 
HETATM   47  C   UNK N   1      31.020  17.032   6.496  0.00  0.00     0.001 A 
HETATM   48  C   UNK N   1      31.922  17.395   7.500  0.00  0.00     0.009 A 
ENDBRANCH  42  43
ENDBRANCH  41  42
ENDBRANCH  37  41
ENDBRANCH  28  36
ENDBRANCH   1  28
BRANCH   1  49
HETATM   49  O   UNK N   1      38.056  14.835  10.128  0.00  0.00    -0.348 OA
HETATM   50  H   UNK N   1      38.796  14.758   9.557  0.00  0.00     0.219 HD
ENDBRANCH   1  49
TORSDOF 19
ENDMDL
MODEL 6
REMARK VINA RESULT:      -7.3     12.678     16.802
REMARK  19 active torsions:
REMARK  status: ('A' for Active; 'I' for Inactive)
REMARK    1  A    between atoms: C_17  and  C_16 
REMARK    2  A    between atoms: C_26  and  C_16 
REMARK    3  A    between atoms: C_29  and  C_17 
REMARK    4  A    between atoms: C_23  and  C_22 
REMARK    5  A    between atoms: C_29  and  C_22 
REMARK    6  A    between atoms: S_48  and  C_23 
REMARK    7  A    between atoms: C_27  and  C_24 
REMARK    8  A    between atoms: C_32  and  C_24 
REMARK    9  A    between atoms: C_28  and  C_25 
REMARK   10  A    between atoms: O_46  and  C_25 
REMARK   11  A    between atoms: C_29  and  N_35 
REMARK   12  A    between atoms: N_39  and  C_30 
REMARK   13  A    between atoms: O_47  and  C_31 
REMARK   14  A    between atoms: C_33  and  C_32 
REMARK   15  A    between atoms: C_32  and  N_37 
REMARK   16  A    between atoms: C_33  and  O_40 
REMARK   17  A    between atoms: C_34  and  O_41 
REMARK   18  A    between atoms: O_46  and  C_34 
REMARK   19  A    between atoms: S_48  and  O_47 
ROOT
HETATM    1  C   UNK N   1      24.673  15.305   6.391  0.00  0.00     0.135 C 
HETATM    2  N   UNK N   1      24.771  15.068   5.121  0.00  0.00    -0.368 N 
ATOM      3  HN  UNK N   1      23.904  14.941   4.600  1.00  0.00     0.161 HD
ENDROOT
BRANCH   2   4
HETATM    4  C   UNK N   1      26.004  14.969   4.390  0.00  0.00     0.084 C 
BRANCH   4   5
HETATM    5  C   UNK N   1      25.872  13.676   3.600  0.00  0.00     0.029 C 
BRANCH   5   6
HETATM    6  C   UNK N   1      24.496  13.043   3.818  0.00  0.00     0.040 C 
BRANCH   6   7
HETATM    7  C   UNK N   1      23.876  12.842   2.495  0.00  0.00    -0.058 A 
HETATM    8  C   UNK N   1      24.321  13.566   1.381  0.00  0.00     0.007 A 
HETATM    9  C   UNK N   1      23.633  13.472   0.173  0.00  0.00     0.001 A 
HETATM   10  C   UNK N   1      22.502  12.656   0.080  0.00  0.00     0.000 A 
HETATM   11  C   UNK N   1      22.075  11.917   1.187  0.00  0.00     0.001 A 
HETATM   12  C   UNK N   1      22.761  12.013   2.396  0.00  0.00     0.007 A 
ENDBRANCH   6   7
ENDBRANCH   5   6
ENDBRANCH   4   5
BRANCH   4  13
HETATM   13  C   UNK N   1      26.127  16.108   3.374  0.00  0.00     0.042 C 
BRANCH  13  14
HETATM   14  C   UNK N   1      27.409  16.935   3.475  0.00  0.00     0.173 C 
BRANCH  14  15
HETATM   15  S   UNK N   1      27.489  17.953   4.991  0.00  0.00     0.270 S 
HETATM   16  O   UNK N   1      28.530  19.050   4.844  0.00  0.00    -0.198 OA
HETATM   17  O   UNK N   1      27.945  17.210   6.252  0.00  0.00    -0.198 OA
BRANCH  15  18
HETATM   18  O   UNK N   1      26.154  18.884   5.454  0.00  0.00    -0.233 OA
BRANCH  18  19
HETATM   19  C   UNK N   1      25.169  19.109   4.572  0.00  0.00     0.089 A 
HETATM   20  C   UNK N   1      25.349  20.100   3.617  0.00  0.00     0.040 A 
HETATM   21  C   UNK N   1      24.254  20.568   2.898  0.00  0.00     0.039 A 
HETATM   22  C   UNK N   1      22.976  20.025   3.120  0.00  0.00     0.103 A 
HETATM   23  C   UNK N   1      22.828  18.936   3.985  0.00  0.00     0.039 A 
HETATM   24  C   UNK N   1      23.920  18.480   4.711  0.00  0.00     0.040 A 
BRANCH  22  25
HETATM   25  N   UNK N   1      21.836  20.651   2.552  0.00  0.00    -0.116 N 
HETATM   26  O   UNK N   1      20.896  20.912   3.232  0.00  0.00    -0.532 OA
HETATM   27  O   UNK N   1      21.746  20.751   1.360  0.00  0.00    -0.532 OA
ENDBRANCH  22  25
ENDBRANCH  18  19
ENDBRANCH  15  18
ENDBRANCH  14  15
ENDBRANCH  13  14
ENDBRANCH   4  13
ENDBRANCH   2   4
BRANCH   1  28
HETATM   28  C   UNK N   1      23.343  15.096   7.052  0.00  0.00     0.164 C 
BRANCH  28  29
HETATM   29  C   UNK N   1      23.327  13.598   7.404  0.00  0.00     0.072 C 
BRANCH  29  30
HETATM   30  C   UNK N   1      23.267  13.154   8.803  0.00  0.00    -0.056 A 
HETATM   31  C   UNK N   1      24.461  12.766   9.415  0.00  0.00     0.007 A 
HETATM   32  C   UNK N   1      24.445  12.228  10.699  0.00  0.00     0.001 A 
HETATM   33  C   UNK N   1      23.228  12.062  11.366  0.00  0.00     0.000 A 
HETATM   34  C   UNK N   1      22.031  12.439  10.747  0.00  0.00     0.001 A 
HETATM   35  C   UNK N   1      22.047  12.980   9.458  0.00  0.00     0.007 A 
ENDBRANCH  29  30
ENDBRANCH  28  29
BRANCH  28  36
HETATM   36  N   UNK N   1      22.295  15.524   6.144  0.00  0.00    -0.338 N 
HETATM   37  C   UNK N   1      21.277  16.232   6.502  0.00  0.00     0.259 C 
ATOM     38  HN  UNK N   1      22.368  15.249   5.164  1.00  0.00     0.164 HD
BRANCH  37  39
HETATM   39  O   UNK N   1      21.200  16.763   7.737  0.00  0.00    -0.327 OA
HETATM   40  H   UNK N   1      21.463  16.961   8.614  0.00  0.00     0.221 HD
ENDBRANCH  37  39
BRANCH  37  41
HETATM   41  O   UNK N   1      20.236  16.402   5.670  0.00  0.00    -0.312 OA
BRANCH  41  42
HETATM   42  C   UNK N   1      19.720  15.445   4.835  0.00  0.00     0.218 C 
BRANCH  42  43
HETATM   43  C   UNK N   1      20.042  15.934   3.485  0.00  0.00    -0.034 A 
HETATM   44  C   UNK N   1      19.808  17.279   3.179  0.00  0.00     0.009 A 
HETATM   45  C   UNK N   1      19.921  17.722   1.863  0.00  0.00     0.001 A 
HETATM   46  C   UNK N   1      20.251  16.817   0.850  0.00  0.00     0.000 A 
HETATM   47  C   UNK N   1      20.484  15.473   1.156  0.00  0.00     0.001 A 
HETATM   48  C   UNK N   1      20.371  15.028   2.476  0.00  0.00     0.009 A 
ENDBRANCH  42  43
ENDBRANCH  41  42
ENDBRANCH  37  41
ENDBRANCH  28  36
ENDBRANCH   1  28
BRANCH   1  49
HETATM   49  O   UNK N   1      25.759  15.613   7.133  0.00  0.00    -0.348 OA
HETATM   50  H   UNK N   1      26.673  15.408   7.151  0.00  0.00     0.219 HD
ENDBRANCH   1  49
TORSDOF 19
ENDMDL
MODEL 7
REMARK VINA RESULT:      -7.2     15.919     21.452
REMARK  19 active torsions:
REMARK  status: ('A' for Active; 'I' for Inactive)
REMARK    1  A    between atoms: C_17  and  C_16 
REMARK    2  A    between atoms: C_26  and  C_16 
REMARK    3  A    between atoms: C_29  and  C_17 
REMARK    4  A    between atoms: C_23  and  C_22 
REMARK    5  A    between atoms: C_29  and  C_22 
REMARK    6  A    between atoms: S_48  and  C_23 
REMARK    7  A    between atoms: C_27  and  C_24 
REMARK    8  A    between atoms: C_32  and  C_24 
REMARK    9  A    between atoms: C_28  and  C_25 
REMARK   10  A    between atoms: O_46  and  C_25 
REMARK   11  A    between atoms: C_29  and  N_35 
REMARK   12  A    between atoms: N_39  and  C_30 
REMARK   13  A    between atoms: O_47  and  C_31 
REMARK   14  A    between atoms: C_33  and  C_32 
REMARK   15  A    between atoms: C_32  and  N_37 
REMARK   16  A    between atoms: C_33  and  O_40 
REMARK   17  A    between atoms: C_34  and  O_41 
REMARK   18  A    between atoms: O_46  and  C_34 
REMARK   19  A    between atoms: S_48  and  O_47 
ROOT
HETATM    1  C   UNK N   1      36.791  14.276  10.515  0.00  0.00     0.135 C 
HETATM    2  N   UNK N   1      36.826  12.993  10.340  0.00  0.00    -0.368 N 
ATOM      3  HN  UNK N   1      35.967  12.471  10.511  1.00  0.00     0.161 HD
ENDROOT
BRANCH   2   4
HETATM    4  C   UNK N   1      37.982  12.245   9.924  0.00  0.00     0.084 C 
BRANCH   4   5
HETATM    5  C   UNK N   1      37.895  10.947  10.712  0.00  0.00     0.029 C 
BRANCH   5   6
HETATM    6  C   UNK N   1      36.522  10.801  11.371  0.00  0.00     0.040 C 
BRANCH   6   7
HETATM    7  C   UNK N   1      36.731  10.313  12.748  0.00  0.00    -0.058 A 
HETATM    8  C   UNK N   1      35.782   9.485  13.363  0.00  0.00     0.007 A 
HETATM    9  C   UNK N   1      35.922   9.151  14.709  0.00  0.00     0.001 A 
HETATM   10  C   UNK N   1      37.008   9.645  15.437  0.00  0.00     0.000 A 
HETATM   11  C   UNK N   1      37.965  10.451  14.814  0.00  0.00     0.001 A 
HETATM   12  C   UNK N   1      37.824  10.788  13.469  0.00  0.00     0.007 A 
ENDBRANCH   6   7
ENDBRANCH   5   6
ENDBRANCH   4   5
BRANCH   4  13
HETATM   13  C   UNK N   1      37.888  11.879   8.440  0.00  0.00     0.042 C 
BRANCH  13  14
HETATM   14  C   UNK N   1      37.026  10.657   8.124  0.00  0.00     0.173 C 
BRANCH  14  15
HETATM   15  S   UNK N   1      35.308  11.087   7.675  0.00  0.00     0.270 S 
HETATM   16  O   UNK N   1      34.323  10.383   8.594  0.00  0.00    -0.198 OA
HETATM   17  O   UNK N   1      34.865  10.631   6.280  0.00  0.00    -0.198 OA
BRANCH  15  18
HETATM   18  O   UNK N   1      34.765  12.681   7.841  0.00  0.00    -0.233 OA
BRANCH  18  19
HETATM   19  C   UNK N   1      34.415  13.376   6.748  0.00  0.00     0.089 A 
HETATM   20  C   UNK N   1      33.085  13.354   6.349  0.00  0.00     0.040 A 
HETATM   21  C   UNK N   1      32.745  13.795   5.075  0.00  0.00     0.039 A 
HETATM   22  C   UNK N   1      33.735  14.281   4.203  0.00  0.00     0.103 A 
HETATM   23  C   UNK N   1      35.049  14.426   4.662  0.00  0.00     0.039 A 
HETATM   24  C   UNK N   1      35.389  13.972   5.930  0.00  0.00     0.040 A 
BRANCH  22  25
HETATM   25  N   UNK N   1      33.420  14.519   2.841  0.00  0.00    -0.116 N 
HETATM   26  O   UNK N   1      32.932  13.658   2.181  0.00  0.00    -0.532 OA
HETATM   27  O   UNK N   1      33.810  15.520   2.307  0.00  0.00    -0.532 OA
ENDBRANCH  22  25
ENDBRANCH  18  19
ENDBRANCH  15  18
ENDBRANCH  14  15
ENDBRANCH  13  14
ENDBRANCH   4  13
ENDBRANCH   2   4
BRANCH   1  28
HETATM   28  C   UNK N   1      35.603  14.863  11.218  0.00  0.00     0.164 C 
BRANCH  28  29
HETATM   29  C   UNK N   1      35.046  13.699  12.056  0.00  0.00     0.072 C 
BRANCH  29  30
HETATM   30  C   UNK N   1      35.316  13.613  13.499  0.00  0.00    -0.056 A 
HETATM   31  C   UNK N   1      36.444  14.273  13.990  0.00  0.00     0.007 A 
HETATM   32  C   UNK N   1      36.811  14.129  15.326  0.00  0.00     0.001 A 
HETATM   33  C   UNK N   1      36.054  13.309  16.168  0.00  0.00     0.000 A 
HETATM   34  C   UNK N   1      34.931  12.638  15.671  0.00  0.00     0.001 A 
HETATM   35  C   UNK N   1      34.563  12.783  14.330  0.00  0.00     0.007 A 
ENDBRANCH  29  30
ENDBRANCH  28  29
BRANCH  28  36
HETATM   36  N   UNK N   1      34.688  15.398  10.228  0.00  0.00    -0.338 N 
HETATM   37  C   UNK N   1      34.701  16.624   9.823  0.00  0.00     0.259 C 
ATOM     38  HN  UNK N   1      33.993  14.768   9.827  1.00  0.00     0.164 HD
BRANCH  37  39
HETATM   39  O   UNK N   1      35.687  17.465  10.187  0.00  0.00    -0.327 OA
HETATM   40  H   UNK N   1      36.346  18.124  10.090  0.00  0.00     0.221 HD
ENDBRANCH  37  39
BRANCH  37  41
HETATM   41  O   UNK N   1      33.693  17.110   9.080  0.00  0.00    -0.312 OA
BRANCH  41  42
HETATM   42  C   UNK N   1      32.646  16.376   8.582  0.00  0.00     0.218 C 
BRANCH  42  43
HETATM   43  C   UNK N   1      32.437  16.921   7.230  0.00  0.00    -0.034 A 
HETATM   44  C   UNK N   1      31.170  16.814   6.646  0.00  0.00     0.009 A 
HETATM   45  C   UNK N   1      30.993  17.143   5.305  0.00  0.00     0.001 A 
HETATM   46  C   UNK N   1      32.086  17.563   4.541  0.00  0.00     0.000 A 
HETATM   47  C   UNK N   1      33.353  17.669   5.125  0.00  0.00     0.001 A 
HETATM   48  C   UNK N   1      33.531  17.340   6.471  0.00  0.00     0.009 A 
ENDBRANCH  42  43
ENDBRANCH  41  42
ENDBRANCH  37  41
ENDBRANCH  28  36
ENDBRANCH   1  28
BRANCH   1  49
HETATM   49  O   UNK N   1      37.843  15.058  10.189  0.00  0.00    -0.348 OA
HETATM   50  H   UNK N   1      38.432  15.649  10.614  0.00  0.00     0.219 HD
ENDBRANCH   1  49
TORSDOF 19
ENDMDL
MODEL 8
REMARK VINA RESULT:      -7.2     15.331     20.834
REMARK  19 active torsions:
REMARK  status: ('A' for Active; 'I' for Inactive)
REMARK    1  A    between atoms: C_17  and  C_16 
REMARK    2  A    between atoms: C_26  and  C_16 
REMARK    3  A    between atoms: C_29  and  C_17 
REMARK    4  A    between atoms: C_23  and  C_22 
REMARK    5  A    between atoms: C_29  and  C_22 
REMARK    6  A    between atoms: S_48  and  C_23 
REMARK    7  A    between atoms: C_27  and  C_24 
REMARK    8  A    between atoms: C_32  and  C_24 
REMARK    9  A    between atoms: C_28  and  C_25 
REMARK   10  A    between atoms: O_46  and  C_25 
REMARK   11  A    between atoms: C_29  and  N_35 
REMARK   12  A    between atoms: N_39  and  C_30 
REMARK   13  A    between atoms: O_47  and  C_31 
REMARK   14  A    between atoms: C_33  and  C_32 
REMARK   15  A    between atoms: C_32  and  N_37 
REMARK   16  A    between atoms: C_33  and  O_40 
REMARK   17  A    between atoms: C_34  and  O_41 
REMARK   18  A    between atoms: O_46  and  C_34 
REMARK   19  A    between atoms: S_48  and  O_47 
ROOT
HETATM    1  C   UNK N   1      36.743  14.443  10.320  0.00  0.00     0.135 C 
HETATM    2  N   UNK N   1      36.594  13.253   9.830  0.00  0.00    -0.368 N 
ATOM      3  HN  UNK N   1      35.644  12.890   9.758  1.00  0.00     0.161 HD
ENDROOT
BRANCH   2   4
HETATM    4  C   UNK N   1      37.664  12.403   9.380  0.00  0.00     0.084 C 
BRANCH   4   5
HETATM    5  C   UNK N   1      37.492  11.123  10.184  0.00  0.00     0.029 C 
BRANCH   5   6
HETATM    6  C   UNK N   1      37.929  11.328  11.635  0.00  0.00     0.040 C 
BRANCH   6   7
HETATM    7  C   UNK N   1      37.128  10.424  12.481  0.00  0.00    -0.058 A 
HETATM    8  C   UNK N   1      35.899   9.925  12.028  0.00  0.00     0.007 A 
HETATM    9  C   UNK N   1      35.088   9.190  12.891  0.00  0.00     0.001 A 
HETATM   10  C   UNK N   1      35.506   8.955  14.204  0.00  0.00     0.000 A 
HETATM   11  C   UNK N   1      36.743   9.434  14.645  0.00  0.00     0.001 A 
HETATM   12  C   UNK N   1      37.553  10.171  13.783  0.00  0.00     0.007 A 
ENDBRANCH   6   7
ENDBRANCH   5   6
ENDBRANCH   4   5
BRANCH   4  13
HETATM   13  C   UNK N   1      37.483  12.037   7.904  0.00  0.00     0.042 C 
BRANCH  13  14
HETATM   14  C   UNK N   1      37.590  13.207   6.925  0.00  0.00     0.173 C 
BRANCH  14  15
HETATM   15  S   UNK N   1      35.964  13.832   6.372  0.00  0.00     0.270 S 
HETATM   16  O   UNK N   1      36.122  15.145   5.625  0.00  0.00    -0.198 OA
HETATM   17  O   UNK N   1      34.986  14.188   7.497  0.00  0.00    -0.198 OA
BRANCH  15  18
HETATM   18  O   UNK N   1      35.068  12.960   5.232  0.00  0.00    -0.233 OA
BRANCH  18  19
HETATM   19  C   UNK N   1      33.956  13.502   4.712  0.00  0.00     0.089 A 
HETATM   20  C   UNK N   1      32.777  13.416   5.438  0.00  0.00     0.040 A 
HETATM   21  C   UNK N   1      31.564  13.682   4.811  0.00  0.00     0.039 A 
HETATM   22  C   UNK N   1      31.533  14.058   3.457  0.00  0.00     0.103 A 
HETATM   23  C   UNK N   1      32.734  14.274   2.772  0.00  0.00     0.039 A 
HETATM   24  C   UNK N   1      33.942  13.994   3.396  0.00  0.00     0.040 A 
BRANCH  22  25
HETATM   25  N   UNK N   1      30.294  14.112   2.768  0.00  0.00    -0.116 N 
HETATM   26  O   UNK N   1      30.019  13.277   1.967  0.00  0.00    -0.532 OA
HETATM   27  O   UNK N   1      29.606  15.090   2.859  0.00  0.00    -0.532 OA
ENDBRANCH  22  25
ENDBRANCH  18  19
ENDBRANCH  15  18
ENDBRANCH  14  15
ENDBRANCH  13  14
ENDBRANCH   4  13
ENDBRANCH   2   4
BRANCH   1  28
HETATM   28  C   UNK N   1      35.569  15.081  11.001  0.00  0.00     0.164 C 
BRANCH  28  29
HETATM   29  C   UNK N   1      34.943  13.940  11.823  0.00  0.00     0.072 C 
BRANCH  29  30
HETATM   30  C   UNK N   1      35.403  13.655  13.189  0.00  0.00    -0.056 A 
HETATM   31  C   UNK N   1      34.668  12.739  13.945  0.00  0.00     0.007 A 
HETATM   32  C   UNK N   1      34.990  12.519  15.282  0.00  0.00     0.001 A 
HETATM   33  C   UNK N   1      36.041  13.230  15.867  0.00  0.00     0.000 A 
HETATM   34  C   UNK N   1      36.769  14.157  15.112  0.00  0.00     0.001 A 
HETATM   35  C   UNK N   1      36.445  14.378  13.771  0.00  0.00     0.007 A 
ENDBRANCH  29  30
ENDBRANCH  28  29
BRANCH  28  36
HETATM   36  N   UNK N   1      34.700  15.661   9.995  0.00  0.00    -0.338 N 
HETATM   37  C   UNK N   1      34.687  16.915   9.690  0.00  0.00     0.259 C 
ATOM     38  HN  UNK N   1      34.061  15.039   9.497  1.00  0.00     0.164 HD
BRANCH  37  39
HETATM   39  O   UNK N   1      35.609  17.760  10.189  0.00  0.00    -0.327 OA
HETATM   40  H   UNK N   1      35.974  18.408  10.759  0.00  0.00     0.221 HD
ENDBRANCH  37  39
BRANCH  37  41
HETATM   41  O   UNK N   1      33.710  17.422   8.919  0.00  0.00    -0.312 OA
BRANCH  41  42
HETATM   42  C   UNK N   1      32.563  16.766   8.555  0.00  0.00     0.218 C 
BRANCH  42  43
HETATM   43  C   UNK N   1      32.354  17.159   7.152  0.00  0.00    -0.034 A 
HETATM   44  C   UNK N   1      31.059  17.118   6.624  0.00  0.00     0.009 A 
HETATM   45  C   UNK N   1      30.860  17.297   5.257  0.00  0.00     0.001 A 
HETATM   46  C   UNK N   1      31.957  17.500   4.415  0.00  0.00     0.000 A 
HETATM   47  C   UNK N   1      33.251  17.539   4.943  0.00  0.00     0.001 A 
HETATM   48  C   UNK N   1      33.452  17.360   6.314  0.00  0.00     0.009 A 
ENDBRANCH  42  43
ENDBRANCH  41  42
ENDBRANCH  37  41
ENDBRANCH  28  36
ENDBRANCH   1  28
BRANCH   1  49
HETATM   49  O   UNK N   1      37.949  15.051  10.332  0.00  0.00    -0.348 OA
HETATM   50  H   UNK N   1      38.771  14.981   9.887  0.00  0.00     0.219 HD
ENDBRANCH   1  49
TORSDOF 19
ENDMDL
MODEL 9
REMARK VINA RESULT:      -7.1     13.743     17.491
REMARK  19 active torsions:
REMARK  status: ('A' for Active; 'I' for Inactive)
REMARK    1  A    between atoms: C_17  and  C_16 
REMARK    2  A    between atoms: C_26  and  C_16 
REMARK    3  A    between atoms: C_29  and  C_17 
REMARK    4  A    between atoms: C_23  and  C_22 
REMARK    5  A    between atoms: C_29  and  C_22 
REMARK    6  A    between atoms: S_48  and  C_23 
REMARK    7  A    between atoms: C_27  and  C_24 
REMARK    8  A    between atoms: C_32  and  C_24 
REMARK    9  A    between atoms: C_28  and  C_25 
REMARK   10  A    between atoms: O_46  and  C_25 
REMARK   11  A    between atoms: C_29  and  N_35 
REMARK   12  A    between atoms: N_39  and  C_30 
REMARK   13  A    between atoms: O_47  and  C_31 
REMARK   14  A    between atoms: C_33  and  C_32 
REMARK   15  A    between atoms: C_32  and  N_37 
REMARK   16  A    between atoms: C_33  and  O_40 
REMARK   17  A    between atoms: C_34  and  O_41 
REMARK   18  A    between atoms: O_46  and  C_34 
REMARK   19  A    between atoms: S_48  and  O_47 
ROOT
HETATM    1  C   UNK N   1      19.216  15.165   5.638  0.00  0.00     0.135 C 
HETATM    2  N   UNK N   1      20.107  15.526   6.506  0.00  0.00    -0.368 N 
ATOM      3  HN  UNK N   1      21.041  15.126   6.415  1.00  0.00     0.161 HD
ENDROOT
BRANCH   2   4
HETATM    4  C   UNK N   1      19.884  16.446   7.588  0.00  0.00     0.084 C 
BRANCH   4   5
HETATM    5  C   UNK N   1      20.730  15.901   8.728  0.00  0.00     0.029 C 
BRANCH   5   6
HETATM    6  C   UNK N   1      20.073  14.669   9.353  0.00  0.00     0.040 C 
BRANCH   6   7
HETATM    7  C   UNK N   1      21.131  13.673   9.609  0.00  0.00    -0.058 A 
HETATM    8  C   UNK N   1      20.998  12.744  10.650  0.00  0.00     0.007 A 
HETATM    9  C   UNK N   1      22.065  11.906  10.971  0.00  0.00     0.001 A 
HETATM   10  C   UNK N   1      23.261  11.999  10.253  0.00  0.00     0.000 A 
HETATM   11  C   UNK N   1      23.381  12.911   9.200  0.00  0.00     0.001 A 
HETATM   12  C   UNK N   1      22.315  13.751   8.881  0.00  0.00     0.007 A 
ENDBRANCH   6   7
ENDBRANCH   5   6
ENDBRANCH   4   5
BRANCH   4  13
HETATM   13  C   UNK N   1      20.431  17.834   7.243  0.00  0.00     0.042 C 
BRANCH  13  14
HETATM   14  C   UNK N   1      21.654  17.842   6.324  0.00  0.00     0.173 C 
BRANCH  14  15
HETATM   15  S   UNK N   1      21.260  18.330   4.608  0.00  0.00     0.270 S 
HETATM   16  O   UNK N   1      20.835  19.788   4.552  0.00  0.00    -0.198 OA
HETATM   17  O   UNK N   1      20.069  17.598   3.979  0.00  0.00    -0.198 OA
BRANCH  15  18
HETATM   18  O   UNK N   1      22.477  18.341   3.433  0.00  0.00    -0.233 OA
BRANCH  18  19
HETATM   19  C   UNK N   1      23.748  18.117   3.797  0.00  0.00     0.089 A 
HETATM   20  C   UNK N   1      24.597  19.205   3.941  0.00  0.00     0.040 A 
HETATM   21  C   UNK N   1      25.971  19.000   4.011  0.00  0.00     0.039 A 
HETATM   22  C   UNK N   1      26.497  17.697   3.959  0.00  0.00     0.103 A 
HETATM   23  C   UNK N   1      25.628  16.600   3.951  0.00  0.00     0.039 A 
HETATM   24  C   UNK N   1      24.258  16.809   3.867  0.00  0.00     0.040 A 
BRANCH  22  25
HETATM   25  N   UNK N   1      27.895  17.506   3.808  0.00  0.00    -0.116 N 
HETATM   26  O   UNK N   1      28.308  16.590   3.171  0.00  0.00    -0.532 OA
HETATM   27  O   UNK N   1      28.657  18.156   4.467  0.00  0.00    -0.532 OA
ENDBRANCH  22  25
ENDBRANCH  18  19
ENDBRANCH  15  18
ENDBRANCH  14  15
ENDBRANCH  13  14
ENDBRANCH   4  13
ENDBRANCH   2   4
BRANCH   1  28
HETATM   28  C   UNK N   1      19.522  13.992   4.754  0.00  0.00     0.164 C 
BRANCH  28  29
HETATM   29  C   UNK N   1      20.459  13.114   5.601  0.00  0.00     0.072 C 
BRANCH  29  30
HETATM   30  C   UNK N   1      21.788  12.731   5.104  0.00  0.00    -0.056 A 
HETATM   31  C   UNK N   1      21.920  11.482   4.494  0.00  0.00     0.007 A 
HETATM   32  C   UNK N   1      23.177  11.022   4.110  0.00  0.00     0.001 A 
HETATM   33  C   UNK N   1      24.306  11.807   4.351  0.00  0.00     0.000 A 
HETATM   34  C   UNK N   1      24.174  13.054   4.975  0.00  0.00     0.001 A 
HETATM   35  C   UNK N   1      22.913  13.516   5.360  0.00  0.00     0.007 A 
ENDBRANCH  29  30
ENDBRANCH  28  29
BRANCH  28  36
HETATM   36  N   UNK N   1      20.094  14.477   3.511  0.00  0.00    -0.338 N 
HETATM   37  C   UNK N   1      19.576  14.264   2.348  0.00  0.00     0.259 C 
ATOM     38  HN  UNK N   1      20.956  15.020   3.560  1.00  0.00     0.164 HD
BRANCH  37  39
HETATM   39  O   UNK N   1      18.361  13.696   2.223  0.00  0.00    -0.327 OA
HETATM   40  H   UNK N   1      17.568  13.274   2.490  0.00  0.00     0.221 HD
ENDBRANCH  37  39
BRANCH  37  41
HETATM   41  O   UNK N   1      20.267  14.542   1.230  0.00  0.00    -0.312 OA
BRANCH  41  42
HETATM   42  C   UNK N   1      21.456  15.221   1.178  0.00  0.00     0.218 C 
BRANCH  42  43
HETATM   43  C   UNK N   1      22.453  14.180   0.879  0.00  0.00    -0.034 A 
HETATM   44  C   UNK N   1      22.013  12.935   0.419  0.00  0.00     0.009 A 
HETATM   45  C   UNK N   1      22.911  11.876   0.313  0.00  0.00     0.001 A 
HETATM   46  C   UNK N   1      24.247  12.057   0.683  0.00  0.00     0.000 A 
HETATM   47  C   UNK N   1      24.687  13.302   1.144  0.00  0.00     0.001 A 
HETATM   48  C   UNK N   1      23.786  14.365   1.250  0.00  0.00     0.009 A 
ENDBRANCH  42  43
ENDBRANCH  41  42
ENDBRANCH  37  41
ENDBRANCH  28  36
ENDBRANCH   1  28
BRANCH   1  49
HETATM   49  O   UNK N   1      17.995  15.741   5.604  0.00  0.00    -0.348 OA
HETATM   50  H   UNK N   1      17.226  15.716   5.069  0.00  0.00     0.219 HD
ENDBRANCH   1  49
TORSDOF 19
ENDMDL
