MODEL 1
REMARK VINA RESULT:      -8.4      0.000      0.000
REMARK  18 active torsions:
REMARK  status: ('A' for Active; 'I' for Inactive)
REMARK    1  A    between atoms: C_22  and  C_17 
REMARK    2  A    between atoms: C_26  and  C_17 
REMARK    3  A    between atoms: C_21  and  C_19 
REMARK    4  A    between atoms: N_35  and  C_19 
REMARK    5  A    between atoms: N_31  and  C_20 
REMARK    6  A    between atoms: O_36  and  C_20 
REMARK    7  A    between atoms: C_24  and  C_23 
REMARK    8  A    between atoms: C_25  and  N_33 
REMARK    9  A    between atoms: C_29  and  C_26 
REMARK   10  A    between atoms: C_26  and  N_31 
REMARK   11  A    between atoms: P_45  and  C_27 
REMARK   12  A    between atoms: P_46  and  C_28 
REMARK   13  A    between atoms: N_33  and  C_29 
REMARK   14  A    between atoms: C_29  and  O_37 
REMARK   15  A    between atoms: P_45  and  O_39 
REMARK   16  A    between atoms: P_45  and  O_40 
REMARK   17  A    between atoms: P_46  and  O_42 
REMARK   18  A    between atoms: P_46  and  O_43 
ROOT
HETATM    1  C   UNK N   1      26.112  18.403   4.925  0.00  0.00     0.162 C 
ENDROOT
BRANCH   1   2
HETATM    2  C   UNK N   1      25.005  17.376   5.301  0.00  0.00     0.072 C 
BRANCH   2   3
HETATM    3  C   UNK N   1      23.662  17.483   4.610  0.00  0.00    -0.055 A 
HETATM    4  C   UNK N   1      22.913  16.337   4.319  0.00  0.00     0.008 A 
HETATM    5  C   UNK N   1      21.771  16.433   3.506  0.00  0.00     0.021 A 
HETATM    6  C   UNK N   1      21.386  17.671   2.962  0.00  0.00     0.068 A 
HETATM    7  C   UNK N   1      22.126  18.828   3.293  0.00  0.00     0.068 A 
HETATM    8  C   UNK N   1      23.237  18.705   4.105  0.00  0.00     0.027 A 
BRANCH   6   9
HETATM    9  P   UNK N   1      20.007  17.705   1.747  0.00  0.00     0.272 P 
HETATM   10  O   UNK N   1      19.431  16.291   1.469  0.00  0.00    -0.650 OA
BRANCH   9  11
HETATM   11  O   UNK N   1      18.653  18.638   2.305  0.00  0.00    -0.326 OA
HETATM   12  H   UNK N   1      17.721  18.407   2.442  0.00  0.00     0.220 HD
ENDBRANCH   9  11
BRANCH   9  13
HETATM   13  O   UNK N   1      20.420  18.333   0.183  0.00  0.00    -0.326 OA
HETATM   14  H   UNK N   1      19.727  18.509  -0.472  0.00  0.00     0.220 HD
ENDBRANCH   9  13
ENDBRANCH   6   9
BRANCH   7  15
HETATM   15  P   UNK N   1      21.812  20.521   2.653  0.00  0.00     0.272 P 
HETATM   16  O   UNK N   1      23.037  21.418   2.976  0.00  0.00    -0.650 OA
BRANCH  15  17
HETATM   17  O   UNK N   1      21.765  20.541   0.918  0.00  0.00    -0.326 OA
HETATM   18  H   UNK N   1      21.122  20.521   0.192  0.00  0.00     0.220 HD
ENDBRANCH  15  17
BRANCH  15  19
HETATM   19  O   UNK N   1      20.447  21.437   3.205  0.00  0.00    -0.326 OA
HETATM   20  H   UNK N   1      19.619  21.043   3.518  0.00  0.00     0.220 HD
ENDBRANCH  15  19
ENDBRANCH   7  15
ENDBRANCH   2   3
ENDBRANCH   1   2
BRANCH   1  21
HETATM   21  C   UNK N   1      26.941  17.778   3.853  0.00  0.00     0.135 C 
BRANCH  21  22
HETATM   22  N   UNK N   1      26.426  16.834   3.134  0.00  0.00    -0.359 N 
ATOM     23  HN  UNK N   1      25.436  16.890   2.891  1.00  0.00     0.162 HD
BRANCH  22  24
HETATM   24  C   UNK N   1      27.195  15.703   2.661  0.00  0.00     0.175 C 
HETATM   25  C   UNK N   1      26.497  15.147   1.417  0.00  0.00     0.035 C 
HETATM   26  C   UNK N   1      25.095  14.674   1.740  0.00  0.00     0.004 C 
HETATM   27  C   UNK N   1      25.116  13.203   2.102  0.00  0.00     0.020 C 
HETATM   28  C   UNK N   1      26.398  12.736   2.812  0.00  0.00     0.126 C 
HETATM   29  N   UNK N   1      26.785  13.527   3.986  0.00  0.00    -0.346 N 
HETATM   30  C   UNK N   1      27.296  14.782   3.886  0.00  0.00     0.242 C 
HETATM   31  O   UNK N   1      27.813  15.256   4.895  0.00  0.00    -0.271 OA
BRANCH  29  32
HETATM   32  C   UNK N   1      26.686  12.955   5.331  0.00  0.00     0.164 C 
BRANCH  32  33
HETATM   33  C   UNK N   1      25.269  12.903   5.777  0.00  0.00    -0.040 C 
HETATM   34  C   UNK N   1      24.709  11.661   6.116  0.00  0.00     0.009 C 
HETATM   35  C   UNK N   1      23.864  11.579   7.220  0.00  0.00     0.013 C 
HETATM   36  C   UNK N   1      23.563  12.745   7.940  0.00  0.00    -0.026 C 
HETATM   37  C   UNK N   1      23.926  13.994   7.423  0.00  0.00     0.013 C 
HETATM   38  C   UNK N   1      24.796  14.067   6.355  0.00  0.00     0.009 C 
BRANCH  36  39
HETATM   39  C   UNK N   1      23.333  12.667   9.396  0.00  0.00    -0.026 A 
HETATM   40  C   UNK N   1      24.414  12.367  10.244  0.00  0.00     0.012 A 
HETATM   41  C   UNK N   1      24.199  11.995  11.568  0.00  0.00     0.001 A 
HETATM   42  C   UNK N   1      22.897  11.894  12.059  0.00  0.00     0.000 A 
HETATM   43  C   UNK N   1      21.811  12.188  11.229  0.00  0.00     0.001 A 
HETATM   44  C   UNK N   1      22.026  12.563   9.900  0.00  0.00     0.012 A 
ENDBRANCH  36  39
ENDBRANCH  32  33
ENDBRANCH  29  32
ENDBRANCH  22  24
ENDBRANCH  21  22
BRANCH  21  45
HETATM   45  O   UNK N   1      28.243  18.117   3.729  0.00  0.00    -0.348 OA
HETATM   46  H   UNK N   1      28.886  18.579   3.229  0.00  0.00     0.219 HD
ENDBRANCH  21  45
ENDBRANCH   1  21
BRANCH   1  47
HETATM   47  N   UNK N   1      26.918  18.779   6.070  0.00  0.00    -0.362 N 
ATOM     48  HN  UNK N   1      27.464  18.050   6.529  1.00  0.00     0.162 HD
BRANCH  47  49
HETATM   49  C   UNK N   1      26.994  19.973   6.549  0.00  0.00     0.107 C 
HETATM   50  C   UNK N   1      27.053  21.128   5.614  0.00  0.00     0.097 C 
BRANCH  49  51
HETATM   51  O   UNK N   1      26.979  20.194   7.879  0.00  0.00    -0.350 OA
HETATM   52  H   UNK N   1      27.693  19.957   8.438  0.00  0.00     0.219 HD
ENDBRANCH  49  51
ENDBRANCH  47  49
ENDBRANCH   1  47
TORSDOF 18
ENDMDL
MODEL 2
REMARK VINA RESULT:      -8.3      9.292     11.125
REMARK  18 active torsions:
REMARK  status: ('A' for Active; 'I' for Inactive)
REMARK    1  A    between atoms: C_22  and  C_17 
REMARK    2  A    between atoms: C_26  and  C_17 
REMARK    3  A    between atoms: C_21  and  C_19 
REMARK    4  A    between atoms: N_35  and  C_19 
REMARK    5  A    between atoms: N_31  and  C_20 
REMARK    6  A    between atoms: O_36  and  C_20 
REMARK    7  A    between atoms: C_24  and  C_23 
REMARK    8  A    between atoms: C_25  and  N_33 
REMARK    9  A    between atoms: C_29  and  C_26 
REMARK   10  A    between atoms: C_26  and  N_31 
REMARK   11  A    between atoms: P_45  and  C_27 
REMARK   12  A    between atoms: P_46  and  C_28 
REMARK   13  A    between atoms: N_33  and  C_29 
REMARK   14  A    between atoms: C_29  and  O_37 
REMARK   15  A    between atoms: P_45  and  O_39 
REMARK   16  A    between atoms: P_45  and  O_40 
REMARK   17  A    between atoms: P_46  and  O_42 
REMARK   18  A    between atoms: P_46  and  O_43 
ROOT
HETATM    1  C   UNK N   1      32.740  16.212   8.816  0.00  0.00     0.162 C 
ENDROOT
BRANCH   1   2
HETATM    2  C   UNK N   1      31.236  16.451   9.135  0.00  0.00     0.072 C 
BRANCH   2   3
HETATM    3  C   UNK N   1      30.387  17.159   8.100  0.00  0.00    -0.055 A 
HETATM    4  C   UNK N   1      29.529  18.202   8.469  0.00  0.00     0.008 A 
HETATM    5  C   UNK N   1      28.607  18.713   7.541  0.00  0.00     0.021 A 
HETATM    6  C   UNK N   1      28.522  18.169   6.248  0.00  0.00     0.068 A 
HETATM    7  C   UNK N   1      29.418  17.144   5.873  0.00  0.00     0.068 A 
HETATM    8  C   UNK N   1      30.323  16.669   6.803  0.00  0.00     0.027 A 
BRANCH   6   9
HETATM    9  P   UNK N   1      27.167  18.738   5.144  0.00  0.00     0.272 P 
HETATM   10  O   UNK N   1      26.234  17.578   4.708  0.00  0.00    -0.650 OA
BRANCH   9  11
HETATM   11  O   UNK N   1      26.120  19.889   5.916  0.00  0.00    -0.326 OA
HETATM   12  H   UNK N   1      26.250  20.469   6.683  0.00  0.00     0.220 HD
ENDBRANCH   9  11
BRANCH   9  13
HETATM   13  O   UNK N   1      27.687  19.472   3.660  0.00  0.00    -0.326 OA
HETATM   14  H   UNK N   1      27.047  19.923   3.086  0.00  0.00     0.220 HD
ENDBRANCH   9  13
ENDBRANCH   6   9
BRANCH   7  15
HETATM   15  P   UNK N   1      29.437  16.277   4.252  0.00  0.00     0.272 P 
HETATM   16  O   UNK N   1      30.613  15.263   4.237  0.00  0.00    -0.650 OA
BRANCH  15  17
HETATM   17  O   UNK N   1      28.044  15.259   4.065  0.00  0.00    -0.326 OA
HETATM   18  H   UNK N   1      27.496  14.872   3.366  0.00  0.00     0.220 HD
ENDBRANCH  15  17
BRANCH  15  19
HETATM   19  O   UNK N   1      29.615  17.166   2.775  0.00  0.00    -0.326 OA
HETATM   20  H   UNK N   1      30.003  16.801   1.964  0.00  0.00     0.220 HD
ENDBRANCH  15  19
ENDBRANCH   7  15
ENDBRANCH   2   3
ENDBRANCH   1   2
BRANCH   1  21
HETATM   21  C   UNK N   1      33.201  15.099   9.698  0.00  0.00     0.135 C 
BRANCH  21  22
HETATM   22  N   UNK N   1      34.033  14.230   9.225  0.00  0.00    -0.359 N 
ATOM     23  HN  UNK N   1      33.673  13.328   8.910  1.00  0.00     0.162 HD
BRANCH  22  24
HETATM   24  C   UNK N   1      35.455  14.483   9.123  0.00  0.00     0.175 C 
HETATM   25  C   UNK N   1      36.080  13.338   8.323  0.00  0.00     0.035 C 
HETATM   26  C   UNK N   1      35.878  12.007   9.019  0.00  0.00     0.004 C 
HETATM   27  C   UNK N   1      37.056  11.712   9.923  0.00  0.00     0.020 C 
HETATM   28  C   UNK N   1      37.709  12.954  10.553  0.00  0.00     0.126 C 
HETATM   29  N   UNK N   1      36.786  13.861  11.245  0.00  0.00    -0.346 N 
HETATM   30  C   UNK N   1      35.907  14.658  10.581  0.00  0.00     0.242 C 
HETATM   31  O   UNK N   1      35.361  15.548  11.228  0.00  0.00    -0.271 OA
BRANCH  29  32
HETATM   32  C   UNK N   1      36.822  13.985  12.704  0.00  0.00     0.164 C 
BRANCH  32  33
HETATM   33  C   UNK N   1      36.312  12.746  13.349  0.00  0.00    -0.040 C 
HETATM   34  C   UNK N   1      37.223  11.889  13.987  0.00  0.00     0.009 C 
HETATM   35  C   UNK N   1      36.863  11.299  15.196  0.00  0.00     0.013 C 
HETATM   36  C   UNK N   1      35.587  11.544  15.724  0.00  0.00    -0.026 C 
HETATM   37  C   UNK N   1      34.622  12.186  14.940  0.00  0.00     0.013 C 
HETATM   38  C   UNK N   1      34.994  12.804  13.765  0.00  0.00     0.009 C 
BRANCH  36  39
HETATM   39  C   UNK N   1      35.398  11.592  17.187  0.00  0.00    -0.026 A 
HETATM   40  C   UNK N   1      35.079  12.820  17.794  0.00  0.00     0.012 A 
HETATM   41  C   UNK N   1      35.181  12.980  19.174  0.00  0.00     0.001 A 
HETATM   42  C   UNK N   1      35.626  11.921  19.965  0.00  0.00     0.000 A 
HETATM   43  C   UNK N   1      35.947  10.694  19.377  0.00  0.00     0.001 A 
HETATM   44  C   UNK N   1      35.844  10.532  17.993  0.00  0.00     0.012 A 
ENDBRANCH  36  39
ENDBRANCH  32  33
ENDBRANCH  29  32
ENDBRANCH  22  24
ENDBRANCH  21  22
BRANCH  21  45
HETATM   45  O   UNK N   1      32.653  14.945  10.924  0.00  0.00    -0.348 OA
HETATM   46  H   UNK N   1      31.900  14.685  11.415  0.00  0.00     0.219 HD
ENDBRANCH  21  45
ENDBRANCH   1  21
BRANCH   1  47
HETATM   47  N   UNK N   1      33.536  17.408   9.008  0.00  0.00    -0.362 N 
ATOM     48  HN  UNK N   1      33.600  17.790   9.952  1.00  0.00     0.162 HD
BRANCH  47  49
HETATM   49  C   UNK N   1      34.170  18.022   8.070  0.00  0.00     0.107 C 
HETATM   50  C   UNK N   1      33.974  17.592   6.660  0.00  0.00     0.097 C 
BRANCH  49  51
HETATM   51  O   UNK N   1      34.972  19.071   8.341  0.00  0.00    -0.350 OA
HETATM   52  H   UNK N   1      35.799  18.976   8.770  0.00  0.00     0.219 HD
ENDBRANCH  49  51
ENDBRANCH  47  49
ENDBRANCH   1  47
TORSDOF 18
ENDMDL
MODEL 3
REMARK VINA RESULT:      -8.2      9.165     10.999
REMARK  18 active torsions:
REMARK  status: ('A' for Active; 'I' for Inactive)
REMARK    1  A    between atoms: C_22  and  C_17 
REMARK    2  A    between atoms: C_26  and  C_17 
REMARK    3  A    between atoms: C_21  and  C_19 
REMARK    4  A    between atoms: N_35  and  C_19 
REMARK    5  A    between atoms: N_31  and  C_20 
REMARK    6  A    between atoms: O_36  and  C_20 
REMARK    7  A    between atoms: C_24  and  C_23 
REMARK    8  A    between atoms: C_25  and  N_33 
REMARK    9  A    between atoms: C_29  and  C_26 
REMARK   10  A    between atoms: C_26  and  N_31 
REMARK   11  A    between atoms: P_45  and  C_27 
REMARK   12  A    between atoms: P_46  and  C_28 
REMARK   13  A    between atoms: N_33  and  C_29 
REMARK   14  A    between atoms: C_29  and  O_37 
REMARK   15  A    between atoms: P_45  and  O_39 
REMARK   16  A    between atoms: P_45  and  O_40 
REMARK   17  A    between atoms: P_46  and  O_42 
REMARK   18  A    between atoms: P_46  and  O_43 
ROOT
HETATM    1  C   UNK N   1      34.451  16.393   8.121  0.00  0.00     0.162 C 
ENDROOT
BRANCH   1   2
HETATM    2  C   UNK N   1      33.594  17.365   7.259  0.00  0.00     0.072 C 
BRANCH   2   3
HETATM    3  C   UNK N   1      32.131  17.037   7.048  0.00  0.00    -0.055 A 
HETATM    4  C   UNK N   1      31.691  16.465   5.849  0.00  0.00     0.008 A 
HETATM    5  C   UNK N   1      30.315  16.351   5.591  0.00  0.00     0.021 A 
HETATM    6  C   UNK N   1      29.374  16.828   6.519  0.00  0.00     0.068 A 
HETATM    7  C   UNK N   1      29.827  17.368   7.742  0.00  0.00     0.068 A 
HETATM    8  C   UNK N   1      31.186  17.457   7.975  0.00  0.00     0.027 A 
BRANCH   6   9
HETATM    9  P   UNK N   1      27.598  16.837   6.043  0.00  0.00     0.272 P 
HETATM   10  O   UNK N   1      27.057  18.271   5.805  0.00  0.00    -0.650 OA
BRANCH   9  11
HETATM   11  O   UNK N   1      27.306  15.995   4.553  0.00  0.00    -0.326 OA
HETATM   12  H   UNK N   1      27.570  15.114   4.245  0.00  0.00     0.220 HD
ENDBRANCH   9  11
BRANCH   9  13
HETATM   13  O   UNK N   1      26.520  16.143   7.213  0.00  0.00    -0.326 OA
HETATM   14  H   UNK N   1      25.791  15.571   6.928  0.00  0.00     0.220 HD
ENDBRANCH   9  13
ENDBRANCH   6   9
BRANCH   7  15
HETATM   15  P   UNK N   1      28.763  18.083   9.060  0.00  0.00     0.272 P 
HETATM   16  O   UNK N   1      28.008  16.932   9.777  0.00  0.00    -0.650 OA
BRANCH  15  17
HETATM   17  O   UNK N   1      29.716  18.775  10.334  0.00  0.00    -0.326 OA
HETATM   18  H   UNK N   1      29.662  18.962  11.284  0.00  0.00     0.220 HD
ENDBRANCH  15  17
BRANCH  15  19
HETATM   19  O   UNK N   1      27.527  19.235   8.671  0.00  0.00    -0.326 OA
HETATM   20  H   UNK N   1      26.756  19.038   8.116  0.00  0.00     0.220 HD
ENDBRANCH  15  19
ENDBRANCH   7  15
ENDBRANCH   2   3
ENDBRANCH   1   2
BRANCH   1  21
HETATM   21  C   UNK N   1      35.004  15.360   7.196  0.00  0.00     0.135 C 
BRANCH  21  22
HETATM   22  N   UNK N   1      35.264  14.181   7.659  0.00  0.00    -0.359 N 
ATOM     23  HN  UNK N   1      34.528  13.677   8.155  1.00  0.00     0.162 HD
BRANCH  22  24
HETATM   24  C   UNK N   1      36.556  13.547   7.503  0.00  0.00     0.175 C 
HETATM   25  C   UNK N   1      36.337  12.196   6.817  0.00  0.00     0.035 C 
HETATM   26  C   UNK N   1      35.456  11.292   7.655  0.00  0.00     0.004 C 
HETATM   27  C   UNK N   1      36.311  10.433   8.562  0.00  0.00     0.020 C 
HETATM   28  C   UNK N   1      37.610  11.102   9.043  0.00  0.00     0.126 C 
HETATM   29  N   UNK N   1      37.441  12.426   9.652  0.00  0.00    -0.346 N 
HETATM   30  C   UNK N   1      37.138  13.533   8.925  0.00  0.00     0.242 C 
HETATM   31  O   UNK N   1      37.262  14.620   9.483  0.00  0.00    -0.271 OA
BRANCH  29  32
HETATM   32  C   UNK N   1      37.657  12.614  11.089  0.00  0.00     0.164 C 
BRANCH  32  33
HETATM   33  C   UNK N   1      36.368  12.873  11.784  0.00  0.00    -0.040 C 
HETATM   34  C   UNK N   1      35.398  11.858  11.815  0.00  0.00     0.009 C 
HETATM   35  C   UNK N   1      34.673  11.652  12.985  0.00  0.00     0.013 C 
HETATM   36  C   UNK N   1      34.902  12.487  14.089  0.00  0.00    -0.026 C 
HETATM   37  C   UNK N   1      35.680  13.641  13.938  0.00  0.00     0.013 C 
HETATM   38  C   UNK N   1      36.428  13.818  12.792  0.00  0.00     0.009 C 
BRANCH  36  39
HETATM   39  C   UNK N   1      34.770  11.947  15.456  0.00  0.00    -0.026 A 
HETATM   40  C   UNK N   1      35.095  12.768  16.550  0.00  0.00     0.012 A 
HETATM   41  C   UNK N   1      35.271  12.227  17.821  0.00  0.00     0.001 A 
HETATM   42  C   UNK N   1      35.148  10.850  18.012  0.00  0.00     0.000 A 
HETATM   43  C   UNK N   1      34.825  10.019  16.935  0.00  0.00     0.001 A 
HETATM   44  C   UNK N   1      34.647  10.562  15.660  0.00  0.00     0.012 A 
ENDBRANCH  36  39
ENDBRANCH  32  33
ENDBRANCH  29  32
ENDBRANCH  22  24
ENDBRANCH  21  22
BRANCH  21  45
HETATM   45  O   UNK N   1      35.337  15.703   5.932  0.00  0.00    -0.348 OA
HETATM   46  H   UNK N   1      35.429  15.418   5.045  0.00  0.00     0.219 HD
ENDBRANCH  21  45
ENDBRANCH   1  21
BRANCH   1  47
HETATM   47  N   UNK N   1      33.682  15.792   9.193  0.00  0.00    -0.362 N 
ATOM     48  HN  UNK N   1      32.775  15.388   8.959  1.00  0.00     0.162 HD
BRANCH  47  49
HETATM   49  C   UNK N   1      34.065  15.731  10.422  0.00  0.00     0.107 C 
HETATM   50  C   UNK N   1      35.184  16.597  10.877  0.00  0.00     0.097 C 
BRANCH  49  51
HETATM   51  O   UNK N   1      33.441  14.928  11.308  0.00  0.00    -0.350 OA
HETATM   52  H   UNK N   1      33.123  14.077  11.080  0.00  0.00     0.219 HD
ENDBRANCH  49  51
ENDBRANCH  47  49
ENDBRANCH   1  47
TORSDOF 18
ENDMDL
MODEL 4
REMARK VINA RESULT:      -8.2      3.514      6.571
REMARK  18 active torsions:
REMARK  status: ('A' for Active; 'I' for Inactive)
REMARK    1  A    between atoms: C_22  and  C_17 
REMARK    2  A    between atoms: C_26  and  C_17 
REMARK    3  A    between atoms: C_21  and  C_19 
REMARK    4  A    between atoms: N_35  and  C_19 
REMARK    5  A    between atoms: N_31  and  C_20 
REMARK    6  A    between atoms: O_36  and  C_20 
REMARK    7  A    between atoms: C_24  and  C_23 
REMARK    8  A    between atoms: C_25  and  N_33 
REMARK    9  A    between atoms: C_29  and  C_26 
REMARK   10  A    between atoms: C_26  and  N_31 
REMARK   11  A    between atoms: P_45  and  C_27 
REMARK   12  A    between atoms: P_46  and  C_28 
REMARK   13  A    between atoms: N_33  and  C_29 
REMARK   14  A    between atoms: C_29  and  O_37 
REMARK   15  A    between atoms: P_45  and  O_39 
REMARK   16  A    between atoms: P_45  and  O_40 
REMARK   17  A    between atoms: P_46  and  O_42 
REMARK   18  A    between atoms: P_46  and  O_43 
ROOT
HETATM    1  C   UNK N   1      21.629  15.072   6.629  0.00  0.00     0.162 C 
ENDROOT
BRANCH   1   2
HETATM    2  C   UNK N   1      22.683  15.216   5.493  0.00  0.00     0.072 C 
BRANCH   2   3
HETATM    3  C   UNK N   1      22.648  16.463   4.635  0.00  0.00    -0.055 A 
HETATM    4  C   UNK N   1      23.472  17.556   4.929  0.00  0.00     0.008 A 
HETATM    5  C   UNK N   1      23.289  18.773   4.251  0.00  0.00     0.021 A 
HETATM    6  C   UNK N   1      22.268  18.909   3.294  0.00  0.00     0.068 A 
HETATM    7  C   UNK N   1      21.469  17.789   2.977  0.00  0.00     0.068 A 
HETATM    8  C   UNK N   1      21.679  16.601   3.652  0.00  0.00     0.027 A 
BRANCH   6   9
HETATM    9  P   UNK N   1      21.946  20.574   2.586  0.00  0.00     0.272 P 
HETATM   10  O   UNK N   1      23.074  21.586   2.918  0.00  0.00    -0.650 OA
BRANCH   9  11
HETATM   11  O   UNK N   1      21.859  20.554   0.851  0.00  0.00    -0.326 OA
HETATM   12  H   UNK N   1      22.518  20.757   0.169  0.00  0.00     0.220 HD
ENDBRANCH   9  11
BRANCH   9  13
HETATM   13  O   UNK N   1      20.488  21.337   3.137  0.00  0.00    -0.326 OA
HETATM   14  H   UNK N   1      20.016  21.963   2.565  0.00  0.00     0.220 HD
ENDBRANCH   9  13
ENDBRANCH   6   9
BRANCH   7  15
HETATM   15  P   UNK N   1      20.062  17.775   1.794  0.00  0.00     0.272 P 
HETATM   16  O   UNK N   1      19.503  16.331   1.693  0.00  0.00    -0.650 OA
BRANCH  15  17
HETATM   17  O   UNK N   1      18.711  18.672   2.411  0.00  0.00    -0.326 OA
HETATM   18  H   UNK N   1      18.438  19.589   2.568  0.00  0.00     0.220 HD
ENDBRANCH  15  17
BRANCH  15  19
HETATM   19  O   UNK N   1      20.287  18.268   0.147  0.00  0.00    -0.326 OA
HETATM   20  H   UNK N   1      21.134  18.565  -0.220  0.00  0.00     0.220 HD
ENDBRANCH  15  19
ENDBRANCH   7  15
ENDBRANCH   2   3
ENDBRANCH   1   2
BRANCH   1  21
HETATM   21  C   UNK N   1      20.982  13.738   6.458  0.00  0.00     0.135 C 
BRANCH  21  22
HETATM   22  N   UNK N   1      20.933  13.213   5.277  0.00  0.00    -0.359 N 
ATOM     23  HN  UNK N   1      20.988  13.829   4.465  1.00  0.00     0.162 HD
BRANCH  22  24
HETATM   24  C   UNK N   1      20.806  11.787   5.060  0.00  0.00     0.175 C 
HETATM   25  C   UNK N   1      22.115  11.126   5.497  0.00  0.00     0.035 C 
HETATM   26  C   UNK N   1      23.286  11.634   4.681  0.00  0.00     0.004 C 
HETATM   27  C   UNK N   1      23.505  10.740   3.479  0.00  0.00     0.020 C 
HETATM   28  C   UNK N   1      22.224  10.116   2.901  0.00  0.00     0.126 C 
HETATM   29  N   UNK N   1      21.146  11.066   2.605  0.00  0.00    -0.346 N 
HETATM   30  C   UNK N   1      20.415  11.670   3.578  0.00  0.00     0.242 C 
HETATM   31  O   UNK N   1      19.388  12.248   3.229  0.00  0.00    -0.271 OA
BRANCH  29  32
HETATM   32  C   UNK N   1      20.773  11.357   1.218  0.00  0.00     0.164 C 
BRANCH  32  33
HETATM   33  C   UNK N   1      21.707  12.348   0.621  0.00  0.00    -0.040 C 
HETATM   34  C   UNK N   1      21.624  13.689   1.026  0.00  0.00     0.009 C 
HETATM   35  C   UNK N   1      22.799  14.410   1.222  0.00  0.00     0.013 C 
HETATM   36  C   UNK N   1      24.033  13.791   0.972  0.00  0.00    -0.026 C 
HETATM   37  C   UNK N   1      24.068  12.550   0.325  0.00  0.00     0.013 C 
HETATM   38  C   UNK N   1      22.906  11.823   0.172  0.00  0.00     0.009 C 
BRANCH  36  39
HETATM   39  C   UNK N   1      25.213  14.155   1.780  0.00  0.00    -0.026 A 
HETATM   40  C   UNK N   1      25.428  15.507   2.103  0.00  0.00     0.012 A 
HETATM   41  C   UNK N   1      26.658  15.934   2.598  0.00  0.00     0.001 A 
HETATM   42  C   UNK N   1      27.699  15.019   2.756  0.00  0.00     0.000 A 
HETATM   43  C   UNK N   1      27.501  13.671   2.440  0.00  0.00     0.001 A 
HETATM   44  C   UNK N   1      26.267  13.242   1.944  0.00  0.00     0.012 A 
ENDBRANCH  36  39
ENDBRANCH  32  33
ENDBRANCH  29  32
ENDBRANCH  22  24
ENDBRANCH  21  22
BRANCH  21  45
HETATM   45  O   UNK N   1      20.353  13.159   7.505  0.00  0.00    -0.348 OA
HETATM   46  H   UNK N   1      20.065  13.252   8.391  0.00  0.00     0.219 HD
ENDBRANCH  21  45
ENDBRANCH   1  21
BRANCH   1  47
HETATM   47  N   UNK N   1      20.653  16.144   6.606  0.00  0.00    -0.362 N 
ATOM     48  HN  UNK N   1      19.984  16.163   5.837  1.00  0.00     0.162 HD
BRANCH  47  49
HETATM   49  C   UNK N   1      20.571  17.076   7.493  0.00  0.00     0.107 C 
HETATM   50  C   UNK N   1      20.025  16.753   8.837  0.00  0.00     0.097 C 
BRANCH  49  51
HETATM   51  O   UNK N   1      21.010  18.325   7.234  0.00  0.00    -0.350 OA
HETATM   52  H   UNK N   1      21.184  18.629   6.365  0.00  0.00     0.219 HD
ENDBRANCH  49  51
ENDBRANCH  47  49
ENDBRANCH   1  47
TORSDOF 18
ENDMDL
MODEL 5
REMARK VINA RESULT:      -8.0      2.010      2.894
REMARK  18 active torsions:
REMARK  status: ('A' for Active; 'I' for Inactive)
REMARK    1  A    between atoms: C_22  and  C_17 
REMARK    2  A    between atoms: C_26  and  C_17 
REMARK    3  A    between atoms: C_21  and  C_19 
REMARK    4  A    between atoms: N_35  and  C_19 
REMARK    5  A    between atoms: N_31  and  C_20 
REMARK    6  A    between atoms: O_36  and  C_20 
REMARK    7  A    between atoms: C_24  and  C_23 
REMARK    8  A    between atoms: C_25  and  N_33 
REMARK    9  A    between atoms: C_29  and  C_26 
REMARK   10  A    between atoms: C_26  and  N_31 
REMARK   11  A    between atoms: P_45  and  C_27 
REMARK   12  A    between atoms: P_46  and  C_28 
REMARK   13  A    between atoms: N_33  and  C_29 
REMARK   14  A    between atoms: C_29  and  O_37 
REMARK   15  A    between atoms: P_45  and  O_39 
REMARK   16  A    between atoms: P_45  and  O_40 
REMARK   17  A    between atoms: P_46  and  O_42 
REMARK   18  A    between atoms: P_46  and  O_43 
ROOT
HETATM    1  C   UNK N   1      27.805  18.246   4.354  0.00  0.00     0.162 C 
ENDROOT
BRANCH   1   2
HETATM    2  C   UNK N   1      26.984  19.563   4.467  0.00  0.00     0.072 C 
BRANCH   2   3
HETATM    3  C   UNK N   1      25.586  19.589   3.886  0.00  0.00    -0.055 A 
HETATM    4  C   UNK N   1      25.265  20.453   2.832  0.00  0.00     0.008 A 
HETATM    5  C   UNK N   1      23.926  20.610   2.438  0.00  0.00     0.021 A 
HETATM    6  C   UNK N   1      22.900  19.922   3.110  0.00  0.00     0.068 A 
HETATM    7  C   UNK N   1      23.238  19.024   4.146  0.00  0.00     0.068 A 
HETATM    8  C   UNK N   1      24.565  18.881   4.504  0.00  0.00     0.027 A 
BRANCH   6   9
HETATM    9  P   UNK N   1      21.155  20.317   2.687  0.00  0.00     0.272 P 
HETATM   10  O   UNK N   1      20.310  20.673   3.938  0.00  0.00    -0.650 OA
BRANCH   9  11
HETATM   11  O   UNK N   1      21.021  21.702   1.647  0.00  0.00    -0.326 OA
HETATM   12  H   UNK N   1      20.602  22.568   1.774  0.00  0.00     0.220 HD
ENDBRANCH   9  11
BRANCH   9  13
HETATM   13  O   UNK N   1      20.280  19.037   1.908  0.00  0.00    -0.326 OA
HETATM   14  H   UNK N   1      19.790  19.207   1.088  0.00  0.00     0.220 HD
ENDBRANCH   9  13
ENDBRANCH   6   9
BRANCH   7  15
HETATM   15  P   UNK N   1      22.047  18.070   5.170  0.00  0.00     0.272 P 
HETATM   16  O   UNK N   1      21.158  17.206   4.236  0.00  0.00    -0.650 OA
BRANCH  15  17
HETATM   17  O   UNK N   1      22.858  16.883   6.141  0.00  0.00    -0.326 OA
HETATM   18  H   UNK N   1      23.300  16.025   6.049  0.00  0.00     0.220 HD
ENDBRANCH  15  17
BRANCH  15  19
HETATM   19  O   UNK N   1      20.920  18.885   6.206  0.00  0.00    -0.326 OA
HETATM   20  H   UNK N   1      21.028  19.798   6.515  0.00  0.00     0.220 HD
ENDBRANCH  15  19
ENDBRANCH   7  15
ENDBRANCH   2   3
ENDBRANCH   1   2
BRANCH   1  21
HETATM   21  C   UNK N   1      27.250  17.297   5.364  0.00  0.00     0.135 C 
BRANCH  21  22
HETATM   22  N   UNK N   1      26.564  16.281   4.956  0.00  0.00    -0.359 N 
ATOM     23  HN  UNK N   1      25.689  16.058   5.433  1.00  0.00     0.162 HD
BRANCH  22  24
HETATM   24  C   UNK N   1      26.985  15.444   3.852  0.00  0.00     0.175 C 
HETATM   25  C   UNK N   1      26.148  15.826   2.628  0.00  0.00     0.035 C 
HETATM   26  C   UNK N   1      24.672  15.587   2.876  0.00  0.00     0.004 C 
HETATM   27  C   UNK N   1      24.289  14.196   2.417  0.00  0.00     0.020 C 
HETATM   28  C   UNK N   1      25.398  13.141   2.571  0.00  0.00     0.126 C 
HETATM   29  N   UNK N   1      26.001  13.059   3.907  0.00  0.00    -0.346 N 
HETATM   30  C   UNK N   1      26.839  14.013   4.391  0.00  0.00     0.242 C 
HETATM   31  O   UNK N   1      27.477  13.735   5.404  0.00  0.00    -0.271 OA
BRANCH  29  32
HETATM   32  C   UNK N   1      25.761  11.892   4.758  0.00  0.00     0.164 C 
BRANCH  32  33
HETATM   33  C   UNK N   1      24.436  11.991   5.425  0.00  0.00    -0.040 C 
HETATM   34  C   UNK N   1      23.884  10.842   6.014  0.00  0.00     0.009 C 
HETATM   35  C   UNK N   1      23.230  10.957   7.237  0.00  0.00     0.013 C 
HETATM   36  C   UNK N   1      23.104  12.222   7.830  0.00  0.00    -0.026 C 
HETATM   37  C   UNK N   1      23.432  13.369   7.097  0.00  0.00     0.013 C 
HETATM   38  C   UNK N   1      24.117  13.248   5.906  0.00  0.00     0.009 C 
BRANCH  36  39
HETATM   39  C   UNK N   1      23.113  12.346   9.301  0.00  0.00    -0.026 A 
HETATM   40  C   UNK N   1      24.330  12.201   9.991  0.00  0.00     0.012 A 
HETATM   41  C   UNK N   1      24.348  12.015  11.371  0.00  0.00     0.001 A 
HETATM   42  C   UNK N   1      23.148  11.947  12.079  0.00  0.00     0.000 A 
HETATM   43  C   UNK N   1      21.930  12.089  11.408  0.00  0.00     0.001 A 
HETATM   44  C   UNK N   1      21.910  12.277  10.023  0.00  0.00     0.012 A 
ENDBRANCH  36  39
ENDBRANCH  32  33
ENDBRANCH  29  32
ENDBRANCH  22  24
ENDBRANCH  21  22
BRANCH  21  45
HETATM   45  O   UNK N   1      27.365  17.579   6.681  0.00  0.00    -0.348 OA
HETATM   46  H   UNK N   1      27.447  18.246   7.332  0.00  0.00     0.219 HD
ENDBRANCH  21  45
ENDBRANCH   1  21
BRANCH   1  47
HETATM   47  N   UNK N   1      29.224  18.468   4.555  0.00  0.00    -0.362 N 
ATOM     48  HN  UNK N   1      29.524  19.401   4.837  1.00  0.00     0.162 HD
BRANCH  47  49
HETATM   49  C   UNK N   1      30.133  17.567   4.404  0.00  0.00     0.107 C 
HETATM   50  C   UNK N   1      30.927  17.131   5.583  0.00  0.00     0.097 C 
BRANCH  49  51
HETATM   51  O   UNK N   1      30.346  16.986   3.205  0.00  0.00    -0.350 OA
HETATM   52  H   UNK N   1      30.999  17.290   2.606  0.00  0.00     0.219 HD
ENDBRANCH  49  51
ENDBRANCH  47  49
ENDBRANCH   1  47
TORSDOF 18
ENDMDL
MODEL 6
REMARK VINA RESULT:      -8.0      9.950     12.185
REMARK  18 active torsions:
REMARK  status: ('A' for Active; 'I' for Inactive)
REMARK    1  A    between atoms: C_22  and  C_17 
REMARK    2  A    between atoms: C_26  and  C_17 
REMARK    3  A    between atoms: C_21  and  C_19 
REMARK    4  A    between atoms: N_35  and  C_19 
REMARK    5  A    between atoms: N_31  and  C_20 
REMARK    6  A    between atoms: O_36  and  C_20 
REMARK    7  A    between atoms: C_24  and  C_23 
REMARK    8  A    between atoms: C_25  and  N_33 
REMARK    9  A    between atoms: C_29  and  C_26 
REMARK   10  A    between atoms: C_26  and  N_31 
REMARK   11  A    between atoms: P_45  and  C_27 
REMARK   12  A    between atoms: P_46  and  C_28 
REMARK   13  A    between atoms: N_33  and  C_29 
REMARK   14  A    between atoms: C_29  and  O_37 
REMARK   15  A    between atoms: P_45  and  O_39 
REMARK   16  A    between atoms: P_45  and  O_40 
REMARK   17  A    between atoms: P_46  and  O_42 
REMARK   18  A    between atoms: P_46  and  O_43 
ROOT
HETATM    1  C   UNK N   1      34.166  15.184   8.437  0.00  0.00     0.162 C 
ENDROOT
BRANCH   1   2
HETATM    2  C   UNK N   1      33.731  16.616   8.013  0.00  0.00     0.072 C 
BRANCH   2   3
HETATM    3  C   UNK N   1      32.346  16.802   7.428  0.00  0.00    -0.055 A 
HETATM    4  C   UNK N   1      32.145  16.774   6.043  0.00  0.00     0.008 A 
HETATM    5  C   UNK N   1      30.899  17.142   5.509  0.00  0.00     0.021 A 
HETATM    6  C   UNK N   1      29.857  17.562   6.354  0.00  0.00     0.068 A 
HETATM    7  C   UNK N   1      30.058  17.550   7.752  0.00  0.00     0.068 A 
HETATM    8  C   UNK N   1      31.290  17.171   8.250  0.00  0.00     0.027 A 
BRANCH   6   9
HETATM    9  P   UNK N   1      28.320  18.223   5.591  0.00  0.00     0.272 P 
HETATM   10  O   UNK N   1      27.053  17.459   6.059  0.00  0.00    -0.650 OA
BRANCH   9  11
HETATM   11  O   UNK N   1      28.027  19.880   6.016  0.00  0.00    -0.326 OA
HETATM   12  H   UNK N   1      28.004  20.691   5.483  0.00  0.00     0.220 HD
ENDBRANCH   9  11
BRANCH   9  13
HETATM   13  O   UNK N   1      28.270  18.148   3.858  0.00  0.00    -0.326 OA
HETATM   14  H   UNK N   1      27.443  17.925   3.401  0.00  0.00     0.220 HD
ENDBRANCH   9  13
ENDBRANCH   6   9
BRANCH   7  15
HETATM   15  P   UNK N   1      28.843  18.102   9.015  0.00  0.00     0.272 P 
HETATM   16  O   UNK N   1      28.099  16.860   9.575  0.00  0.00    -0.650 OA
BRANCH  15  17
HETATM   17  O   UNK N   1      29.638  18.744  10.417  0.00  0.00    -0.326 OA
HETATM   18  H   UNK N   1      29.739  18.558  11.363  0.00  0.00     0.220 HD
ENDBRANCH  15  17
BRANCH  15  19
HETATM   19  O   UNK N   1      27.577  19.212   8.599  0.00  0.00    -0.326 OA
HETATM   20  H   UNK N   1      26.917  19.543   9.228  0.00  0.00     0.220 HD
ENDBRANCH  15  19
ENDBRANCH   7  15
ENDBRANCH   2   3
ENDBRANCH   1   2
BRANCH   1  21
HETATM   21  C   UNK N   1      34.542  15.251   9.880  0.00  0.00     0.135 C 
BRANCH  21  22
HETATM   22  N   UNK N   1      35.003  14.190  10.457  0.00  0.00    -0.359 N 
ATOM     23  HN  UNK N   1      34.545  13.296  10.276  1.00  0.00     0.162 HD
BRANCH  22  24
HETATM   24  C   UNK N   1      36.144  14.217  11.348  0.00  0.00     0.175 C 
HETATM   25  C   UNK N   1      37.361  13.711  10.570  0.00  0.00     0.035 C 
HETATM   26  C   UNK N   1      37.155  12.287  10.095  0.00  0.00     0.004 C 
HETATM   27  C   UNK N   1      37.698  11.316  11.123  0.00  0.00     0.020 C 
HETATM   28  C   UNK N   1      37.581  11.792  12.581  0.00  0.00     0.126 C 
HETATM   29  N   UNK N   1      36.240  12.227  12.989  0.00  0.00    -0.346 N 
HETATM   30  C   UNK N   1      35.687  13.393  12.562  0.00  0.00     0.242 C 
HETATM   31  O   UNK N   1      34.679  13.781  13.148  0.00  0.00    -0.271 OA
BRANCH  29  32
HETATM   32  C   UNK N   1      35.459  11.431  13.939  0.00  0.00     0.164 C 
BRANCH  32  33
HETATM   33  C   UNK N   1      36.050  11.509  15.301  0.00  0.00    -0.040 C 
HETATM   34  C   UNK N   1      35.552  12.463  16.203  0.00  0.00     0.009 C 
HETATM   35  C   UNK N   1      35.386  12.107  17.539  0.00  0.00     0.013 C 
HETATM   36  C   UNK N   1      35.758  10.821  17.957  0.00  0.00    -0.026 C 
HETATM   37  C   UNK N   1      36.487   9.993  17.094  0.00  0.00     0.013 C 
HETATM   38  C   UNK N   1      36.611  10.332  15.763  0.00  0.00     0.009 C 
BRANCH  36  39
HETATM   39  C   UNK N   1      35.007  10.157  19.040  0.00  0.00    -0.026 A 
HETATM   40  C   UNK N   1      34.168   9.073  18.725  0.00  0.00     0.012 A 
HETATM   41  C   UNK N   1      33.227   8.610  19.642  0.00  0.00     0.001 A 
HETATM   42  C   UNK N   1      33.095   9.241  20.879  0.00  0.00     0.000 A 
HETATM   43  C   UNK N   1      33.920  10.320  21.208  0.00  0.00     0.001 A 
HETATM   44  C   UNK N   1      34.866  10.784  20.289  0.00  0.00     0.012 A 
ENDBRANCH  36  39
ENDBRANCH  32  33
ENDBRANCH  29  32
ENDBRANCH  22  24
ENDBRANCH  21  22
BRANCH  21  45
HETATM   45  O   UNK N   1      34.282  16.373  10.588  0.00  0.00    -0.348 OA
HETATM   46  H   UNK N   1      34.584  17.221  10.846  0.00  0.00     0.219 HD
ENDBRANCH  21  45
ENDBRANCH   1  21
BRANCH   1  47
HETATM   47  N   UNK N   1      35.258  14.683   7.625  0.00  0.00    -0.362 N 
ATOM     48  HN  UNK N   1      36.107  14.380   8.103  1.00  0.00     0.162 HD
BRANCH  47  49
HETATM   49  C   UNK N   1      35.230  14.591   6.340  0.00  0.00     0.107 C 
HETATM   50  C   UNK N   1      34.221  13.708   5.697  0.00  0.00     0.097 C 
BRANCH  49  51
HETATM   51  O   UNK N   1      36.071  15.312   5.571  0.00  0.00    -0.350 OA
HETATM   52  H   UNK N   1      36.950  15.505   5.829  0.00  0.00     0.219 HD
ENDBRANCH  49  51
ENDBRANCH  47  49
ENDBRANCH   1  47
TORSDOF 18
ENDMDL
MODEL 7
REMARK VINA RESULT:      -7.8      4.482      7.604
REMARK  18 active torsions:
REMARK  status: ('A' for Active; 'I' for Inactive)
REMARK    1  A    between atoms: C_22  and  C_17 
REMARK    2  A    between atoms: C_26  and  C_17 
REMARK    3  A    between atoms: C_21  and  C_19 
REMARK    4  A    between atoms: N_35  and  C_19 
REMARK    5  A    between atoms: N_31  and  C_20 
REMARK    6  A    between atoms: O_36  and  C_20 
REMARK    7  A    between atoms: C_24  and  C_23 
REMARK    8  A    between atoms: C_25  and  N_33 
REMARK    9  A    between atoms: C_29  and  C_26 
REMARK   10  A    between atoms: C_26  and  N_31 
REMARK   11  A    between atoms: P_45  and  C_27 
REMARK   12  A    between atoms: P_46  and  C_28 
REMARK   13  A    between atoms: N_33  and  C_29 
REMARK   14  A    between atoms: C_29  and  O_37 
REMARK   15  A    between atoms: P_45  and  O_39 
REMARK   16  A    between atoms: P_45  and  O_40 
REMARK   17  A    between atoms: P_46  and  O_42 
REMARK   18  A    between atoms: P_46  and  O_43 
ROOT
HETATM    1  C   UNK N   1      27.963  17.771   6.285  0.00  0.00     0.162 C 
ENDROOT
BRANCH   1   2
HETATM    2  C   UNK N   1      29.250  17.884   5.418  0.00  0.00     0.072 C 
BRANCH   2   3
HETATM    3  C   UNK N   1      30.236  16.735   5.442  0.00  0.00    -0.055 A 
HETATM    4  C   UNK N   1      29.808  15.421   5.219  0.00  0.00     0.008 A 
HETATM    5  C   UNK N   1      30.690  14.350   5.439  0.00  0.00     0.021 A 
HETATM    6  C   UNK N   1      31.995  14.586   5.905  0.00  0.00     0.068 A 
HETATM    7  C   UNK N   1      32.428  15.917   6.090  0.00  0.00     0.068 A 
HETATM    8  C   UNK N   1      31.543  16.951   5.854  0.00  0.00     0.027 A 
BRANCH   6   9
HETATM    9  P   UNK N   1      33.036  13.143   6.367  0.00  0.00     0.272 P 
HETATM   10  O   UNK N   1      33.386  13.127   7.879  0.00  0.00    -0.650 OA
BRANCH   9  11
HETATM   11  O   UNK N   1      32.238  11.628   6.077  0.00  0.00    -0.326 OA
HETATM   12  H   UNK N   1      32.406  10.921   5.434  0.00  0.00     0.220 HD
ENDBRANCH   9  11
BRANCH   9  13
HETATM   13  O   UNK N   1      34.566  13.051   5.555  0.00  0.00    -0.326 OA
HETATM   14  H   UNK N   1      35.369  13.389   5.983  0.00  0.00     0.220 HD
ENDBRANCH   9  13
ENDBRANCH   6   9
BRANCH   7  15
HETATM   15  P   UNK N   1      34.073  16.429   6.733  0.00  0.00     0.272 P 
HETATM   16  O   UNK N   1      35.173  15.929   5.759  0.00  0.00    -0.650 OA
BRANCH  15  17
HETATM   17  O   UNK N   1      34.262  18.153   6.679  0.00  0.00    -0.326 OA
HETATM   18  H   UNK N   1      34.792  18.828   6.229  0.00  0.00     0.220 HD
ENDBRANCH  15  17
BRANCH  15  19
HETATM   19  O   UNK N   1      34.612  15.911   8.297  0.00  0.00    -0.326 OA
HETATM   20  H   UNK N   1      35.057  16.488   8.937  0.00  0.00     0.220 HD
ENDBRANCH  15  19
ENDBRANCH   7  15
ENDBRANCH   2   3
ENDBRANCH   1   2
BRANCH   1  21
HETATM   21  C   UNK N   1      26.802  17.990   5.374  0.00  0.00     0.135 C 
BRANCH  21  22
HETATM   22  N   UNK N   1      25.732  17.284   5.543  0.00  0.00    -0.359 N 
ATOM     23  HN  UNK N   1      25.467  17.017   6.492  1.00  0.00     0.162 HD
BRANCH  22  24
HETATM   24  C   UNK N   1      24.895  16.856   4.442  0.00  0.00     0.175 C 
HETATM   25  C   UNK N   1      23.440  17.146   4.818  0.00  0.00     0.035 C 
HETATM   26  C   UNK N   1      23.030  16.379   6.060  0.00  0.00     0.004 C 
HETATM   27  C   UNK N   1      22.423  15.048   5.668  0.00  0.00     0.020 C 
HETATM   28  C   UNK N   1      23.012  14.424   4.392  0.00  0.00     0.126 C 
HETATM   29  N   UNK N   1      24.474  14.311   4.371  0.00  0.00    -0.346 N 
HETATM   30  C   UNK N   1      25.290  15.388   4.222  0.00  0.00     0.242 C 
HETATM   31  O   UNK N   1      26.472  15.164   3.970  0.00  0.00    -0.271 OA
BRANCH  29  32
HETATM   32  C   UNK N   1      25.118  12.997   4.451  0.00  0.00     0.164 C 
BRANCH  32  33
HETATM   33  C   UNK N   1      25.238  12.557   5.866  0.00  0.00    -0.040 C 
HETATM   34  C   UNK N   1      25.654  13.486   6.833  0.00  0.00     0.009 C 
HETATM   35  C   UNK N   1      25.037  13.483   8.082  0.00  0.00     0.013 C 
HETATM   36  C   UNK N   1      24.046  12.528   8.355  0.00  0.00    -0.026 C 
HETATM   37  C   UNK N   1      23.844  11.464   7.468  0.00  0.00     0.013 C 
HETATM   38  C   UNK N   1      24.425  11.494   6.218  0.00  0.00     0.009 C 
BRANCH  36  39
HETATM   39  C   UNK N   1      22.924  12.873   9.250  0.00  0.00    -0.026 A 
HETATM   40  C   UNK N   1      22.635  12.031  10.338  0.00  0.00     0.012 A 
HETATM   41  C   UNK N   1      21.429  12.143  11.025  0.00  0.00     0.001 A 
HETATM   42  C   UNK N   1      20.483  13.085  10.619  0.00  0.00     0.000 A 
HETATM   43  C   UNK N   1      20.755  13.930   9.539  0.00  0.00     0.001 A 
HETATM   44  C   UNK N   1      21.966  13.818   8.849  0.00  0.00     0.012 A 
ENDBRANCH  36  39
ENDBRANCH  32  33
ENDBRANCH  29  32
ENDBRANCH  22  24
ENDBRANCH  21  22
BRANCH  21  45
HETATM   45  O   UNK N   1      26.927  18.826   4.319  0.00  0.00    -0.348 OA
HETATM   46  H   UNK N   1      26.609  19.596   3.892  0.00  0.00     0.219 HD
ENDBRANCH  21  45
ENDBRANCH   1  21
BRANCH   1  47
HETATM   47  N   UNK N   1      27.962  18.715   7.386  0.00  0.00    -0.362 N 
ATOM     48  HN  UNK N   1      27.661  19.670   7.193  1.00  0.00     0.162 HD
BRANCH  47  49
HETATM   49  C   UNK N   1      28.314  18.431   8.592  0.00  0.00     0.107 C 
HETATM   50  C   UNK N   1      29.728  18.639   9.004  0.00  0.00     0.097 C 
BRANCH  49  51
HETATM   51  O   UNK N   1      27.416  17.988   9.495  0.00  0.00    -0.350 OA
HETATM   52  H   UNK N   1      27.616  17.900  10.405  0.00  0.00     0.219 HD
ENDBRANCH  49  51
ENDBRANCH  47  49
ENDBRANCH   1  47
TORSDOF 18
ENDMDL
MODEL 8
REMARK VINA RESULT:      -7.8      3.892      7.219
REMARK  18 active torsions:
REMARK  status: ('A' for Active; 'I' for Inactive)
REMARK    1  A    between atoms: C_22  and  C_17 
REMARK    2  A    between atoms: C_26  and  C_17 
REMARK    3  A    between atoms: C_21  and  C_19 
REMARK    4  A    between atoms: N_35  and  C_19 
REMARK    5  A    between atoms: N_31  and  C_20 
REMARK    6  A    between atoms: O_36  and  C_20 
REMARK    7  A    between atoms: C_24  and  C_23 
REMARK    8  A    between atoms: C_25  and  N_33 
REMARK    9  A    between atoms: C_29  and  C_26 
REMARK   10  A    between atoms: C_26  and  N_31 
REMARK   11  A    between atoms: P_45  and  C_27 
REMARK   12  A    between atoms: P_46  and  C_28 
REMARK   13  A    between atoms: N_33  and  C_29 
REMARK   14  A    between atoms: C_29  and  O_37 
REMARK   15  A    between atoms: P_45  and  O_39 
REMARK   16  A    between atoms: P_45  and  O_40 
REMARK   17  A    between atoms: P_46  and  O_42 
REMARK   18  A    between atoms: P_46  and  O_43 
ROOT
HETATM    1  C   UNK N   1      26.012  17.703   3.775  0.00  0.00     0.162 C 
ENDROOT
BRANCH   1   2
HETATM    2  C   UNK N   1      27.265  18.532   4.180  0.00  0.00     0.072 C 
BRANCH   2   3
HETATM    3  C   UNK N   1      28.285  17.891   5.097  0.00  0.00    -0.055 A 
HETATM    4  C   UNK N   1      28.006  17.702   6.456  0.00  0.00     0.008 A 
HETATM    5  C   UNK N   1      29.026  17.291   7.329  0.00  0.00     0.021 A 
HETATM    6  C   UNK N   1      30.334  17.090   6.854  0.00  0.00     0.068 A 
HETATM    7  C   UNK N   1      30.595  17.245   5.475  0.00  0.00     0.068 A 
HETATM    8  C   UNK N   1      29.569  17.638   4.637  0.00  0.00     0.027 A 
BRANCH   6   9
HETATM    9  P   UNK N   1      31.668  16.750   8.072  0.00  0.00     0.272 P 
HETATM   10  O   UNK N   1      32.662  17.934   8.204  0.00  0.00    -0.650 OA
BRANCH   9  11
HETATM   11  O   UNK N   1      31.055  16.500   9.677  0.00  0.00    -0.326 OA
HETATM   12  H   UNK N   1      30.328  16.919  10.164  0.00  0.00     0.220 HD
ENDBRANCH   9  11
BRANCH   9  13
HETATM   13  O   UNK N   1      32.661  15.374   7.710  0.00  0.00    -0.326 OA
HETATM   14  H   UNK N   1      32.946  14.775   8.418  0.00  0.00     0.220 HD
ENDBRANCH   9  13
ENDBRANCH   6   9
BRANCH   7  15
HETATM   15  P   UNK N   1      32.238  17.073   4.669  0.00  0.00     0.272 P 
HETATM   16  O   UNK N   1      32.645  15.575   4.671  0.00  0.00    -0.650 OA
BRANCH  15  17
HETATM   17  O   UNK N   1      32.153  17.449   2.977  0.00  0.00    -0.326 OA
HETATM   18  H   UNK N   1      31.569  17.893   2.343  0.00  0.00     0.220 HD
ENDBRANCH  15  17
BRANCH  15  19
HETATM   19  O   UNK N   1      33.625  17.899   5.301  0.00  0.00    -0.326 OA
HETATM   20  H   UNK N   1      33.631  18.835   5.555  0.00  0.00     0.220 HD
ENDBRANCH  15  19
ENDBRANCH   7  15
ENDBRANCH   2   3
ENDBRANCH   1   2
BRANCH   1  21
HETATM   21  C   UNK N   1      24.970  17.951   4.815  0.00  0.00     0.135 C 
BRANCH  21  22
HETATM   22  N   UNK N   1      24.080  17.040   5.038  0.00  0.00    -0.359 N 
ATOM     23  HN  UNK N   1      24.347  16.217   5.579  1.00  0.00     0.162 HD
BRANCH  22  24
HETATM   24  C   UNK N   1      22.719  17.140   4.553  0.00  0.00     0.175 C 
HETATM   25  C   UNK N   1      21.813  17.432   5.751  0.00  0.00     0.035 C 
HETATM   26  C   UNK N   1      21.878  16.316   6.774  0.00  0.00     0.004 C 
HETATM   27  C   UNK N   1      20.793  15.296   6.496  0.00  0.00     0.020 C 
HETATM   28  C   UNK N   1      20.445  15.120   5.008  0.00  0.00     0.126 C 
HETATM   29  N   UNK N   1      21.588  14.860   4.126  0.00  0.00    -0.346 N 
HETATM   30  C   UNK N   1      22.494  15.819   3.801  0.00  0.00     0.242 C 
HETATM   31  O   UNK N   1      23.261  15.572   2.873  0.00  0.00    -0.271 OA
BRANCH  29  32
HETATM   32  C   UNK N   1      21.761  13.545   3.504  0.00  0.00     0.164 C 
BRANCH  32  33
HETATM   33  C   UNK N   1      22.346  12.580   4.472  0.00  0.00    -0.040 C 
HETATM   34  C   UNK N   1      23.566  12.894   5.091  0.00  0.00     0.009 C 
HETATM   35  C   UNK N   1      23.736  12.595   6.440  0.00  0.00     0.013 C 
HETATM   36  C   UNK N   1      22.701  11.951   7.135  0.00  0.00    -0.026 C 
HETATM   37  C   UNK N   1      21.613  11.424   6.429  0.00  0.00     0.013 C 
HETATM   38  C   UNK N   1      21.429  11.759   5.103  0.00  0.00     0.009 C 
BRANCH  36  39
HETATM   39  C   UNK N   1      22.489  12.242   8.566  0.00  0.00    -0.026 A 
HETATM   40  C   UNK N   1      23.253  11.552   9.524  0.00  0.00     0.012 A 
HETATM   41  C   UNK N   1      22.893  11.569  10.869  0.00  0.00     0.001 A 
HETATM   42  C   UNK N   1      21.749  12.257  11.274  0.00  0.00     0.000 A 
HETATM   43  C   UNK N   1      20.979  12.948  10.334  0.00  0.00     0.001 A 
HETATM   44  C   UNK N   1      21.339  12.933   8.984  0.00  0.00     0.012 A 
ENDBRANCH  36  39
ENDBRANCH  32  33
ENDBRANCH  29  32
ENDBRANCH  22  24
ENDBRANCH  21  22
BRANCH  21  45
HETATM   45  O   UNK N   1      24.897  19.159   5.415  0.00  0.00    -0.348 OA
HETATM   46  H   UNK N   1      24.707  19.630   6.202  0.00  0.00     0.219 HD
ENDBRANCH  21  45
ENDBRANCH   1  21
BRANCH   1  47
HETATM   47  N   UNK N   1      26.310  16.290   3.646  0.00  0.00    -0.362 N 
ATOM     48  HN  UNK N   1      26.216  15.706   4.476  1.00  0.00     0.162 HD
BRANCH  47  49
HETATM   49  C   UNK N   1      26.686  15.720   2.553  0.00  0.00     0.107 C 
HETATM   50  C   UNK N   1      28.021  15.067   2.496  0.00  0.00     0.097 C 
BRANCH  49  51
HETATM   51  O   UNK N   1      25.874  15.671   1.477  0.00  0.00    -0.350 OA
HETATM   52  H   UNK N   1      26.200  15.598   0.602  0.00  0.00     0.219 HD
ENDBRANCH  49  51
ENDBRANCH  47  49
ENDBRANCH   1  47
TORSDOF 18
ENDMDL
MODEL 9
REMARK VINA RESULT:      -7.8      6.531      7.778
REMARK  18 active torsions:
REMARK  status: ('A' for Active; 'I' for Inactive)
REMARK    1  A    between atoms: C_22  and  C_17 
REMARK    2  A    between atoms: C_26  and  C_17 
REMARK    3  A    between atoms: C_21  and  C_19 
REMARK    4  A    between atoms: N_35  and  C_19 
REMARK    5  A    between atoms: N_31  and  C_20 
REMARK    6  A    between atoms: O_36  and  C_20 
REMARK    7  A    between atoms: C_24  and  C_23 
REMARK    8  A    between atoms: C_25  and  N_33 
REMARK    9  A    between atoms: C_29  and  C_26 
REMARK   10  A    between atoms: C_26  and  N_31 
REMARK   11  A    between atoms: P_45  and  C_27 
REMARK   12  A    between atoms: P_46  and  C_28 
REMARK   13  A    between atoms: N_33  and  C_29 
REMARK   14  A    between atoms: C_29  and  O_37 
REMARK   15  A    between atoms: P_45  and  O_39 
REMARK   16  A    between atoms: P_45  and  O_40 
REMARK   17  A    between atoms: P_46  and  O_42 
REMARK   18  A    between atoms: P_46  and  O_43 
ROOT
HETATM    1  C   UNK N   1      27.626  17.727   5.150  0.00  0.00     0.162 C 
ENDROOT
BRANCH   1   2
HETATM    2  C   UNK N   1      26.957  19.130   5.060  0.00  0.00     0.072 C 
BRANCH   2   3
HETATM    3  C   UNK N   1      25.617  19.242   4.364  0.00  0.00    -0.055 A 
HETATM    4  C   UNK N   1      25.419  20.175   3.339  0.00  0.00     0.008 A 
HETATM    5  C   UNK N   1      24.126  20.406   2.841  0.00  0.00     0.021 A 
HETATM    6  C   UNK N   1      23.023  19.722   3.381  0.00  0.00     0.068 A 
HETATM    7  C   UNK N   1      23.238  18.755   4.387  0.00  0.00     0.068 A 
HETATM    8  C   UNK N   1      24.522  18.541   4.849  0.00  0.00     0.027 A 
BRANCH   6   9
HETATM    9  P   UNK N   1      21.336  20.207   2.833  0.00  0.00     0.272 P 
HETATM   10  O   UNK N   1      20.370  20.435   4.025  0.00  0.00    -0.650 OA
BRANCH   9  11
HETATM   11  O   UNK N   1      21.328  21.707   1.958  0.00  0.00    -0.326 OA
HETATM   12  H   UNK N   1      21.219  22.626   2.250  0.00  0.00     0.220 HD
ENDBRANCH   9  11
BRANCH   9  13
HETATM   13  O   UNK N   1      20.530  19.049   1.822  0.00  0.00    -0.326 OA
HETATM   14  H   UNK N   1      19.652  18.714   2.065  0.00  0.00     0.220 HD
ENDBRANCH   9  13
ENDBRANCH   6   9
BRANCH   7  15
HETATM   15  P   UNK N   1      21.929  17.793   5.247  0.00  0.00     0.272 P 
HETATM   16  O   UNK N   1      22.572  16.543   5.904  0.00  0.00    -0.650 OA
BRANCH  15  17
HETATM   17  O   UNK N   1      21.296  18.664   6.607  0.00  0.00    -0.326 OA
HETATM   18  H   UNK N   1      21.602  19.100   7.418  0.00  0.00     0.220 HD
ENDBRANCH  15  17
BRANCH  15  19
HETATM   19  O   UNK N   1      20.569  17.169   4.370  0.00  0.00    -0.326 OA
HETATM   20  H   UNK N   1      20.123  17.642   3.651  0.00  0.00     0.220 HD
ENDBRANCH  15  19
ENDBRANCH   7  15
ENDBRANCH   2   3
ENDBRANCH   1   2
BRANCH   1  21
HETATM   21  C   UNK N   1      28.720  17.830   6.160  0.00  0.00     0.135 C 
BRANCH  21  22
HETATM   22  N   UNK N   1      29.713  17.006   6.092  0.00  0.00    -0.359 N 
ATOM     23  HN  UNK N   1      29.524  16.029   5.862  1.00  0.00     0.162 HD
BRANCH  22  24
HETATM   24  C   UNK N   1      31.083  17.411   6.328  0.00  0.00     0.175 C 
HETATM   25  C   UNK N   1      31.884  17.124   5.055  0.00  0.00     0.035 C 
HETATM   26  C   UNK N   1      31.870  15.647   4.718  0.00  0.00     0.004 C 
HETATM   27  C   UNK N   1      33.066  14.963   5.347  0.00  0.00     0.020 C 
HETATM   28  C   UNK N   1      33.517  15.564   6.689  0.00  0.00     0.126 C 
HETATM   29  N   UNK N   1      32.460  15.709   7.696  0.00  0.00    -0.346 N 
HETATM   30  C   UNK N   1      31.483  16.649   7.601  0.00  0.00     0.242 C 
HETATM   31  O   UNK N   1      30.801  16.849   8.603  0.00  0.00    -0.271 OA
BRANCH  29  32
HETATM   32  C   UNK N   1      32.455  14.865   8.893  0.00  0.00     0.164 C 
BRANCH  32  33
HETATM   33  C   UNK N   1      33.833  14.703   9.427  0.00  0.00    -0.040 C 
HETATM   34  C   UNK N   1      34.410  15.760  10.149  0.00  0.00     0.009 C 
HETATM   35  C   UNK N   1      35.166  15.471  11.282  0.00  0.00     0.013 C 
HETATM   36  C   UNK N   1      35.365  14.132  11.649  0.00  0.00    -0.026 C 
HETATM   37  C   UNK N   1      34.999  13.108  10.768  0.00  0.00     0.013 C 
HETATM   38  C   UNK N   1      34.214  13.396   9.671  0.00  0.00     0.009 C 
BRANCH  36  39
HETATM   39  C   UNK N   1      35.482  13.774  13.076  0.00  0.00    -0.026 A 
HETATM   40  C   UNK N   1      36.420  14.451  13.876  0.00  0.00     0.012 A 
HETATM   41  C   UNK N   1      36.773  13.960  15.130  0.00  0.00     0.001 A 
HETATM   42  C   UNK N   1      36.211  12.770  15.594  0.00  0.00     0.000 A 
HETATM   43  C   UNK N   1      35.277  12.085  14.811  0.00  0.00     0.001 A 
HETATM   44  C   UNK N   1      34.921  12.578  13.553  0.00  0.00     0.012 A 
ENDBRANCH  36  39
ENDBRANCH  32  33
ENDBRANCH  29  32
ENDBRANCH  22  24
ENDBRANCH  21  22
BRANCH  21  45
HETATM   45  O   UNK N   1      28.598  18.691   7.194  0.00  0.00    -0.348 OA
HETATM   46  H   UNK N   1      28.154  19.441   7.538  0.00  0.00     0.219 HD
ENDBRANCH  21  45
ENDBRANCH   1  21
BRANCH   1  47
HETATM   47  N   UNK N   1      28.126  17.277   3.866  0.00  0.00    -0.362 N 
ATOM     48  HN  UNK N   1      28.737  17.907   3.346  1.00  0.00     0.162 HD
BRANCH  47  49
HETATM   49  C   UNK N   1      27.854  16.135   3.335  0.00  0.00     0.107 C 
HETATM   50  C   UNK N   1      26.563  15.956   2.620  0.00  0.00     0.097 C 
BRANCH  49  51
HETATM   51  O   UNK N   1      28.736  15.116   3.383  0.00  0.00    -0.350 OA
HETATM   52  H   UNK N   1      29.306  14.909   2.669  0.00  0.00     0.219 HD
ENDBRANCH  49  51
ENDBRANCH  47  49
ENDBRANCH   1  47
TORSDOF 18
ENDMDL
