REMARK  8 active torsions:
REMARK  status: ('A' for Active; 'I' for Inactive)
REMARK    1  A    between atoms: C_3  and  C_4 
REMARK    2  A    between atoms: C_4  and  N_5 
REMARK    3  A    between atoms: N_5  and  C_6 
REMARK    4  A    between atoms: C_9  and  C_12 
REMARK    5  A    between atoms: C_12  and  N_13 
REMARK    6  A    between atoms: C_12  and  N_14 
REMARK    7  A    between atoms: C_22  and  C_23 
REMARK    8  A    between atoms: C_23  and  N_24 
ROOT
HETATM    1  C   UNK N   1      -4.782   3.789   0.159  0.00  0.00     0.158 C 
HETATM    2  N   UNK N   1      -3.955   2.663  -0.246  0.00  0.00    -0.338 N 
HETATM    3  C   UNK N   1      -4.370   1.492  -0.776  0.00  0.00     0.102 A 
HETATM    4  N   UNK N   1      -3.344   0.632  -1.007  0.00  0.00    -0.343 N 
ATOM      5  HN  UNK N   1      -3.383  -0.304  -1.410  1.00  0.00     0.167 HD
HETATM    6  C   UNK N   1      -2.260   1.309  -0.578  0.00  0.00     0.061 A 
HETATM    7  C   UNK N   1      -2.633   2.535  -0.115  0.00  0.00     0.062 A 
HETATM    8  C   UNK N   1      -1.728   3.428   0.441  0.00  0.00     0.033 A 
HETATM    9  C   UNK N   1      -0.399   2.994   0.570  0.00  0.00     0.011 A 
HETATM   10  C   UNK N   1      -0.006   1.708   0.128  0.00  0.00    -0.038 A 
HETATM   11  C   UNK N   1      -0.951   0.857  -0.490  0.00  0.00     0.040 A 
ENDROOT
BRANCH   3  12
HETATM   12  C   UNK N   1      -5.795   1.172  -1.014  0.00  0.00     0.196 C 
BRANCH  12  13
HETATM   13  N   UNK N   1      -6.209   0.068  -0.185  0.00  0.00    -0.383 N 
HETATM   14  H   UNK N   1      -5.537  -0.535   0.210  0.00  0.00     0.160 HD
BRANCH  13  15
HETATM   15  C   UNK N   1      -7.583  -0.145   0.059  0.00  0.00     0.028 A 
HETATM   16  C   UNK N   1      -8.057  -1.449   0.219  0.00  0.00     0.030 A 
HETATM   17  C   UNK N   1      -9.432  -1.689   0.261  0.00  0.00     0.017 A 
HETATM   18  C   UNK N   1     -10.342  -0.624   0.163  0.00  0.00     0.007 A 
HETATM   19  C   UNK N   1      -9.859   0.687   0.071  0.00  0.00     0.017 A 
HETATM   20  C   UNK N   1      -8.488   0.924   0.004  0.00  0.00     0.030 A 
BRANCH  18  21
HETATM   21  C   UNK N   1     -11.794  -0.879   0.088  0.00  0.00     0.102 C 
BRANCH  21  22
HETATM   22  N   UNK N   1     -12.698   0.202  -0.037  0.00  0.00    -0.385 N 
HETATM   23  H   UNK N   1     -12.362   1.123  -0.125  0.00  0.00     0.157 HD
HETATM   24  H   UNK N   1     -13.668   0.032  -0.037  0.00  0.00     0.157 HD
ENDBRANCH  21  22
BRANCH  21  25
HETATM   25  N   UNK N   1     -12.236  -2.080   0.014  0.00  0.00    -0.385 N 
HETATM   26  H   UNK N   1     -13.205  -2.247  -0.044  0.00  0.00     0.157 HD
ATOM     27  HN  UNK N   1     -11.583  -2.864   0.014  1.00  0.00     0.157 HD
ENDBRANCH  21  25
ENDBRANCH  18  21
ENDBRANCH  13  15
ENDBRANCH  12  13
ENDBRANCH   3  12
BRANCH  10  28
HETATM   28  C   UNK N   1       1.378   1.252   0.491  0.00  0.00     0.169 C 
BRANCH  28  29
HETATM   29  N   UNK N   1       1.650  -0.190   0.414  0.00  0.00    -0.331 N 
HETATM   30  C   UNK N   1       0.901  -1.271   0.790  0.00  0.00     0.080 A 
HETATM   31  C   UNK N   1      -0.464  -1.221   1.389  0.00  0.00     0.089 C 
HETATM   32  N   UNK N   1       1.570  -2.440   0.628  0.00  0.00    -0.344 N 
HETATM   33  C   UNK N   1       2.775  -2.068   0.164  0.00  0.00     0.060 A 
ATOM     34  HN  UNK N   1       1.234  -3.385   0.815  1.00  0.00     0.167 HD
HETATM   35  C   UNK N   1       2.827  -0.713   0.041  0.00  0.00     0.063 A 
HETATM   36  C   UNK N   1       3.869  -2.880  -0.111  0.00  0.00     0.032 A 
HETATM   37  C   UNK N   1       3.986  -0.051  -0.363  0.00  0.00     0.032 A 
HETATM   38  C   UNK N   1       5.117  -0.840  -0.648  0.00  0.00     0.002 A 
HETATM   39  C   UNK N   1       5.058  -2.249  -0.525  0.00  0.00     0.002 A 
ENDBRANCH  28  29
ENDBRANCH  10  28
TORSDOF 8
