MODEL 1
REMARK VINA RESULT:      -5.5      0.000      0.000
REMARK  7 active torsions:
REMARK  status: ('A' for Active; 'I' for Inactive)
REMARK    1  A    between atoms: C_4  and  C_2 
REMARK    2  A    between atoms: O_11  and  C_2 
REMARK    3  A    between atoms: O_12  and  C_3 
REMARK    4  A    between atoms: C_5  and  O_13 
REMARK    5  A    between atoms: C_6  and  O_14 
REMARK    6  A    between atoms: C_7  and  O_15 
REMARK    7  A    between atoms: C_8  and  N_9 
ROOT
HETATM    1  C   UNK N   1      34.595  15.304  10.814  0.00  0.00     0.179 C 
HETATM    2  C   UNK N   1      36.030  15.439  10.236  0.00  0.00     0.180 C 
HETATM    3  C   UNK N   1      36.631  14.054   9.931  0.00  0.00     0.182 C 
HETATM    4  C   UNK N   1      36.489  13.135  11.157  0.00  0.00     0.198 C 
HETATM    5  C   UNK N   1      34.983  13.073  11.502  0.00  0.00     0.254 C 
HETATM    6  O   UNK N   1      34.529  14.368  11.883  0.00  0.00    -0.354 OA
ENDROOT
BRANCH   5   7
HETATM    7  N   UNK N   1      34.572  12.125  12.534  0.00  0.00    -0.346 N 
HETATM    8  C   UNK N   1      34.577  12.240  13.826  0.00  0.00     0.109 C 
HETATM    9  C   UNK N   1      34.126  11.085  14.649  0.00  0.00     0.097 C 
ATOM     10  HN  UNK N   1      34.225  11.232  12.183  1.00  0.00     0.164 HD
BRANCH   8  11
HETATM   11  O   UNK N   1      34.981  13.360  14.447  0.00  0.00    -0.350 OA
HETATM   12  H   UNK N   1      34.459  14.138  14.405  0.00  0.00     0.219 HD
ENDBRANCH   8  11
ENDBRANCH   5   7
BRANCH   4  13
HETATM   13  O   UNK N   1      37.219  13.647  12.236  0.00  0.00    -0.389 OA
HETATM   14  H   UNK N   1      37.383  13.908  13.157  0.00  0.00     0.210 HD
ENDBRANCH   4  13
BRANCH   3  15
HETATM   15  O   UNK N   1      37.973  14.174   9.561  0.00  0.00    -0.390 OA
HETATM   16  H   UNK N   1      38.548  13.393   9.558  0.00  0.00     0.210 HD
ENDBRANCH   3  15
BRANCH   1  17
HETATM   17  C   UNK N   1      33.520  15.018   9.763  0.00  0.00     0.198 C 
BRANCH  17  18
HETATM   18  O   UNK N   1      32.248  15.093  10.338  0.00  0.00    -0.398 OA
HETATM   19  H   UNK N   1      32.144  15.009  11.298  0.00  0.00     0.209 HD
ENDBRANCH  17  18
ENDBRANCH   1  17
BRANCH   2  20
HETATM   20  O   UNK N   1      36.832  16.095  11.173  0.00  0.00    -0.390 OA
HETATM   21  H   UNK N   1      37.241  16.866  11.596  0.00  0.00     0.210 HD
ENDBRANCH   2  20
TORSDOF 7
ENDMDL
MODEL 2
REMARK VINA RESULT:      -4.9      1.789      1.915
REMARK  7 active torsions:
REMARK  status: ('A' for Active; 'I' for Inactive)
REMARK    1  A    between atoms: C_4  and  C_2 
REMARK    2  A    between atoms: O_11  and  C_2 
REMARK    3  A    between atoms: O_12  and  C_3 
REMARK    4  A    between atoms: C_5  and  O_13 
REMARK    5  A    between atoms: C_6  and  O_14 
REMARK    6  A    between atoms: C_7  and  O_15 
REMARK    7  A    between atoms: C_8  and  N_9 
ROOT
HETATM    1  C   UNK N   1      36.070  15.601  10.856  0.00  0.00     0.179 C 
HETATM    2  C   UNK N   1      36.925  14.741   9.886  0.00  0.00     0.180 C 
HETATM    3  C   UNK N   1      36.602  13.244  10.049  0.00  0.00     0.182 C 
HETATM    4  C   UNK N   1      36.675  12.847  11.534  0.00  0.00     0.198 C 
HETATM    5  C   UNK N   1      35.687  13.761  12.295  0.00  0.00     0.254 C 
HETATM    6  O   UNK N   1      36.117  15.115  12.192  0.00  0.00    -0.354 OA
ENDROOT
BRANCH   5   7
HETATM    7  N   UNK N   1      35.451  13.465  13.706  0.00  0.00    -0.346 N 
HETATM    8  C   UNK N   1      36.141  13.789  14.755  0.00  0.00     0.109 C 
HETATM    9  C   UNK N   1      35.678  13.317  16.088  0.00  0.00     0.097 C 
ATOM     10  HN  UNK N   1      34.612  12.917  13.895  1.00  0.00     0.164 HD
BRANCH   8  11
HETATM   11  O   UNK N   1      37.259  14.528  14.681  0.00  0.00    -0.350 OA
HETATM   12  H   UNK N   1      37.508  15.083  15.395  0.00  0.00     0.219 HD
ENDBRANCH   8  11
ENDBRANCH   5   7
BRANCH   4  13
HETATM   13  O   UNK N   1      37.977  13.020  12.020  0.00  0.00    -0.389 OA
HETATM   14  H   UNK N   1      38.889  13.351  12.025  0.00  0.00     0.210 HD
ENDBRANCH   4  13
BRANCH   3  15
HETATM   15  O   UNK N   1      37.482  12.468   9.290  0.00  0.00    -0.390 OA
HETATM   16  H   UNK N   1      37.326  11.516   9.189  0.00  0.00     0.210 HD
ENDBRANCH   3  15
BRANCH   1  17
HETATM   17  C   UNK N   1      34.626  15.815  10.397  0.00  0.00     0.198 C 
BRANCH  17  18
HETATM   18  O   UNK N   1      34.407  17.163  10.099  0.00  0.00    -0.398 OA
HETATM   19  H   UNK N   1      34.616  17.505   9.216  0.00  0.00     0.209 HD
ENDBRANCH  17  18
ENDBRANCH   1  17
BRANCH   2  20
HETATM   20  O   UNK N   1      38.277  14.956  10.167  0.00  0.00    -0.390 OA
HETATM   21  H   UNK N   1      39.134  15.403  10.085  0.00  0.00     0.210 HD
ENDBRANCH   2  20
TORSDOF 7
ENDMDL
MODEL 3
REMARK VINA RESULT:      -4.9      1.925      3.377
REMARK  7 active torsions:
REMARK  status: ('A' for Active; 'I' for Inactive)
REMARK    1  A    between atoms: C_4  and  C_2 
REMARK    2  A    between atoms: O_11  and  C_2 
REMARK    3  A    between atoms: O_12  and  C_3 
REMARK    4  A    between atoms: C_5  and  O_13 
REMARK    5  A    between atoms: C_6  and  O_14 
REMARK    6  A    between atoms: C_7  and  O_15 
REMARK    7  A    between atoms: C_8  and  N_9 
ROOT
HETATM    1  C   UNK N   1      36.577  13.995   9.836  0.00  0.00     0.179 C 
HETATM    2  C   UNK N   1      35.666  15.119   9.274  0.00  0.00     0.180 C 
HETATM    3  C   UNK N   1      35.406  16.201  10.339  0.00  0.00     0.182 C 
HETATM    4  C   UNK N   1      34.929  15.549  11.649  0.00  0.00     0.198 C 
HETATM    5  C   UNK N   1      36.020  14.538  12.072  0.00  0.00     0.254 C 
HETATM    6  O   UNK N   1      36.121  13.509  11.093  0.00  0.00    -0.354 OA
ENDROOT
BRANCH   5   7
HETATM    7  N   UNK N   1      35.877  13.908  13.382  0.00  0.00    -0.346 N 
HETATM    8  C   UNK N   1      36.587  12.982  13.947  0.00  0.00     0.109 C 
HETATM    9  C   UNK N   1      36.188  12.497  15.296  0.00  0.00     0.097 C 
ATOM     10  HN  UNK N   1      35.094  14.250  13.940  1.00  0.00     0.164 HD
BRANCH   8  11
HETATM   11  O   UNK N   1      37.666  12.442  13.357  0.00  0.00    -0.350 OA
HETATM   12  H   UNK N   1      37.950  11.579  13.588  0.00  0.00     0.219 HD
ENDBRANCH   8  11
ENDBRANCH   5   7
BRANCH   4  13
HETATM   13  O   UNK N   1      33.707  14.896  11.450  0.00  0.00    -0.389 OA
HETATM   14  H   UNK N   1      33.114  14.185  11.159  0.00  0.00     0.210 HD
ENDBRANCH   4  13
BRANCH   3  15
HETATM   15  O   UNK N   1      34.462  17.124   9.879  0.00  0.00    -0.390 OA
HETATM   16  H   UNK N   1      34.536  18.058  10.129  0.00  0.00     0.210 HD
ENDBRANCH   3  15
BRANCH   1  17
HETATM   17  C   UNK N   1      38.062  14.362   9.893  0.00  0.00     0.198 C 
BRANCH  17  18
HETATM   18  O   UNK N   1      38.746  13.481  10.735  0.00  0.00    -0.398 OA
HETATM   19  H   UNK N   1      38.323  13.157  11.545  0.00  0.00     0.209 HD
ENDBRANCH  17  18
ENDBRANCH   1  17
BRANCH   2  20
HETATM   20  O   UNK N   1      34.449  14.557   8.880  0.00  0.00    -0.390 OA
HETATM   21  H   UNK N   1      33.482  14.499   8.825  0.00  0.00     0.210 HD
ENDBRANCH   2  20
TORSDOF 7
ENDMDL
MODEL 4
REMARK VINA RESULT:      -4.8      2.017      4.123
REMARK  7 active torsions:
REMARK  status: ('A' for Active; 'I' for Inactive)
REMARK    1  A    between atoms: C_4  and  C_2 
REMARK    2  A    between atoms: O_11  and  C_2 
REMARK    3  A    between atoms: O_12  and  C_3 
REMARK    4  A    between atoms: C_5  and  O_13 
REMARK    5  A    between atoms: C_6  and  O_14 
REMARK    6  A    between atoms: C_7  and  O_15 
REMARK    7  A    between atoms: C_8  and  N_9 
ROOT
HETATM    1  C   UNK N   1      35.725  12.455  11.172  0.00  0.00     0.179 C 
HETATM    2  C   UNK N   1      36.698  13.016  12.244  0.00  0.00     0.180 C 
HETATM    3  C   UNK N   1      36.040  14.160  13.038  0.00  0.00     0.182 C 
HETATM    4  C   UNK N   1      35.441  15.197  12.072  0.00  0.00     0.198 C 
HETATM    5  C   UNK N   1      34.442  14.444  11.163  0.00  0.00     0.254 C 
HETATM    6  O   UNK N   1      35.143  13.484  10.380  0.00  0.00    -0.354 OA
ENDROOT
BRANCH   5   7
HETATM    7  N   UNK N   1      33.616  15.248  10.266  0.00  0.00    -0.346 N 
HETATM    8  C   UNK N   1      32.711  14.884   9.411  0.00  0.00     0.109 C 
HETATM    9  C   UNK N   1      32.039  15.929   8.592  0.00  0.00     0.097 C 
ATOM     10  HN  UNK N   1      33.776  16.254  10.321  1.00  0.00     0.164 HD
BRANCH   8  11
HETATM   11  O   UNK N   1      32.364  13.598   9.234  0.00  0.00    -0.350 OA
HETATM   12  H   UNK N   1      32.643  12.945   9.846  0.00  0.00     0.219 HD
ENDBRANCH   8  11
ENDBRANCH   5   7
BRANCH   4  13
HETATM   13  O   UNK N   1      36.453  15.787  11.305  0.00  0.00    -0.389 OA
HETATM   14  H   UNK N   1      36.837  16.403  10.660  0.00  0.00     0.210 HD
ENDBRANCH   4  13
BRANCH   3  15
HETATM   15  O   UNK N   1      36.969  14.762  13.890  0.00  0.00    -0.390 OA
HETATM   16  H   UNK N   1      37.229  15.686  13.749  0.00  0.00     0.210 HD
ENDBRANCH   3  15
BRANCH   1  17
HETATM   17  C   UNK N   1      34.654  11.514  11.728  0.00  0.00     0.198 C 
BRANCH  17  18
HETATM   18  O   UNK N   1      33.710  11.217  10.741  0.00  0.00    -0.398 OA
HETATM   19  H   UNK N   1      33.716  11.703   9.902  0.00  0.00     0.209 HD
ENDBRANCH  17  18
ENDBRANCH   1  17
BRANCH   2  20
HETATM   20  O   UNK N   1      37.843  13.497  11.604  0.00  0.00    -0.390 OA
HETATM   21  H   UNK N   1      38.568  14.123  11.448  0.00  0.00     0.210 HD
ENDBRANCH   2  20
TORSDOF 7
ENDMDL
MODEL 5
REMARK VINA RESULT:      -4.7      4.046      5.878
REMARK  7 active torsions:
REMARK  status: ('A' for Active; 'I' for Inactive)
REMARK    1  A    between atoms: C_4  and  C_2 
REMARK    2  A    between atoms: O_11  and  C_2 
REMARK    3  A    between atoms: O_12  and  C_3 
REMARK    4  A    between atoms: C_5  and  O_13 
REMARK    5  A    between atoms: C_6  and  O_14 
REMARK    6  A    between atoms: C_7  and  O_15 
REMARK    7  A    between atoms: C_8  and  N_9 
ROOT
HETATM    1  C   UNK N   1      33.911  17.363   9.088  0.00  0.00     0.179 C 
HETATM    2  C   UNK N   1      34.385  15.955   9.540  0.00  0.00     0.180 C 
HETATM    3  C   UNK N   1      33.616  14.850   8.794  0.00  0.00     0.182 C 
HETATM    4  C   UNK N   1      32.101  15.105   8.886  0.00  0.00     0.198 C 
HETATM    5  C   UNK N   1      31.845  16.514   8.304  0.00  0.00     0.254 C 
HETATM    6  O   UNK N   1      32.494  17.489   9.114  0.00  0.00    -0.354 OA
ENDROOT
BRANCH   5   7
HETATM    7  N   UNK N   1      30.454  16.922   8.127  0.00  0.00    -0.346 N 
HETATM    8  C   UNK N   1      29.601  17.384   8.989  0.00  0.00     0.109 C 
HETATM    9  C   UNK N   1      28.219  17.691   8.533  0.00  0.00     0.097 C 
ATOM     10  HN  UNK N   1      30.096  16.830   7.176  1.00  0.00     0.164 HD
BRANCH   8  11
HETATM   11  O   UNK N   1      29.920  17.587  10.278  0.00  0.00    -0.350 OA
HETATM   12  H   UNK N   1      30.354  16.917  10.769  0.00  0.00     0.219 HD
ENDBRANCH   8  11
ENDBRANCH   5   7
BRANCH   4  13
HETATM   13  O   UNK N   1      31.678  15.041  10.220  0.00  0.00    -0.389 OA
HETATM   14  H   UNK N   1      31.767  14.906  11.177  0.00  0.00     0.210 HD
ENDBRANCH   4  13
BRANCH   3  15
HETATM   15  O   UNK N   1      33.934  13.593   9.316  0.00  0.00    -0.390 OA
HETATM   16  H   UNK N   1      34.672  13.500   9.940  0.00  0.00     0.210 HD
ENDBRANCH   3  15
BRANCH   1  17
HETATM   17  C   UNK N   1      34.480  17.813   7.740  0.00  0.00     0.198 C 
BRANCH  17  18
HETATM   18  O   UNK N   1      35.274  18.951   7.906  0.00  0.00    -0.398 OA
HETATM   19  H   UNK N   1      34.858  19.818   8.029  0.00  0.00     0.209 HD
ENDBRANCH  17  18
ENDBRANCH   1  17
BRANCH   2  20
HETATM   20  O   UNK N   1      34.163  15.826  10.914  0.00  0.00    -0.390 OA
HETATM   21  H   UNK N   1      33.621  15.759  11.716  0.00  0.00     0.210 HD
ENDBRANCH   2  20
TORSDOF 7
ENDMDL
MODEL 6
REMARK VINA RESULT:      -4.7      2.769      4.179
REMARK  7 active torsions:
REMARK  status: ('A' for Active; 'I' for Inactive)
REMARK    1  A    between atoms: C_4  and  C_2 
REMARK    2  A    between atoms: O_11  and  C_2 
REMARK    3  A    between atoms: O_12  and  C_3 
REMARK    4  A    between atoms: C_5  and  O_13 
REMARK    5  A    between atoms: C_6  and  O_14 
REMARK    6  A    between atoms: C_7  and  O_15 
REMARK    7  A    between atoms: C_8  and  N_9 
ROOT
HETATM    1  C   UNK N   1      32.287  15.742   7.876  0.00  0.00     0.179 C 
HETATM    2  C   UNK N   1      32.713  17.234   7.820  0.00  0.00     0.180 C 
HETATM    3  C   UNK N   1      34.247  17.368   7.801  0.00  0.00     0.182 C 
HETATM    4  C   UNK N   1      34.864  16.541   8.942  0.00  0.00     0.198 C 
HETATM    5  C   UNK N   1      34.385  15.082   8.753  0.00  0.00     0.254 C 
HETATM    6  O   UNK N   1      32.969  15.024   8.898  0.00  0.00    -0.354 OA
ENDROOT
BRANCH   5   7
HETATM    7  N   UNK N   1      34.973  14.066   9.621  0.00  0.00    -0.346 N 
HETATM    8  C   UNK N   1      34.742  13.796  10.869  0.00  0.00     0.109 C 
HETATM    9  C   UNK N   1      35.523  12.711  11.522  0.00  0.00     0.097 C 
ATOM     10  HN  UNK N   1      35.677  13.477   9.177  1.00  0.00     0.164 HD
BRANCH   8  11
HETATM   11  O   UNK N   1      33.828  14.463  11.592  0.00  0.00    -0.350 OA
HETATM   12  H   UNK N   1      33.258  15.082  11.179  0.00  0.00     0.219 HD
ENDBRANCH   8  11
ENDBRANCH   5   7
BRANCH   4  13
HETATM   13  O   UNK N   1      34.445  17.036  10.183  0.00  0.00    -0.389 OA
HETATM   14  H   UNK N   1      33.811  17.311  10.864  0.00  0.00     0.210 HD
ENDBRANCH   4  13
BRANCH   3  15
HETATM   15  O   UNK N   1      34.622  18.709   7.909  0.00  0.00    -0.390 OA
HETATM   16  H   UNK N   1      35.157  19.121   7.212  0.00  0.00     0.210 HD
ENDBRANCH   3  15
BRANCH   1  17
HETATM   17  C   UNK N   1      32.380  15.013   6.534  0.00  0.00     0.198 C 
BRANCH  17  18
HETATM   18  O   UNK N   1      31.826  13.734   6.638  0.00  0.00    -0.398 OA
HETATM   19  H   UNK N   1      31.678  13.339   7.511  0.00  0.00     0.209 HD
ENDBRANCH  17  18
ENDBRANCH   1  17
BRANCH   2  20
HETATM   20  O   UNK N   1      32.206  17.889   8.946  0.00  0.00    -0.390 OA
HETATM   21  H   UNK N   1      32.222  18.529   9.675  0.00  0.00     0.210 HD
ENDBRANCH   2  20
TORSDOF 7
ENDMDL
MODEL 7
REMARK VINA RESULT:      -4.7      2.432      4.505
REMARK  7 active torsions:
REMARK  status: ('A' for Active; 'I' for Inactive)
REMARK    1  A    between atoms: C_4  and  C_2 
REMARK    2  A    between atoms: O_11  and  C_2 
REMARK    3  A    between atoms: O_12  and  C_3 
REMARK    4  A    between atoms: C_5  and  O_13 
REMARK    5  A    between atoms: C_6  and  O_14 
REMARK    6  A    between atoms: C_7  and  O_15 
REMARK    7  A    between atoms: C_8  and  N_9 
ROOT
HETATM    1  C   UNK N   1      35.640  13.350   9.796  0.00  0.00     0.179 C 
HETATM    2  C   UNK N   1      36.539  13.377  11.062  0.00  0.00     0.180 C 
HETATM    3  C   UNK N   1      35.956  14.321  12.130  0.00  0.00     0.182 C 
HETATM    4  C   UNK N   1      35.638  15.692  11.507  0.00  0.00     0.198 C 
HETATM    5  C   UNK N   1      34.665  15.439  10.332  0.00  0.00     0.254 C 
HETATM    6  O   UNK N   1      35.316  14.657   9.336  0.00  0.00    -0.354 OA
ENDROOT
BRANCH   5   7
HETATM    7  N   UNK N   1      34.083  16.610   9.682  0.00  0.00    -0.346 N 
HETATM    8  C   UNK N   1      33.306  16.692   8.647  0.00  0.00     0.109 C 
HETATM    9  C   UNK N   1      32.884  18.039   8.174  0.00  0.00     0.097 C 
ATOM     10  HN  UNK N   1      34.325  17.504  10.110  1.00  0.00     0.164 HD
BRANCH   8  11
HETATM   11  O   UNK N   1      32.875  15.607   7.983  0.00  0.00    -0.350 OA
HETATM   12  H   UNK N   1      33.422  14.849   7.909  0.00  0.00     0.219 HD
ENDBRANCH   8  11
ENDBRANCH   5   7
BRANCH   4  13
HETATM   13  O   UNK N   1      36.813  16.301  11.048  0.00  0.00    -0.389 OA
HETATM   14  H   UNK N   1      37.620  16.837  11.108  0.00  0.00     0.210 HD
ENDBRANCH   4  13
BRANCH   3  15
HETATM   15  O   UNK N   1      36.846  14.461  13.197  0.00  0.00    -0.390 OA
HETATM   16  H   UNK N   1      36.928  15.315  13.652  0.00  0.00     0.210 HD
ENDBRANCH   3  15
BRANCH   1  17
HETATM   17  C   UNK N   1      34.384  12.487   9.938  0.00  0.00     0.198 C 
BRANCH  17  18
HETATM   18  O   UNK N   1      33.538  12.680   8.843  0.00  0.00    -0.398 OA
HETATM   19  H   UNK N   1      33.173  11.916   8.370  0.00  0.00     0.209 HD
ENDBRANCH  17  18
ENDBRANCH   1  17
BRANCH   2  20
HETATM   20  O   UNK N   1      37.813  13.822  10.698  0.00  0.00    -0.390 OA
HETATM   21  H   UNK N   1      38.595  13.883  10.128  0.00  0.00     0.210 HD
ENDBRANCH   2  20
TORSDOF 7
ENDMDL
MODEL 8
REMARK VINA RESULT:      -4.6      3.823      6.262
REMARK  7 active torsions:
REMARK  status: ('A' for Active; 'I' for Inactive)
REMARK    1  A    between atoms: C_4  and  C_2 
REMARK    2  A    between atoms: O_11  and  C_2 
REMARK    3  A    between atoms: O_12  and  C_3 
REMARK    4  A    between atoms: C_5  and  O_13 
REMARK    5  A    between atoms: C_6  and  O_14 
REMARK    6  A    between atoms: C_7  and  O_15 
REMARK    7  A    between atoms: C_8  and  N_9 
ROOT
HETATM    1  C   UNK N   1      34.608  16.048   7.773  0.00  0.00     0.179 C 
HETATM    2  C   UNK N   1      34.551  15.987   9.323  0.00  0.00     0.180 C 
HETATM    3  C   UNK N   1      33.559  14.908   9.795  0.00  0.00     0.182 C 
HETATM    4  C   UNK N   1      32.206  15.086   9.085  0.00  0.00     0.198 C 
HETATM    5  C   UNK N   1      32.483  15.025   7.564  0.00  0.00     0.254 C 
HETATM    6  O   UNK N   1      33.312  16.119   7.188  0.00  0.00    -0.354 OA
ENDROOT
BRANCH   5   7
HETATM    7  N   UNK N   1      31.326  15.003   6.673  0.00  0.00    -0.346 N 
HETATM    8  C   UNK N   1      30.535  15.963   6.306  0.00  0.00     0.109 C 
HETATM    9  C   UNK N   1      29.398  15.645   5.401  0.00  0.00     0.097 C 
ATOM     10  HN  UNK N   1      31.106  14.089   6.278  1.00  0.00     0.164 HD
BRANCH   8  11
HETATM   11  O   UNK N   1      30.702  17.230   6.718  0.00  0.00    -0.350 OA
HETATM   12  H   UNK N   1      31.405  17.450   7.297  0.00  0.00     0.219 HD
ENDBRANCH   8  11
ENDBRANCH   5   7
BRANCH   4  13
HETATM   13  O   UNK N   1      31.634  16.317   9.429  0.00  0.00    -0.389 OA
HETATM   14  H   UNK N   1      31.473  17.272   9.368  0.00  0.00     0.210 HD
ENDBRANCH   4  13
BRANCH   3  15
HETATM   15  O   UNK N   1      33.396  14.965  11.182  0.00  0.00    -0.390 OA
HETATM   16  H   UNK N   1      33.717  14.238  11.739  0.00  0.00     0.210 HD
ENDBRANCH   3  15
BRANCH   1  17
HETATM   17  C   UNK N   1      35.442  14.936   7.132  0.00  0.00     0.198 C 
BRANCH  17  18
HETATM   18  O   UNK N   1      35.869  15.323   5.859  0.00  0.00    -0.398 OA
HETATM   19  H   UNK N   1      35.993  16.262   5.654  0.00  0.00     0.209 HD
ENDBRANCH  17  18
ENDBRANCH   1  17
BRANCH   2  20
HETATM   20  O   UNK N   1      34.142  17.233   9.807  0.00  0.00    -0.390 OA
HETATM   21  H   UNK N   1      33.700  17.836  10.425  0.00  0.00     0.210 HD
ENDBRANCH   2  20
TORSDOF 7
ENDMDL
MODEL 9
REMARK VINA RESULT:      -4.6      3.958      6.131
REMARK  7 active torsions:
REMARK  status: ('A' for Active; 'I' for Inactive)
REMARK    1  A    between atoms: C_4  and  C_2 
REMARK    2  A    between atoms: O_11  and  C_2 
REMARK    3  A    between atoms: O_12  and  C_3 
REMARK    4  A    between atoms: C_5  and  O_13 
REMARK    5  A    between atoms: C_6  and  O_14 
REMARK    6  A    between atoms: C_7  and  O_15 
REMARK    7  A    between atoms: C_8  and  N_9 
ROOT
HETATM    1  C   UNK N   1      33.816  15.412   8.815  0.00  0.00     0.179 C 
HETATM    2  C   UNK N   1      34.774  16.468   8.200  0.00  0.00     0.180 C 
HETATM    3  C   UNK N   1      34.244  17.895   8.435  0.00  0.00     0.182 C 
HETATM    4  C   UNK N   1      32.773  17.991   7.992  0.00  0.00     0.198 C 
HETATM    5  C   UNK N   1      31.991  16.920   8.788  0.00  0.00     0.254 C 
HETATM    6  O   UNK N   1      32.462  15.624   8.432  0.00  0.00    -0.354 OA
ENDROOT
BRANCH   5   7
HETATM    7  N   UNK N   1      30.536  16.924   8.665  0.00  0.00    -0.346 N 
HETATM    8  C   UNK N   1      29.648  17.650   9.271  0.00  0.00     0.109 C 
HETATM    9  C   UNK N   1      28.209  17.416   8.972  0.00  0.00     0.097 C 
ATOM     10  HN  UNK N   1      30.159  16.251   7.998  1.00  0.00     0.164 HD
BRANCH   8  11
HETATM   11  O   UNK N   1      29.979  18.599  10.161  0.00  0.00    -0.350 OA
HETATM   12  H   UNK N   1      30.870  18.878  10.245  0.00  0.00     0.219 HD
ENDBRANCH   8  11
ENDBRANCH   5   7
BRANCH   4  13
HETATM   13  O   UNK N   1      32.663  17.755   6.616  0.00  0.00    -0.389 OA
HETATM   14  H   UNK N   1      32.455  17.962   5.691  0.00  0.00     0.210 HD
ENDBRANCH   4  13
BRANCH   3  15
HETATM   15  O   UNK N   1      35.025  18.827   7.747  0.00  0.00    -0.390 OA
HETATM   16  H   UNK N   1      35.454  19.550   8.229  0.00  0.00     0.210 HD
ENDBRANCH   3  15
BRANCH   1  17
HETATM   17  C   UNK N   1      33.942  15.260  10.333  0.00  0.00     0.198 C 
BRANCH  17  18
HETATM   18  O   UNK N   1      32.694  14.983  10.897  0.00  0.00    -0.398 OA
HETATM   19  H   UNK N   1      32.549  14.150  11.371  0.00  0.00     0.209 HD
ENDBRANCH  17  18
ENDBRANCH   1  17
BRANCH   2  20
HETATM   20  O   UNK N   1      34.880  16.234   6.827  0.00  0.00    -0.390 OA
HETATM   21  H   UNK N   1      35.231  15.805   6.031  0.00  0.00     0.210 HD
ENDBRANCH   2  20
TORSDOF 7
ENDMDL
