REMARK  21 active torsions:
REMARK  status: ('A' for Active; 'I' for Inactive)
REMARK    1  A    between atoms: C_3  and  N_1 
REMARK    2  A    between atoms: C_9  and  O_47 
REMARK    3  A    between atoms: C_12  and  N_18 
REMARK    4  A    between atoms: C_14  and  C_19 
REMARK    5  A    between atoms: C_15  and  O_20 
REMARK    6  A    between atoms: C_19  and  O_21 
REMARK    7  A    between atoms: O_21  and  P_45 
REMARK    8  A    between atoms: O_22  and  C_23 
REMARK    9  A    between atoms: P_43  and  O_22 
REMARK   10  A    between atoms: C_24  and  C_23 
REMARK   11  A    between atoms: C_26  and  O_29 
REMARK   12  A    between atoms: C_27  and  N_30 
REMARK   13  A    between atoms: C_28  and  O_31 
REMARK   14  A    between atoms: C_34  and  C_37 
REMARK       I    between atoms: C_37  and  N_39 
REMARK   15  A    between atoms: P_45  and  O_40 
REMARK   16  A    between atoms: O_40  and  P_43 
REMARK   17  A    between atoms: P_43  and  O_44 
REMARK   18  A    between atoms: P_45  and  O_46 
REMARK   19  A    between atoms: O_47  and  P_50 
REMARK   20  A    between atoms: P_50  and  O_49 
REMARK   21  A    between atoms: P_50  and  O_51 
ROOT
HETATM    1  O   UNK N   1       2.350  -2.068   0.227  0.00  0.00    -0.294 OA
ENDROOT
BRANCH   1   2
HETATM    2  C   UNK N   1       2.115  -1.680  -1.103  0.00  0.00     0.215 C 
BRANCH   2   3
HETATM    3  C   UNK N   1       3.080  -0.573  -1.600  0.00  0.00     0.180 C 
HETATM    4  O   UNK N   1       2.739   0.673  -1.053  0.00  0.00    -0.353 OA
HETATM    5  C   UNK N   1       3.515   0.804   0.121  0.00  0.00     0.263 C 
HETATM    6  C   UNK N   1       4.584  -0.306   0.177  0.00  0.00     0.214 C 
HETATM    7  C   UNK N   1       4.537  -0.785  -1.257  0.00  0.00     0.183 C 
BRANCH   5   8
HETATM    8  N   UNK N   1       3.990   2.177   0.282  0.00  0.00    -0.297 N 
HETATM    9  C   UNK N   1       5.055   2.794  -0.248  0.00  0.00     0.142 A 
HETATM   10  C   UNK N   1       5.100   4.063   0.202  0.00  0.00     0.122 A 
HETATM   11  N   UNK N   1       5.995   2.281  -1.077  0.00  0.00    -0.336 N 
HETATM   12  C   UNK N   1       6.137   4.898  -0.177  0.00  0.00     0.131 A 
HETATM   13  N   UNK N   1       4.056   4.299   1.016  0.00  0.00    -0.346 N 
HETATM   14  N   UNK N   1       7.100   4.389  -1.002  0.00  0.00    -0.337 N 
HETATM   15  C   UNK N   1       7.032   3.092  -1.452  0.00  0.00     0.183 A 
ATOM     16  HN  UNK N   1       7.879   4.981  -1.289  1.00  0.00     0.168 HD
HETATM   17  C   UNK N   1       3.385   3.114   1.054  0.00  0.00     0.188 A 
ATOM     18  HN  UNK N   1       3.820   5.168   1.496  1.00  0.00     0.167 HD
ATOM     19  HN  UNK N   1       5.932   1.320  -1.411  1.00  0.00     0.168 HD
BRANCH  12  20
HETATM   20  N   UNK N   1       6.213   6.227   0.284  0.00  0.00    -0.383 N 
HETATM   21  H   UNK N   1       7.043   6.646   0.606  0.00  0.00     0.157 HD
HETATM   22  H   UNK N   1       5.389   6.767   0.284  0.00  0.00     0.157 HD
ENDBRANCH  12  20
ENDBRANCH   5   8
BRANCH   6  23
HETATM   23  O   UNK N   1       5.824   0.193   0.634  0.00  0.00    -0.284 OA
BRANCH  23  24
HETATM   24  P   UNK N   1       7.112  -0.965   0.390  0.00  0.00     0.391 P 
HETATM   25  O   UNK N   1       6.644  -2.360   0.887  0.00  0.00    -0.632 OA
BRANCH  24  26
HETATM   26  O   UNK N   1       8.503  -0.530   1.330  0.00  0.00    -0.307 OA
HETATM   27  H   UNK N   1       9.103  -1.082   1.856  0.00  0.00     0.222 HD
ENDBRANCH  24  26
BRANCH  24  28
HETATM   28  O   UNK N   1       7.543  -1.094  -1.288  0.00  0.00    -0.307 OA
HETATM   29  H   UNK N   1       7.601  -1.339  -2.225  0.00  0.00     0.222 HD
ENDBRANCH  24  28
ENDBRANCH  23  24
ENDBRANCH   6  23
BRANCH   7  30
HETATM   30  O   UNK N   1       4.893  -2.130  -1.390  0.00  0.00    -0.390 OA
HETATM   31  H   UNK N   1       4.209  -2.811  -1.482  0.00  0.00     0.210 HD
ENDBRANCH   7  30
ENDBRANCH   2   3
ENDBRANCH   1   2
BRANCH   1  32
HETATM   32  P   UNK N   1       1.283  -1.134   1.245  0.00  0.00     0.401 P 
HETATM   33  O   UNK N   1       0.265  -2.096   1.919  0.00  0.00    -0.631 OA
BRANCH  32  34
HETATM   34  O   UNK N   1       0.464   0.155   0.374  0.00  0.00    -0.195 OA
BRANCH  34  35
HETATM   35  P   UNK N   1      -0.952  -0.502  -0.399  0.00  0.00     0.401 P 
HETATM   36  O   UNK N   1      -1.181  -2.037  -0.302  0.00  0.00    -0.631 OA
BRANCH  35  37
HETATM   37  O   UNK N   1      -2.332   0.453  -0.873  0.00  0.00    -0.294 OA
BRANCH  37  38
HETATM   38  C   UNK N   1      -3.341  -0.424  -1.310  0.00  0.00     0.215 C 
BRANCH  38  39
HETATM   39  C   UNK N   1      -3.991  -1.222  -0.165  0.00  0.00     0.180 C 
HETATM   40  O   UNK N   1      -4.142  -0.467   1.026  0.00  0.00    -0.353 OA
HETATM   41  C   UNK N   1      -5.479  -0.050   1.068  0.00  0.00     0.259 C 
HETATM   42  C   UNK N   1      -6.259  -1.178   0.411  0.00  0.00     0.198 C 
HETATM   43  C   UNK N   1      -5.334  -1.744  -0.613  0.00  0.00     0.182 C 
BRANCH  41  44
HETATM   44  N   UNK N   1      -5.612   1.290   0.501  0.00  0.00    -0.337 N 
HETATM   45  C   UNK N   1      -4.457   2.131   0.412  0.00  0.00     0.106 A 
HETATM   46  C   UNK N   1      -4.548   3.443   0.132  0.00  0.00     0.028 A 
HETATM   47  C   UNK N   1      -5.893   4.087  -0.108  0.00  0.00     0.074 A 
HETATM   48  C   UNK N   1      -7.064   3.153   0.044  0.00  0.00    -0.005 A 
HETATM   49  C   UNK N   1      -6.906   1.860   0.346  0.00  0.00     0.089 A 
BRANCH  46  50
HETATM   50  C   UNK N   1      -3.326   4.284   0.091  0.00  0.00     0.246 C 
HETATM   51  O   UNK N   1      -3.416   5.482  -0.127  0.00  0.00    -0.268 OA
HETATM   52  N   UNK N   1      -2.110   3.741   0.312  0.00  0.00    -0.366 N 
HETATM   53  H   UNK N   1      -2.009   2.775   0.473  0.00  0.00     0.159 HD
HETATM   54  H   UNK N   1      -1.313   4.320   0.312  0.00  0.00     0.159 HD
ENDBRANCH  46  50
ENDBRANCH  41  44
BRANCH  42  55
HETATM   55  O   UNK N   1      -7.492  -0.813  -0.126  0.00  0.00    -0.388 OA
HETATM   56  H   UNK N   1      -7.702   0.058  -0.499  0.00  0.00     0.210 HD
ENDBRANCH  42  55
BRANCH  43  57
HETATM   57  O   UNK N   1      -5.347  -3.136  -0.512  0.00  0.00    -0.390 OA
HETATM   58  H   UNK N   1      -6.190  -3.612  -0.442  0.00  0.00     0.210 HD
ENDBRANCH  43  57
ENDBRANCH  38  39
ENDBRANCH  37  38
ENDBRANCH  35  37
BRANCH  35  59
HETATM   59  O   UNK N   1      -1.612  -0.336   1.190  0.00  0.00    -0.307 OA
HETATM   60  H   UNK N   1      -1.717   0.032   2.081  0.00  0.00     0.222 HD
ENDBRANCH  35  59
ENDBRANCH  34  35
ENDBRANCH  32  34
BRANCH  32  61
HETATM   61  O   UNK N   1       2.187  -0.437   2.552  0.00  0.00    -0.307 OA
HETATM   62  H   UNK N   1       2.776  -0.680   3.283  0.00  0.00     0.222 HD
ENDBRANCH  32  61
ENDBRANCH   1  32
TORSDOF 21
