MODEL 1
REMARK VINA RESULT:      -6.3      0.000      0.000
REMARK  6 active torsions:
REMARK  status: ('A' for Active; 'I' for Inactive)
REMARK    1  A    between atoms: C_6  and  C_3 
REMARK    2  A    between atoms: S_21  and  C_3 
REMARK    3  A    between atoms: C_8  and  C_5 
REMARK    4  A    between atoms: C_10  and  O_19 
REMARK    5  A    between atoms: C_11  and  O_20 
REMARK    6  A    between atoms: N_13  and  C_12 
ROOT
HETATM    1  C   UNK N   1      35.742  15.959  11.503  0.00  0.00     0.100 A 
HETATM    2  C   UNK N   1      34.843  15.401   7.127  0.00  0.00     0.178 A 
HETATM    3  C   UNK N   1      36.027  14.979  10.555  0.00  0.00     0.011 A 
HETATM    4  C   UNK N   1      35.500  15.446   9.371  0.00  0.00     0.069 A 
HETATM    5  C   UNK N   1      34.942  16.656   9.617  0.00  0.00     0.079 A 
HETATM    6  C   UNK N   1      34.183  17.405   8.563  0.00  0.00     0.229 A 
HETATM    7  N   UNK N   1      35.093  16.996  10.910  0.00  0.00    -0.364 N 
HETATM    8  N   UNK N   1      35.440  14.813   8.112  0.00  0.00    -0.350 N 
ATOM      9  HN  UNK N   1      35.864  13.894   7.980  1.00  0.00     0.166 HD
HETATM   10  N   UNK N   1      34.209  16.678   7.298  0.00  0.00    -0.360 N 
HETATM   11  H   UNK N   1      34.793  17.829  11.341  0.00  0.00     0.165 HD
HETATM   12  H   UNK N   1      33.767  17.086   6.518  0.00  0.00     0.162 HD
ENDROOT
BRANCH   3  13
HETATM   13  C   UNK N   1      36.484  13.557  10.808  0.00  0.00     0.145 C 
HETATM   14  C   UNK N   1      35.412  12.463  10.949  0.00  0.00     0.175 C 
HETATM   15  C   UNK N   1      35.187  12.413  12.438  0.00  0.00     0.172 C 
HETATM   16  C   UNK N   1      36.641  12.507  12.907  0.00  0.00     0.118 C 
HETATM   17  N   UNK N   1      37.279  13.504  12.046  0.00  0.00    -0.403 N 
HETATM   18  H   UNK N   1      38.109  14.055  12.261  0.00  0.00     0.154 HD
BRANCH  14  19
HETATM   19  O   UNK N   1      34.246  12.673  10.207  0.00  0.00    -0.391 OA
HETATM   20  H   UNK N   1      33.569  13.341  10.396  0.00  0.00     0.210 HD
ENDBRANCH  14  19
BRANCH  15  21
HETATM   21  O   UNK N   1      34.466  13.539  12.852  0.00  0.00    -0.391 OA
HETATM   22  H   UNK N   1      34.248  14.484  12.826  0.00  0.00     0.210 HD
ENDBRANCH  15  21
BRANCH  16  23
HETATM   23  C   UNK N   1      36.783  12.899  14.374  0.00  0.00     0.100 C 
BRANCH  23  24
HETATM   24  S   UNK N   1      36.077  11.643  15.483  0.00  0.00    -0.171 SA
HETATM   25  C   UNK N   1      35.057  12.885  16.328  0.00  0.00     0.089 C 
ENDBRANCH  23  24
ENDBRANCH  16  23
ENDBRANCH   3  13
BRANCH   6  26
HETATM   26  N   UNK N   1      34.755  18.725   8.378  0.00  0.00    -0.406 N 
HETATM   27  H   UNK N   1      34.922  19.689   8.086  0.00  0.00     0.152 HD
HETATM   28  H   UNK N   1      35.590  18.602   8.950  0.00  0.00     0.152 HD
ENDBRANCH   6  26
TORSDOF 6
ENDMDL
MODEL 2
REMARK VINA RESULT:      -5.8      4.213      6.217
REMARK  6 active torsions:
REMARK  status: ('A' for Active; 'I' for Inactive)
REMARK    1  A    between atoms: C_6  and  C_3 
REMARK    2  A    between atoms: S_21  and  C_3 
REMARK    3  A    between atoms: C_8  and  C_5 
REMARK    4  A    between atoms: C_10  and  O_19 
REMARK    5  A    between atoms: C_11  and  O_20 
REMARK    6  A    between atoms: N_13  and  C_12 
ROOT
HETATM    1  C   UNK N   1      31.460  17.130   6.282  0.00  0.00     0.100 A 
HETATM    2  C   UNK N   1      28.994  18.389   9.832  0.00  0.00     0.178 A 
HETATM    3  C   UNK N   1      31.721  17.369   7.629  0.00  0.00     0.011 A 
HETATM    4  C   UNK N   1      30.503  17.679   8.192  0.00  0.00     0.069 A 
HETATM    5  C   UNK N   1      29.567  17.611   7.215  0.00  0.00     0.079 A 
HETATM    6  C   UNK N   1      28.139  17.992   7.460  0.00  0.00     0.229 A 
HETATM    7  N   UNK N   1      30.128  17.260   6.043  0.00  0.00    -0.364 N 
HETATM    8  N   UNK N   1      30.209  18.082   9.512  0.00  0.00    -0.350 N 
ATOM      9  HN  UNK N   1      30.951  18.131  10.210  1.00  0.00     0.166 HD
HETATM   10  N   UNK N   1      27.939  18.361   8.859  0.00  0.00    -0.360 N 
HETATM   11  H   UNK N   1      29.666  17.125   5.184  0.00  0.00     0.165 HD
HETATM   12  H   UNK N   1      27.031  18.604   9.150  0.00  0.00     0.162 HD
ENDROOT
BRANCH   3  13
HETATM   13  C   UNK N   1      33.070  17.601   8.280  0.00  0.00     0.145 C 
HETATM   14  C   UNK N   1      34.332  17.433   7.415  0.00  0.00     0.175 C 
HETATM   15  C   UNK N   1      34.713  15.997   7.667  0.00  0.00     0.172 C 
HETATM   16  C   UNK N   1      34.476  15.943   9.178  0.00  0.00     0.118 C 
HETATM   17  N   UNK N   1      33.237  16.683   9.418  0.00  0.00    -0.403 N 
HETATM   18  H   UNK N   1      32.610  16.582  10.216  0.00  0.00     0.154 HD
BRANCH  14  19
HETATM   19  O   UNK N   1      34.173  17.748   6.063  0.00  0.00    -0.391 OA
HETATM   20  H   UNK N   1      34.891  17.886   5.427  0.00  0.00     0.210 HD
ENDBRANCH  14  19
BRANCH  15  21
HETATM   21  O   UNK N   1      33.826  15.142   7.002  0.00  0.00    -0.391 OA
HETATM   22  H   UNK N   1      32.948  14.764   6.838  0.00  0.00     0.210 HD
ENDBRANCH  15  21
BRANCH  16  23
HETATM   23  C   UNK N   1      34.366  14.523   9.725  0.00  0.00     0.100 C 
BRANCH  23  24
HETATM   24  S   UNK N   1      34.931  14.415  11.449  0.00  0.00    -0.171 SA
HETATM   25  C   UNK N   1      36.108  15.776  11.207  0.00  0.00     0.089 C 
ENDBRANCH  23  24
ENDBRANCH  16  23
ENDBRANCH   3  13
BRANCH   6  26
HETATM   26  N   UNK N   1      27.260  16.889   7.118  0.00  0.00    -0.406 N 
HETATM   27  H   UNK N   1      26.788  15.985   7.089  0.00  0.00     0.152 HD
HETATM   28  H   UNK N   1      26.742  17.346   6.367  0.00  0.00     0.152 HD
ENDBRANCH   6  26
TORSDOF 6
ENDMDL
MODEL 3
REMARK VINA RESULT:      -5.6      4.110      7.110
REMARK  6 active torsions:
REMARK  status: ('A' for Active; 'I' for Inactive)
REMARK    1  A    between atoms: C_6  and  C_3 
REMARK    2  A    between atoms: S_21  and  C_3 
REMARK    3  A    between atoms: C_8  and  C_5 
REMARK    4  A    between atoms: C_10  and  O_19 
REMARK    5  A    between atoms: C_11  and  O_20 
REMARK    6  A    between atoms: N_13  and  C_12 
ROOT
HETATM    1  C   UNK N   1      34.867  15.346   7.115  0.00  0.00     0.100 A 
HETATM    2  C   UNK N   1      35.440  16.546  11.417  0.00  0.00     0.178 A 
HETATM    3  C   UNK N   1      34.396  16.379   7.922  0.00  0.00     0.011 A 
HETATM    4  C   UNK N   1      35.000  16.197   9.146  0.00  0.00     0.069 A 
HETATM    5  C   UNK N   1      35.802  15.109   9.052  0.00  0.00     0.079 A 
HETATM    6  C   UNK N   1      36.536  14.564  10.240  0.00  0.00     0.229 A 
HETATM    7  N   UNK N   1      35.749  14.584   7.815  0.00  0.00    -0.364 N 
HETATM    8  N   UNK N   1      34.814  16.914  10.346  0.00  0.00    -0.350 N 
ATOM      9  HN  UNK N   1      34.188  17.720  10.370  1.00  0.00     0.166 HD
HETATM   10  N   UNK N   1      36.299  15.395  11.416  0.00  0.00    -0.360 N 
HETATM   11  H   UNK N   1      36.248  13.803   7.482  0.00  0.00     0.165 HD
HETATM   12  H   UNK N   1      36.753  15.154  12.255  0.00  0.00     0.162 HD
ENDROOT
BRANCH   3  13
HETATM   13  C   UNK N   1      33.214  17.290   7.657  0.00  0.00     0.145 C 
HETATM   14  C   UNK N   1      31.852  16.909   8.263  0.00  0.00     0.175 C 
HETATM   15  C   UNK N   1      31.206  16.125   7.150  0.00  0.00     0.172 C 
HETATM   16  C   UNK N   1      31.603  17.009   5.966  0.00  0.00     0.118 C 
HETATM   17  N   UNK N   1      32.991  17.405   6.207  0.00  0.00    -0.403 N 
HETATM   18  H   UNK N   1      33.672  17.700   5.507  0.00  0.00     0.154 HD
BRANCH  14  19
HETATM   19  O   UNK N   1      31.913  16.222   9.478  0.00  0.00    -0.391 OA
HETATM   20  H   UNK N   1      31.628  16.568  10.338  0.00  0.00     0.210 HD
ENDBRANCH  14  19
BRANCH  15  21
HETATM   21  O   UNK N   1      31.804  14.864   7.041  0.00  0.00    -0.391 OA
HETATM   22  H   UNK N   1      32.247  14.082   7.407  0.00  0.00     0.210 HD
ENDBRANCH  15  21
BRANCH  16  23
HETATM   23  C   UNK N   1      31.471  16.312   4.616  0.00  0.00     0.100 C 
BRANCH  23  24
HETATM   24  S   UNK N   1      32.613  17.003   3.381  0.00  0.00    -0.171 SA
HETATM   25  C   UNK N   1      33.435  15.399   3.164  0.00  0.00     0.089 C 
ENDBRANCH  23  24
ENDBRANCH  16  23
ENDBRANCH   3  13
BRANCH   6  26
HETATM   26  N   UNK N   1      37.959  14.504   9.965  0.00  0.00    -0.406 N 
HETATM   27  H   UNK N   1      38.972  14.623  10.010  0.00  0.00     0.152 HD
HETATM   28  H   UNK N   1      37.919  13.930   9.123  0.00  0.00     0.152 HD
ENDBRANCH   6  26
TORSDOF 6
ENDMDL
MODEL 4
REMARK VINA RESULT:      -5.6      3.239      6.483
REMARK  6 active torsions:
REMARK  status: ('A' for Active; 'I' for Inactive)
REMARK    1  A    between atoms: C_6  and  C_3 
REMARK    2  A    between atoms: S_21  and  C_3 
REMARK    3  A    between atoms: C_8  and  C_5 
REMARK    4  A    between atoms: C_10  and  O_19 
REMARK    5  A    between atoms: C_11  and  O_20 
REMARK    6  A    between atoms: N_13  and  C_12 
ROOT
HETATM    1  C   UNK N   1      34.677  12.954  10.393  0.00  0.00     0.100 A 
HETATM    2  C   UNK N   1      36.518  14.642  14.140  0.00  0.00     0.178 A 
HETATM    3  C   UNK N   1      35.537  14.011  10.680  0.00  0.00     0.011 A 
HETATM    4  C   UNK N   1      35.753  13.954  12.039  0.00  0.00     0.069 A 
HETATM    5  C   UNK N   1      35.056  12.898  12.523  0.00  0.00     0.079 A 
HETATM    6  C   UNK N   1      34.986  12.605  13.992  0.00  0.00     0.229 A 
HETATM    7  N   UNK N   1      34.406  12.263  11.532  0.00  0.00    -0.364 N 
HETATM    8  N   UNK N   1      36.482  14.838  12.862  0.00  0.00    -0.350 N 
ATOM      9  HN  UNK N   1      36.980  15.628  12.451  1.00  0.00     0.166 HD
HETATM   10  N   UNK N   1      35.797  13.556  14.745  0.00  0.00    -0.360 N 
HETATM   11  H   UNK N   1      33.844  11.458  11.616  0.00  0.00     0.165 HD
HETATM   12  H   UNK N   1      35.854  13.448  15.722  0.00  0.00     0.162 HD
ENDROOT
BRANCH   3  13
HETATM   13  C   UNK N   1      35.881  15.187   9.788  0.00  0.00     0.145 C 
HETATM   14  C   UNK N   1      35.217  16.543  10.084  0.00  0.00     0.175 C 
HETATM   15  C   UNK N   1      34.003  16.515   9.193  0.00  0.00     0.172 C 
HETATM   16  C   UNK N   1      34.639  15.926   7.932  0.00  0.00     0.118 C 
HETATM   17  N   UNK N   1      35.539  14.868   8.393  0.00  0.00    -0.403 N 
HETATM   18  H   UNK N   1      35.865  14.066   7.853  0.00  0.00     0.154 HD
BRANCH  14  19
HETATM   19  O   UNK N   1      34.927  16.781  11.430  0.00  0.00    -0.391 OA
HETATM   20  H   UNK N   1      35.090  16.165  12.161  0.00  0.00     0.210 HD
ENDBRANCH  14  19
BRANCH  15  21
HETATM   21  O   UNK N   1      33.045  15.637   9.714  0.00  0.00    -0.391 OA
HETATM   22  H   UNK N   1      32.495  15.284  10.431  0.00  0.00     0.210 HD
ENDBRANCH  15  21
BRANCH  16  23
HETATM   23  C   UNK N   1      33.621  15.369   6.942  0.00  0.00     0.100 C 
BRANCH  23  24
HETATM   24  S   UNK N   1      34.041  15.796   5.225  0.00  0.00    -0.171 SA
HETATM   25  C   UNK N   1      33.364  17.469   5.419  0.00  0.00     0.089 C 
ENDBRANCH  23  24
ENDBRANCH  16  23
ENDBRANCH   3  13
BRANCH   6  26
HETATM   26  N   UNK N   1      35.448  11.255  14.256  0.00  0.00    -0.406 N 
HETATM   27  H   UNK N   1      36.024  10.441  14.470  0.00  0.00     0.152 HD
HETATM   28  H   UNK N   1      34.553  10.775  14.159  0.00  0.00     0.152 HD
ENDBRANCH   6  26
TORSDOF 6
ENDMDL
MODEL 5
REMARK VINA RESULT:      -5.5      5.894      7.900
REMARK  6 active torsions:
REMARK  status: ('A' for Active; 'I' for Inactive)
REMARK    1  A    between atoms: C_6  and  C_3 
REMARK    2  A    between atoms: S_21  and  C_3 
REMARK    3  A    between atoms: C_8  and  C_5 
REMARK    4  A    between atoms: C_10  and  O_19 
REMARK    5  A    between atoms: C_11  and  O_20 
REMARK    6  A    between atoms: N_13  and  C_12 
ROOT
HETATM    1  C   UNK N   1      30.610  16.983   5.504  0.00  0.00     0.100 A 
HETATM    2  C   UNK N   1      28.398  18.062   9.274  0.00  0.00     0.178 A 
HETATM    3  C   UNK N   1      30.664  16.569   6.832  0.00  0.00     0.011 A 
HETATM    4  C   UNK N   1      29.669  17.267   7.479  0.00  0.00     0.069 A 
HETATM    5  C   UNK N   1      29.050  18.049   6.561  0.00  0.00     0.079 A 
HETATM    6  C   UNK N   1      27.979  19.023   6.947  0.00  0.00     0.229 A 
HETATM    7  N   UNK N   1      29.598  17.878   5.344  0.00  0.00    -0.364 N 
HETATM    8  N   UNK N   1      29.341  17.285   8.851  0.00  0.00    -0.350 N 
ATOM      9  HN  UNK N   1      29.845  16.687   9.506  1.00  0.00     0.166 HD
HETATM   10  N   UNK N   1      27.697  18.938   8.377  0.00  0.00    -0.360 N 
HETATM   11  H   UNK N   1      29.322  18.315   4.506  0.00  0.00     0.165 HD
HETATM   12  H   UNK N   1      26.987  19.511   8.746  0.00  0.00     0.162 HD
ENDROOT
BRANCH   3  13
HETATM   13  C   UNK N   1      31.781  15.804   7.514  0.00  0.00     0.145 C 
HETATM   14  C   UNK N   1      32.800  16.598   8.350  0.00  0.00     0.175 C 
HETATM   15  C   UNK N   1      33.900  16.868   7.356  0.00  0.00     0.172 C 
HETATM   16  C   UNK N   1      33.958  15.498   6.678  0.00  0.00     0.118 C 
HETATM   17  N   UNK N   1      32.568  15.073   6.508  0.00  0.00    -0.403 N 
HETATM   18  H   UNK N   1      32.214  14.404   5.825  0.00  0.00     0.154 HD
BRANCH  14  19
HETATM   19  O   UNK N   1      32.297  17.748   8.965  0.00  0.00    -0.391 OA
HETATM   20  H   UNK N   1      31.880  17.784   9.840  0.00  0.00     0.210 HD
ENDBRANCH  14  19
BRANCH  15  21
HETATM   21  O   UNK N   1      33.492  17.849   6.444  0.00  0.00    -0.391 OA
HETATM   22  H   UNK N   1      33.032  18.148   5.643  0.00  0.00     0.210 HD
ENDBRANCH  15  21
BRANCH  16  23
HETATM   23  C   UNK N   1      34.681  15.515   5.335  0.00  0.00     0.100 C 
BRANCH  23  24
HETATM   24  S   UNK N   1      33.563  15.117   3.958  0.00  0.00    -0.171 SA
HETATM   25  C   UNK N   1      34.712  13.868   3.314  0.00  0.00     0.089 C 
ENDBRANCH  23  24
ENDBRANCH  16  23
ENDBRANCH   3  13
BRANCH   6  26
HETATM   26  N   UNK N   1      26.766  18.758   6.195  0.00  0.00    -0.406 N 
HETATM   27  H   UNK N   1      25.930  18.854   5.619  0.00  0.00     0.152 HD
HETATM   28  H   UNK N   1      26.709  17.753   6.364  0.00  0.00     0.152 HD
ENDBRANCH   6  26
TORSDOF 6
ENDMDL
MODEL 6
REMARK VINA RESULT:      -5.5      4.434      6.910
REMARK  6 active torsions:
REMARK  status: ('A' for Active; 'I' for Inactive)
REMARK    1  A    between atoms: C_6  and  C_3 
REMARK    2  A    between atoms: S_21  and  C_3 
REMARK    3  A    between atoms: C_8  and  C_5 
REMARK    4  A    between atoms: C_10  and  O_19 
REMARK    5  A    between atoms: C_11  and  O_20 
REMARK    6  A    between atoms: N_13  and  C_12 
ROOT
HETATM    1  C   UNK N   1      33.528  16.583   8.921  0.00  0.00     0.100 A 
HETATM    2  C   UNK N   1      37.044  13.797   9.311  0.00  0.00     0.178 A 
HETATM    3  C   UNK N   1      33.979  15.460   8.231  0.00  0.00     0.011 A 
HETATM    4  C   UNK N   1      35.106  15.041   8.901  0.00  0.00     0.069 A 
HETATM    5  C   UNK N   1      35.298  15.879   9.948  0.00  0.00     0.079 A 
HETATM    6  C   UNK N   1      36.502  15.773  10.835  0.00  0.00     0.229 A 
HETATM    7  N   UNK N   1      34.336  16.818   9.989  0.00  0.00    -0.364 N 
HETATM    8  N   UNK N   1      35.997  13.996   8.578  0.00  0.00    -0.350 N 
ATOM      9  HN  UNK N   1      35.816  13.400   7.770  1.00  0.00     0.166 HD
HETATM   10  N   UNK N   1      37.337  14.644  10.433  0.00  0.00    -0.360 N 
HETATM   11  H   UNK N   1      34.236  17.533  10.659  0.00  0.00     0.165 HD
HETATM   12  H   UNK N   1      38.146  14.454  10.961  0.00  0.00     0.162 HD
ENDROOT
BRANCH   3  13
HETATM   13  C   UNK N   1      33.560  14.999   6.849  0.00  0.00     0.145 C 
HETATM   14  C   UNK N   1      34.453  15.380   5.655  0.00  0.00     0.175 C 
HETATM   15  C   UNK N   1      33.823  16.660   5.169  0.00  0.00     0.172 C 
HETATM   16  C   UNK N   1      32.350  16.262   5.276  0.00  0.00     0.118 C 
HETATM   17  N   UNK N   1      32.222  15.525   6.534  0.00  0.00    -0.403 N 
HETATM   18  H   UNK N   1      31.373  15.400   7.085  0.00  0.00     0.154 HD
BRANCH  14  19
HETATM   19  O   UNK N   1      35.816  15.492   5.943  0.00  0.00    -0.391 OA
HETATM   20  H   UNK N   1      36.204  15.525   6.831  0.00  0.00     0.210 HD
ENDBRANCH  14  19
BRANCH  15  21
HETATM   21  O   UNK N   1      34.115  17.704   6.054  0.00  0.00    -0.391 OA
HETATM   22  H   UNK N   1      34.478  18.576   6.273  0.00  0.00     0.210 HD
ENDBRANCH  15  21
BRANCH  16  23
HETATM   23  C   UNK N   1      31.396  17.453   5.256  0.00  0.00     0.100 C 
BRANCH  23  24
HETATM   24  S   UNK N   1      29.730  16.979   4.706  0.00  0.00    -0.171 SA
HETATM   25  C   UNK N   1      29.023  17.368   6.332  0.00  0.00     0.089 C 
ENDBRANCH  23  24
ENDBRANCH  16  23
ENDBRANCH   3  13
BRANCH   6  26
HETATM   26  N   UNK N   1      36.094  15.608  12.217  0.00  0.00    -0.406 N 
HETATM   27  H   UNK N   1      35.824  15.215  13.119  0.00  0.00     0.152 HD
HETATM   28  H   UNK N   1      36.034  16.595  12.467  0.00  0.00     0.152 HD
ENDBRANCH   6  26
TORSDOF 6
ENDMDL
MODEL 7
REMARK VINA RESULT:      -5.4      2.009      3.124
REMARK  6 active torsions:
REMARK  status: ('A' for Active; 'I' for Inactive)
REMARK    1  A    between atoms: C_6  and  C_3 
REMARK    2  A    between atoms: S_21  and  C_3 
REMARK    3  A    between atoms: C_8  and  C_5 
REMARK    4  A    between atoms: C_10  and  O_19 
REMARK    5  A    between atoms: C_11  and  O_20 
REMARK    6  A    between atoms: N_13  and  C_12 
ROOT
HETATM    1  C   UNK N   1      34.892  13.867   8.522  0.00  0.00     0.100 A 
HETATM    2  C   UNK N   1      33.306  17.943   7.448  0.00  0.00     0.178 A 
HETATM    3  C   UNK N   1      34.282  14.905   9.223  0.00  0.00     0.011 A 
HETATM    4  C   UNK N   1      33.994  15.868   8.282  0.00  0.00     0.069 A 
HETATM    5  C   UNK N   1      34.408  15.405   7.078  0.00  0.00     0.079 A 
HETATM    6  C   UNK N   1      34.339  16.249   5.841  0.00  0.00     0.229 A 
HETATM    7  N   UNK N   1      34.944  14.177   7.199  0.00  0.00    -0.364 N 
HETATM    8  N   UNK N   1      33.446  17.155   8.465  0.00  0.00    -0.350 N 
ATOM      9  HN  UNK N   1      33.161  17.464   9.395  1.00  0.00     0.166 HD
HETATM   10  N   UNK N   1      33.731  17.543   6.135  0.00  0.00    -0.360 N 
HETATM   11  H   UNK N   1      35.303  13.616   6.474  0.00  0.00     0.165 HD
HETATM   12  H   UNK N   1      33.604  18.177   5.393  0.00  0.00     0.162 HD
ENDROOT
BRANCH   3  13
HETATM   13  C   UNK N   1      34.258  15.113  10.724  0.00  0.00     0.145 C 
HETATM   14  C   UNK N   1      35.252  16.116  11.335  0.00  0.00     0.175 C 
HETATM   15  C   UNK N   1      36.419  15.236  11.706  0.00  0.00     0.172 C 
HETATM   16  C   UNK N   1      35.652  14.049  12.291  0.00  0.00     0.118 C 
HETATM   17  N   UNK N   1      34.506  13.833  11.407  0.00  0.00    -0.403 N 
HETATM   18  H   UNK N   1      33.983  12.966  11.286  0.00  0.00     0.154 HD
BRANCH  14  19
HETATM   19  O   UNK N   1      35.593  17.192  10.511  0.00  0.00    -0.391 OA
HETATM   20  H   UNK N   1      35.615  18.124  10.779  0.00  0.00     0.210 HD
ENDBRANCH  14  19
BRANCH  15  21
HETATM   21  O   UNK N   1      37.113  14.850  10.553  0.00  0.00    -0.391 OA
HETATM   22  H   UNK N   1      37.675  15.026   9.782  0.00  0.00     0.210 HD
ENDBRANCH  15  21
BRANCH  16  23
HETATM   23  C   UNK N   1      36.490  12.778  12.400  0.00  0.00     0.100 C 
BRANCH  23  24
HETATM   24  S   UNK N   1      36.834  12.338  14.130  0.00  0.00    -0.171 SA
HETATM   25  C   UNK N   1      35.433  13.331  14.718  0.00  0.00     0.089 C 
ENDBRANCH  23  24
ENDBRANCH  16  23
ENDBRANCH   3  13
BRANCH   6  26
HETATM   26  N   UNK N   1      33.570  15.572   4.814  0.00  0.00    -0.406 N 
HETATM   27  H   UNK N   1      33.203  14.878   4.163  0.00  0.00     0.152 HD
HETATM   28  H   UNK N   1      32.954  16.345   4.563  0.00  0.00     0.152 HD
ENDBRANCH   6  26
TORSDOF 6
ENDMDL
MODEL 8
REMARK VINA RESULT:      -5.4     14.539     16.268
REMARK  6 active torsions:
REMARK  status: ('A' for Active; 'I' for Inactive)
REMARK    1  A    between atoms: C_6  and  C_3 
REMARK    2  A    between atoms: S_21  and  C_3 
REMARK    3  A    between atoms: C_8  and  C_5 
REMARK    4  A    between atoms: C_10  and  O_19 
REMARK    5  A    between atoms: C_11  and  O_20 
REMARK    6  A    between atoms: N_13  and  C_12 
ROOT
HETATM    1  C   UNK N   1      19.722  15.243   4.050  0.00  0.00     0.100 A 
HETATM    2  C   UNK N   1      20.471  19.246   2.131  0.00  0.00     0.178 A 
HETATM    3  C   UNK N   1      19.970  16.531   4.519  0.00  0.00     0.011 A 
HETATM    4  C   UNK N   1      20.060  17.322   3.396  0.00  0.00     0.069 A 
HETATM    5  C   UNK N   1      19.859  16.530   2.316  0.00  0.00     0.079 A 
HETATM    6  C   UNK N   1      19.991  17.053   0.917  0.00  0.00     0.229 A 
HETATM    7  N   UNK N   1      19.633  15.259   2.694  0.00  0.00    -0.364 N 
HETATM    8  N   UNK N   1      20.378  18.693   3.296  0.00  0.00    -0.350 N 
ATOM      9  HN  UNK N   1      20.535  19.246   4.140  1.00  0.00     0.166 HD
HETATM   10  N   UNK N   1      20.290  18.482   0.929  0.00  0.00    -0.360 N 
HETATM   11  H   UNK N   1      19.443  14.492   2.104  0.00  0.00     0.165 HD
HETATM   12  H   UNK N   1      20.371  18.947   0.065  0.00  0.00     0.162 HD
ENDROOT
BRANCH   3  13
HETATM   13  C   UNK N   1      20.409  16.935   5.912  0.00  0.00     0.145 C 
HETATM   14  C   UNK N   1      21.913  17.123   6.175  0.00  0.00     0.175 C 
HETATM   15  C   UNK N   1      22.329  15.767   6.685  0.00  0.00     0.172 C 
HETATM   16  C   UNK N   1      21.143  15.480   7.609  0.00  0.00     0.118 C 
HETATM   17  N   UNK N   1      19.952  15.932   6.887  0.00  0.00    -0.403 N 
HETATM   18  H   UNK N   1      18.994  15.613   7.031  0.00  0.00     0.154 HD
BRANCH  14  19
HETATM   19  O   UNK N   1      22.657  17.568   5.078  0.00  0.00    -0.391 OA
HETATM   20  H   UNK N   1      23.484  18.073   5.124  0.00  0.00     0.210 HD
ENDBRANCH  14  19
BRANCH  15  21
HETATM   21  O   UNK N   1      22.361  14.847   5.630  0.00  0.00    -0.391 OA
HETATM   22  H   UNK N   1      22.065  14.504   4.772  0.00  0.00     0.210 HD
ENDBRANCH  15  21
BRANCH  16  23
HETATM   23  C   UNK N   1      21.012  14.009   7.990  0.00  0.00     0.100 C 
BRANCH  23  24
HETATM   24  S   UNK N   1      20.867  13.784   9.788  0.00  0.00    -0.171 SA
HETATM   25  C   UNK N   1      22.610  13.294   9.922  0.00  0.00     0.089 C 
ENDBRANCH  23  24
ENDBRANCH  16  23
ENDBRANCH   3  13
BRANCH   6  26
HETATM   26  N   UNK N   1      18.765  16.818   0.177  0.00  0.00    -0.406 N 
HETATM   27  H   UNK N   1      17.921  16.398  -0.212  0.00  0.00     0.152 HD
HETATM   28  H   UNK N   1      18.703  17.723  -0.289  0.00  0.00     0.152 HD
ENDBRANCH   6  26
TORSDOF 6
ENDMDL
MODEL 9
REMARK VINA RESULT:      -5.4      4.474      6.159
REMARK  6 active torsions:
REMARK  status: ('A' for Active; 'I' for Inactive)
REMARK    1  A    between atoms: C_6  and  C_3 
REMARK    2  A    between atoms: S_21  and  C_3 
REMARK    3  A    between atoms: C_8  and  C_5 
REMARK    4  A    between atoms: C_10  and  O_19 
REMARK    5  A    between atoms: C_11  and  O_20 
REMARK    6  A    between atoms: N_13  and  C_12 
ROOT
HETATM    1  C   UNK N   1      31.566  16.942   8.845  0.00  0.00     0.100 A 
HETATM    2  C   UNK N   1      28.145  16.861   5.918  0.00  0.00     0.178 A 
HETATM    3  C   UNK N   1      31.441  16.696   7.480  0.00  0.00     0.011 A 
HETATM    4  C   UNK N   1      30.108  16.883   7.190  0.00  0.00     0.069 A 
HETATM    5  C   UNK N   1      29.482  17.236   8.339  0.00  0.00     0.079 A 
HETATM    6  C   UNK N   1      27.996  17.417   8.405  0.00  0.00     0.229 A 
HETATM    7  N   UNK N   1      30.358  17.295   9.359  0.00  0.00    -0.364 N 
HETATM    8  N   UNK N   1      29.426  16.686   5.972  0.00  0.00    -0.350 N 
ATOM      9  HN  UNK N   1      29.939  16.406   5.135  1.00  0.00     0.166 HD
HETATM   10  N   UNK N   1      27.395  17.221   7.089  0.00  0.00    -0.360 N 
HETATM   11  H   UNK N   1      30.162  17.544  10.292  0.00  0.00     0.165 HD
HETATM   12  H   UNK N   1      26.423  17.343   6.999  0.00  0.00     0.162 HD
ENDROOT
BRANCH   3  13
HETATM   13  C   UNK N   1      32.448  16.022   6.569  0.00  0.00     0.145 C 
HETATM   14  C   UNK N   1      32.196  14.560   6.163  0.00  0.00     0.175 C 
HETATM   15  C   UNK N   1      32.966  13.791   7.205  0.00  0.00     0.172 C 
HETATM   16  C   UNK N   1      34.232  14.650   7.254  0.00  0.00     0.118 C 
HETATM   17  N   UNK N   1      33.778  16.040   7.200  0.00  0.00    -0.403 N 
HETATM   18  H   UNK N   1      34.283  16.861   7.534  0.00  0.00     0.154 HD
BRANCH  14  19
HETATM   19  O   UNK N   1      30.850  14.193   6.068  0.00  0.00    -0.391 OA
HETATM   20  H   UNK N   1      30.326  13.781   6.772  0.00  0.00     0.210 HD
ENDBRANCH  14  19
BRANCH  15  21
HETATM   21  O   UNK N   1      32.294  13.840   8.431  0.00  0.00    -0.391 OA
HETATM   22  H   UNK N   1      31.660  13.504   9.084  0.00  0.00     0.210 HD
ENDBRANCH  15  21
BRANCH  16  23
HETATM   23  C   UNK N   1      35.079  14.413   8.500  0.00  0.00     0.100 C 
BRANCH  23  24
HETATM   24  S   UNK N   1      35.127  15.876   9.577  0.00  0.00    -0.171 SA
HETATM   25  C   UNK N   1      34.409  14.947  10.962  0.00  0.00     0.089 C 
ENDBRANCH  23  24
ENDBRANCH  16  23
ENDBRANCH   3  13
BRANCH   6  26
HETATM   26  N   UNK N   1      27.674  18.745   8.894  0.00  0.00    -0.406 N 
HETATM   27  H   UNK N   1      27.694  19.641   9.381  0.00  0.00     0.152 HD
HETATM   28  H   UNK N   1      26.800  18.877   8.386  0.00  0.00     0.152 HD
ENDBRANCH   6  26
TORSDOF 6
ENDMDL
