MODEL 1
REMARK VINA RESULT:      -8.0      0.000      0.000
REMARK  5 active torsions:
REMARK  status: ('A' for Active; 'I' for Inactive)
REMARK    1  A    between atoms: C_12  and  C_11 
REMARK    2  A    between atoms: C_20  and  C_13 
REMARK    3  A    between atoms: C_19  and  C_14 
REMARK    4  A    between atoms: O_28  and  C_18 
REMARK    5  A    between atoms: N_24  and  C_19 
ROOT
HETATM    1  C   UNK N   1      30.366  17.566   8.619  0.00  0.00     0.049 A 
HETATM    2  C   UNK N   1      30.637  16.070   6.231  0.00  0.00     0.056 A 
HETATM    3  C   UNK N   1      29.416  17.738   7.598  0.00  0.00     0.031 A 
HETATM    4  C   UNK N   1      29.558  16.977   6.381  0.00  0.00     0.050 A 
HETATM    5  C   UNK N   1      31.399  16.673   8.416  0.00  0.00     0.061 A 
HETATM    6  C   UNK N   1      31.538  15.950   7.282  0.00  0.00     0.062 A 
HETATM    7  C   UNK N   1      33.140  15.479   8.604  0.00  0.00     0.119 A 
HETATM    8 Cl   UNK N   1      28.437  17.119   5.034  0.00  0.00    -0.083 Cl
HETATM    9  N   UNK N   1      32.387  16.397   9.257  0.00  0.00    -0.340 N 
ATOM     10  HN  UNK N   1      32.545  16.789  10.186  1.00  0.00     0.167 HD
HETATM   11  N   UNK N   1      32.639  15.174   7.375  0.00  0.00    -0.340 N 
HETATM   12  H   UNK N   1      32.994  14.538   6.712  0.00  0.00     0.167 HD
ENDROOT
BRANCH   7  13
HETATM   13  C   UNK N   1      34.372  14.907   9.198  0.00  0.00     0.042 A 
HETATM   14  C   UNK N   1      35.509  14.691   8.409  0.00  0.00     0.018 A 
HETATM   15  C   UNK N   1      36.663  14.146   8.976  0.00  0.00     0.002 A 
HETATM   16  C   UNK N   1      36.696  13.816  10.335  0.00  0.00     0.015 A 
HETATM   17  C   UNK N   1      35.576  14.029  11.155  0.00  0.00     0.008 A 
HETATM   18  C   UNK N   1      34.409  14.577  10.574  0.00  0.00     0.090 A 
BRANCH  17  19
HETATM   19  C   UNK N   1      35.642  13.672  12.612  0.00  0.00    -0.023 A 
HETATM   20  C   UNK N   1      34.987  12.532  13.117  0.00  0.00     0.012 A 
HETATM   21  C   UNK N   1      35.049  12.201  14.470  0.00  0.00     0.001 A 
HETATM   22  C   UNK N   1      35.772  13.007  15.347  0.00  0.00     0.000 A 
HETATM   23  C   UNK N   1      36.429  14.144  14.868  0.00  0.00     0.001 A 
HETATM   24  C   UNK N   1      36.365  14.476  13.510  0.00  0.00     0.012 A 
ENDBRANCH  17  19
BRANCH  18  25
HETATM   25  O   UNK N   1      33.319  14.795  11.335  0.00  0.00    -0.359 OA
HETATM   26  H   UNK N   1      32.853  15.604  11.264  0.00  0.00     0.217 HD
ENDBRANCH  18  25
ENDBRANCH   7  13
BRANCH   3  27
HETATM   27  C   UNK N   1      28.321  18.715   7.862  0.00  0.00     0.104 C 
HETATM   28  N   UNK N   1      28.036  19.643   7.028  0.00  0.00    -0.385 N 
HETATM   29  H   UNK N   1      27.367  20.327   7.259  0.00  0.00     0.157 HD
ATOM     30  HN  UNK N   1      28.503  19.673   6.122  1.00  0.00     0.157 HD
BRANCH  27  31
HETATM   31  N   UNK N   1      27.578  18.623   9.063  0.00  0.00    -0.385 N 
HETATM   32  H   UNK N   1      27.757  19.244   9.806  0.00  0.00     0.157 HD
HETATM   33  H   UNK N   1      26.879  17.936   9.157  0.00  0.00     0.157 HD
ENDBRANCH  27  31
ENDBRANCH   3  27
TORSDOF 5
ENDMDL
MODEL 2
REMARK VINA RESULT:      -7.8      2.788      4.707
REMARK  5 active torsions:
REMARK  status: ('A' for Active; 'I' for Inactive)
REMARK    1  A    between atoms: C_12  and  C_11 
REMARK    2  A    between atoms: C_20  and  C_13 
REMARK    3  A    between atoms: C_19  and  C_14 
REMARK    4  A    between atoms: O_28  and  C_18 
REMARK    5  A    between atoms: N_24  and  C_19 
ROOT
HETATM    1  C   UNK N   1      33.093  14.936   9.836  0.00  0.00     0.049 A 
HETATM    2  C   UNK N   1      35.322  16.679   9.892  0.00  0.00     0.056 A 
HETATM    3  C   UNK N   1      33.051  16.117   9.075  0.00  0.00     0.031 A 
HETATM    4  C   UNK N   1      34.187  17.005   9.108  0.00  0.00     0.050 A 
HETATM    5  C   UNK N   1      34.221  14.673  10.586  0.00  0.00     0.061 A 
HETATM    6  C   UNK N   1      35.293  15.496  10.620  0.00  0.00     0.062 A 
HETATM    7  C   UNK N   1      35.663  13.826  11.888  0.00  0.00     0.119 A 
HETATM    8 Cl   UNK N   1      34.241  18.512   8.206  0.00  0.00    -0.083 Cl
HETATM    9  N   UNK N   1      34.426  13.623  11.371  0.00  0.00    -0.340 N 
ATOM     10  HN  UNK N   1      33.796  12.841  11.546  1.00  0.00     0.167 HD
HETATM   11  N   UNK N   1      36.233  14.978  11.439  0.00  0.00    -0.340 N 
HETATM   12  H   UNK N   1      37.120  15.345  11.659  0.00  0.00     0.167 HD
ENDROOT
BRANCH   7  13
HETATM   13  C   UNK N   1      36.279  12.875  12.845  0.00  0.00     0.042 A 
HETATM   14  C   UNK N   1      37.297  12.008  12.430  0.00  0.00     0.018 A 
HETATM   15  C   UNK N   1      37.867  11.110  13.337  0.00  0.00     0.002 A 
HETATM   16  C   UNK N   1      37.431  11.075  14.665  0.00  0.00     0.015 A 
HETATM   17  C   UNK N   1      36.419  11.938  15.115  0.00  0.00     0.008 A 
HETATM   18  C   UNK N   1      35.842  12.840  14.191  0.00  0.00     0.090 A 
BRANCH  17  19
HETATM   19  C   UNK N   1      35.976  11.883  16.548  0.00  0.00    -0.023 A 
HETATM   20  C   UNK N   1      35.947  10.667  17.259  0.00  0.00     0.012 A 
HETATM   21  C   UNK N   1      35.537  10.617  18.591  0.00  0.00     0.001 A 
HETATM   22  C   UNK N   1      35.147  11.787  19.240  0.00  0.00     0.000 A 
HETATM   23  C   UNK N   1      35.167  13.004  18.553  0.00  0.00     0.001 A 
HETATM   24  C   UNK N   1      35.578  13.053  17.216  0.00  0.00     0.012 A 
ENDBRANCH  17  19
BRANCH  18  25
HETATM   25  O   UNK N   1      34.872  13.683  14.593  0.00  0.00    -0.359 OA
HETATM   26  H   UNK N   1      34.962  14.150  15.399  0.00  0.00     0.217 HD
ENDBRANCH  18  25
ENDBRANCH   7  13
BRANCH   3  27
HETATM   27  C   UNK N   1      31.810  16.359   8.285  0.00  0.00     0.104 C 
HETATM   28  N   UNK N   1      31.741  16.069   7.040  0.00  0.00    -0.385 N 
HETATM   29  H   UNK N   1      30.943  16.314   6.519  0.00  0.00     0.157 HD
ATOM     30  HN  UNK N   1      32.515  15.584   6.588  1.00  0.00     0.157 HD
BRANCH  27  31
HETATM   31  N   UNK N   1      30.677  16.925   8.919  0.00  0.00    -0.385 N 
HETATM   32  H   UNK N   1      30.750  17.291   9.830  0.00  0.00     0.157 HD
HETATM   33  H   UNK N   1      29.814  16.953   8.447  0.00  0.00     0.157 HD
ENDBRANCH  27  31
ENDBRANCH   3  27
TORSDOF 5
ENDMDL
MODEL 3
REMARK VINA RESULT:      -7.7      1.345      1.954
REMARK  5 active torsions:
REMARK  status: ('A' for Active; 'I' for Inactive)
REMARK    1  A    between atoms: C_12  and  C_11 
REMARK    2  A    between atoms: C_20  and  C_13 
REMARK    3  A    between atoms: C_19  and  C_14 
REMARK    4  A    between atoms: O_28  and  C_18 
REMARK    5  A    between atoms: N_24  and  C_19 
ROOT
HETATM    1  C   UNK N   1      30.642  16.125   6.219  0.00  0.00     0.049 A 
HETATM    2  C   UNK N   1      30.428  17.874   8.434  0.00  0.00     0.056 A 
HETATM    3  C   UNK N   1      29.583  17.048   6.255  0.00  0.00     0.031 A 
HETATM    4  C   UNK N   1      29.475  17.937   7.387  0.00  0.00     0.050 A 
HETATM    5  C   UNK N   1      31.537  16.104   7.269  0.00  0.00     0.061 A 
HETATM    6  C   UNK N   1      31.448  16.936   8.331  0.00  0.00     0.062 A 
HETATM    7  C   UNK N   1      33.130  15.657   8.593  0.00  0.00     0.119 A 
HETATM    8 Cl   UNK N   1      28.187  19.123   7.543  0.00  0.00    -0.083 Cl
HETATM    9  N   UNK N   1      32.579  15.295   7.409  0.00  0.00    -0.340 N 
ATOM     10  HN  UNK N   1      32.893  14.565   6.770  1.00  0.00     0.167 HD
HETATM   11  N   UNK N   1      32.456  16.678   9.191  0.00  0.00    -0.340 N 
HETATM   12  H   UNK N   1      32.656  17.122  10.048  0.00  0.00     0.167 HD
ENDROOT
BRANCH   7  13
HETATM   13  C   UNK N   1      34.329  14.978   9.141  0.00  0.00     0.042 A 
HETATM   14  C   UNK N   1      35.416  14.674   8.313  0.00  0.00     0.018 A 
HETATM   15  C   UNK N   1      36.539  14.027   8.837  0.00  0.00     0.002 A 
HETATM   16  C   UNK N   1      36.589  13.685  10.191  0.00  0.00     0.015 A 
HETATM   17  C   UNK N   1      35.519  13.984  11.051  0.00  0.00     0.008 A 
HETATM   18  C   UNK N   1      34.384  14.634  10.513  0.00  0.00     0.090 A 
BRANCH  17  19
HETATM   19  C   UNK N   1      35.604  13.612  12.502  0.00  0.00    -0.023 A 
HETATM   20  C   UNK N   1      34.937  12.478  13.007  0.00  0.00     0.012 A 
HETATM   21  C   UNK N   1      35.017  12.131  14.355  0.00  0.00     0.001 A 
HETATM   22  C   UNK N   1      35.769  12.915  15.228  0.00  0.00     0.000 A 
HETATM   23  C   UNK N   1      36.437  14.045  14.749  0.00  0.00     0.001 A 
HETATM   24  C   UNK N   1      36.356  14.393  13.396  0.00  0.00     0.012 A 
ENDBRANCH  17  19
BRANCH  18  25
HETATM   25  O   UNK N   1      33.343  14.938  11.313  0.00  0.00    -0.359 OA
HETATM   26  H   UNK N   1      33.436  15.598  11.970  0.00  0.00     0.217 HD
ENDBRANCH  18  25
ENDBRANCH   7  13
BRANCH   3  27
HETATM   27  C   UNK N   1      28.640  17.030   5.100  0.00  0.00     0.104 C 
HETATM   28  N   UNK N   1      27.501  16.453   5.175  0.00  0.00    -0.385 N 
HETATM   29  H   UNK N   1      26.930  16.380   4.376  0.00  0.00     0.157 HD
ATOM     30  HN  UNK N   1      27.184  16.067   6.064  1.00  0.00     0.157 HD
BRANCH  27  31
HETATM   31  N   UNK N   1      29.009  17.662   3.888  0.00  0.00    -0.385 N 
HETATM   32  H   UNK N   1      28.336  18.143   3.355  0.00  0.00     0.157 HD
HETATM   33  H   UNK N   1      29.942  17.619   3.576  0.00  0.00     0.157 HD
ENDBRANCH  27  31
ENDBRANCH   3  27
TORSDOF 5
ENDMDL
MODEL 4
REMARK VINA RESULT:      -7.7      4.930      8.912
REMARK  5 active torsions:
REMARK  status: ('A' for Active; 'I' for Inactive)
REMARK    1  A    between atoms: C_12  and  C_11 
REMARK    2  A    between atoms: C_20  and  C_13 
REMARK    3  A    between atoms: C_19  and  C_14 
REMARK    4  A    between atoms: O_28  and  C_18 
REMARK    5  A    between atoms: N_24  and  C_19 
ROOT
HETATM    1  C   UNK N   1      35.453  13.314  16.087  0.00  0.00     0.049 A 
HETATM    2  C   UNK N   1      34.835  10.680  15.257  0.00  0.00     0.056 A 
HETATM    3  C   UNK N   1      35.205  12.334  17.064  0.00  0.00     0.031 A 
HETATM    4  C   UNK N   1      34.887  10.993  16.638  0.00  0.00     0.050 A 
HETATM    5  C   UNK N   1      35.383  12.953  14.757  0.00  0.00     0.061 A 
HETATM    6  C   UNK N   1      35.092  11.698  14.347  0.00  0.00     0.062 A 
HETATM    7  C   UNK N   1      35.386  12.933  12.638  0.00  0.00     0.119 A 
HETATM    8 Cl   UNK N   1      34.549   9.692  17.770  0.00  0.00    -0.083 Cl
HETATM    9  N   UNK N   1      35.570  13.744  13.708  0.00  0.00    -0.340 N 
ATOM     10  HN  UNK N   1      35.799  14.738  13.708  1.00  0.00     0.167 HD
HETATM   11  N   UNK N   1      35.092  11.653  12.997  0.00  0.00    -0.340 N 
HETATM   12  H   UNK N   1      34.920  10.880  12.413  0.00  0.00     0.167 HD
ENDROOT
BRANCH   7  13
HETATM   13  C   UNK N   1      35.491  13.435  11.246  0.00  0.00     0.042 A 
HETATM   14  C   UNK N   1      36.510  12.980  10.401  0.00  0.00     0.018 A 
HETATM   15  C   UNK N   1      36.605  13.463   9.093  0.00  0.00     0.002 A 
HETATM   16  C   UNK N   1      35.682  14.398   8.616  0.00  0.00     0.015 A 
HETATM   17  C   UNK N   1      34.643  14.868   9.436  0.00  0.00     0.008 A 
HETATM   18  C   UNK N   1      34.555  14.379  10.760  0.00  0.00     0.090 A 
BRANCH  17  19
HETATM   19  C   UNK N   1      33.662  15.867   8.895  0.00  0.00    -0.023 A 
HETATM   20  C   UNK N   1      32.341  15.497   8.575  0.00  0.00     0.012 A 
HETATM   21  C   UNK N   1      31.430  16.425   8.074  0.00  0.00     0.001 A 
HETATM   22  C   UNK N   1      31.824  17.749   7.883  0.00  0.00     0.000 A 
HETATM   23  C   UNK N   1      33.130  18.138   8.193  0.00  0.00     0.001 A 
HETATM   24  C   UNK N   1      34.044  17.205   8.695  0.00  0.00     0.012 A 
ENDBRANCH  17  19
BRANCH  18  25
HETATM   25  O   UNK N   1      33.568  14.808  11.569  0.00  0.00    -0.359 OA
HETATM   26  H   UNK N   1      33.035  15.534  11.313  0.00  0.00     0.217 HD
ENDBRANCH  18  25
ENDBRANCH   7  13
BRANCH   3  27
HETATM   27  C   UNK N   1      35.289  12.773  18.486  0.00  0.00     0.104 C 
HETATM   28  N   UNK N   1      35.391  11.929  19.443  0.00  0.00    -0.385 N 
HETATM   29  H   UNK N   1      35.361  12.235  20.378  0.00  0.00     0.157 HD
ATOM     30  HN  UNK N   1      35.504  10.937  19.235  1.00  0.00     0.157 HD
BRANCH  27  31
HETATM   31  N   UNK N   1      35.253  14.154  18.795  0.00  0.00    -0.385 N 
HETATM   32  H   UNK N   1      34.898  14.799  18.141  0.00  0.00     0.157 HD
HETATM   33  H   UNK N   1      35.584  14.472  19.666  0.00  0.00     0.157 HD
ENDBRANCH  27  31
ENDBRANCH   3  27
TORSDOF 5
ENDMDL
MODEL 5
REMARK VINA RESULT:      -7.6      3.847      8.386
REMARK  5 active torsions:
REMARK  status: ('A' for Active; 'I' for Inactive)
REMARK    1  A    between atoms: C_12  and  C_11 
REMARK    2  A    between atoms: C_20  and  C_13 
REMARK    3  A    between atoms: C_19  and  C_14 
REMARK    4  A    between atoms: O_28  and  C_18 
REMARK    5  A    between atoms: N_24  and  C_19 
ROOT
HETATM    1  C   UNK N   1      35.666  14.684  12.921  0.00  0.00     0.049 A 
HETATM    2  C   UNK N   1      36.549  12.666  11.145  0.00  0.00     0.056 A 
HETATM    3  C   UNK N   1      36.409  13.606  13.433  0.00  0.00     0.031 A 
HETATM    4  C   UNK N   1      36.855  12.577  12.526  0.00  0.00     0.050 A 
HETATM    5  C   UNK N   1      35.393  14.715  11.569  0.00  0.00     0.061 A 
HETATM    6  C   UNK N   1      35.811  13.759  10.709  0.00  0.00     0.062 A 
HETATM    7  C   UNK N   1      34.702  15.223   9.631  0.00  0.00     0.119 A 
HETATM    8 Cl   UNK N   1      37.780  11.179  13.055  0.00  0.00    -0.083 Cl
HETATM    9  N   UNK N   1      34.697  15.640  10.920  0.00  0.00    -0.340 N 
ATOM     10  HN  UNK N   1      34.257  16.476  11.305  1.00  0.00     0.167 HD
HETATM   11  N   UNK N   1      35.389  14.059   9.462  0.00  0.00    -0.340 N 
HETATM   12  H   UNK N   1      35.542  13.556   8.629  0.00  0.00     0.167 HD
ENDROOT
BRANCH   7  13
HETATM   13  C   UNK N   1      34.009  15.977   8.558  0.00  0.00     0.042 A 
HETATM   14  C   UNK N   1      34.702  16.380   7.410  0.00  0.00     0.018 A 
HETATM   15  C   UNK N   1      34.043  17.097   6.408  0.00  0.00     0.002 A 
HETATM   16  C   UNK N   1      32.687  17.412   6.540  0.00  0.00     0.015 A 
HETATM   17  C   UNK N   1      31.962  17.015   7.675  0.00  0.00     0.008 A 
HETATM   18  C   UNK N   1      32.636  16.294   8.688  0.00  0.00     0.090 A 
BRANCH  17  19
HETATM   19  C   UNK N   1      30.506  17.362   7.787  0.00  0.00    -0.023 A 
HETATM   20  C   UNK N   1      29.552  16.807   6.911  0.00  0.00     0.012 A 
HETATM   21  C   UNK N   1      28.199  17.128   7.016  0.00  0.00     0.001 A 
HETATM   22  C   UNK N   1      27.772  18.014   8.003  0.00  0.00     0.000 A 
HETATM   23  C   UNK N   1      28.702  18.578   8.882  0.00  0.00     0.001 A 
HETATM   24  C   UNK N   1      30.059  18.255   8.776  0.00  0.00     0.012 A 
ENDBRANCH  17  19
BRANCH  18  25
HETATM   25  O   UNK N   1      31.967  15.897   9.787  0.00  0.00    -0.359 OA
HETATM   26  H   UNK N   1      31.873  14.984   9.973  0.00  0.00     0.217 HD
ENDBRANCH  18  25
ENDBRANCH   7  13
BRANCH   3  27
HETATM   27  C   UNK N   1      36.676  13.615  14.900  0.00  0.00     0.104 C 
HETATM   28  N   UNK N   1      37.363  14.543  15.450  0.00  0.00    -0.385 N 
HETATM   29  H   UNK N   1      37.598  14.486  16.404  0.00  0.00     0.157 HD
ATOM     30  HN  UNK N   1      37.669  15.344  14.899  1.00  0.00     0.157 HD
BRANCH  27  31
HETATM   31  N   UNK N   1      36.162  12.573  15.709  0.00  0.00    -0.385 N 
HETATM   32  H   UNK N   1      36.258  11.634  15.429  0.00  0.00     0.157 HD
HETATM   33  H   UNK N   1      35.706  12.788  16.556  0.00  0.00     0.157 HD
ENDBRANCH  27  31
ENDBRANCH   3  27
TORSDOF 5
ENDMDL
MODEL 6
REMARK VINA RESULT:      -7.5      5.200     11.168
REMARK  5 active torsions:
REMARK  status: ('A' for Active; 'I' for Inactive)
REMARK    1  A    between atoms: C_12  and  C_11 
REMARK    2  A    between atoms: C_20  and  C_13 
REMARK    3  A    between atoms: C_19  and  C_14 
REMARK    4  A    between atoms: O_28  and  C_18 
REMARK    5  A    between atoms: N_24  and  C_19 
ROOT
HETATM    1  C   UNK N   1      29.904  17.375   7.131  0.00  0.00     0.049 A 
HETATM    2  C   UNK N   1      30.991  17.462   4.520  0.00  0.00     0.056 A 
HETATM    3  C   UNK N   1      31.241  16.988   6.939  0.00  0.00     0.031 A 
HETATM    4  C   UNK N   1      31.792  17.030   5.606  0.00  0.00     0.050 A 
HETATM    5  C   UNK N   1      29.170  17.780   6.036  0.00  0.00     0.061 A 
HETATM    6  C   UNK N   1      29.677  17.830   4.784  0.00  0.00     0.062 A 
HETATM    7  C   UNK N   1      27.641  18.449   4.729  0.00  0.00     0.119 A 
HETATM    8 Cl   UNK N   1      33.447  16.560   5.246  0.00  0.00    -0.083 Cl
HETATM    9  N   UNK N   1      27.899  18.162   6.028  0.00  0.00    -0.340 N 
ATOM     10  HN  UNK N   1      27.260  18.224   6.821  1.00  0.00     0.167 HD
HETATM   11  N   UNK N   1      28.725  18.258   3.928  0.00  0.00    -0.340 N 
HETATM   12  H   UNK N   1      28.798  18.400   2.956  0.00  0.00     0.167 HD
ENDROOT
BRANCH   7  13
HETATM   13  C   UNK N   1      26.305  18.905   4.276  0.00  0.00     0.042 A 
HETATM   14  C   UNK N   1      26.179  20.025   3.445  0.00  0.00     0.018 A 
HETATM   15  C   UNK N   1      24.915  20.452   3.029  0.00  0.00     0.002 A 
HETATM   16  C   UNK N   1      23.768  19.763   3.433  0.00  0.00     0.015 A 
HETATM   17  C   UNK N   1      23.860  18.631   4.260  0.00  0.00     0.008 A 
HETATM   18  C   UNK N   1      25.142  18.207   4.681  0.00  0.00     0.090 A 
BRANCH  17  19
HETATM   19  C   UNK N   1      22.612  17.907   4.672  0.00  0.00    -0.023 A 
HETATM   20  C   UNK N   1      22.098  18.021   5.979  0.00  0.00     0.012 A 
HETATM   21  C   UNK N   1      20.938  17.349   6.362  0.00  0.00     0.001 A 
HETATM   22  C   UNK N   1      20.266  16.547   5.440  0.00  0.00     0.000 A 
HETATM   23  C   UNK N   1      20.760  16.418   4.139  0.00  0.00     0.001 A 
HETATM   24  C   UNK N   1      21.925  17.092   3.756  0.00  0.00     0.012 A 
ENDBRANCH  17  19
BRANCH  18  25
HETATM   25  O   UNK N   1      25.264  17.124   5.472  0.00  0.00    -0.359 OA
HETATM   26  H   UNK N   1      24.498  16.707   5.815  0.00  0.00     0.217 HD
ENDBRANCH  18  25
ENDBRANCH   7  13
BRANCH   3  27
HETATM   27  C   UNK N   1      31.993  16.554   8.152  0.00  0.00     0.104 C 
HETATM   28  N   UNK N   1      32.473  17.402   8.981  0.00  0.00    -0.385 N 
HETATM   29  H   UNK N   1      33.036  17.099   9.729  0.00  0.00     0.157 HD
ATOM     30  HN  UNK N   1      32.272  18.395   8.867  1.00  0.00     0.157 HD
BRANCH  27  31
HETATM   31  N   UNK N   1      32.186  15.173   8.397  0.00  0.00    -0.385 N 
HETATM   32  H   UNK N   1      31.758  14.742   9.171  0.00  0.00     0.157 HD
HETATM   33  H   UNK N   1      32.753  14.642   7.791  0.00  0.00     0.157 HD
ENDBRANCH  27  31
ENDBRANCH   3  27
TORSDOF 5
ENDMDL
MODEL 7
REMARK VINA RESULT:      -7.5      2.514      4.058
REMARK  5 active torsions:
REMARK  status: ('A' for Active; 'I' for Inactive)
REMARK    1  A    between atoms: C_12  and  C_11 
REMARK    2  A    between atoms: C_20  and  C_13 
REMARK    3  A    between atoms: C_19  and  C_14 
REMARK    4  A    between atoms: O_28  and  C_18 
REMARK    5  A    between atoms: N_24  and  C_19 
ROOT
HETATM    1  C   UNK N   1      32.776  14.430   8.604  0.00  0.00     0.049 A 
HETATM    2  C   UNK N   1      35.247  14.821   7.281  0.00  0.00     0.056 A 
HETATM    3  C   UNK N   1      32.775  14.989   7.314  0.00  0.00     0.031 A 
HETATM    4  C   UNK N   1      34.036  15.189   6.643  0.00  0.00     0.050 A 
HETATM    5  C   UNK N   1      33.986  14.096   9.178  0.00  0.00     0.061 A 
HETATM    6  C   UNK N   1      35.173  14.274   8.556  0.00  0.00     0.062 A 
HETATM    7  C   UNK N   1      35.521  13.442  10.485  0.00  0.00     0.119 A 
HETATM    8 Cl   UNK N   1      34.156  15.888   5.035  0.00  0.00    -0.083 Cl
HETATM    9  N   UNK N   1      34.176  13.578  10.385  0.00  0.00    -0.340 N 
ATOM     10  HN  UNK N   1      33.470  13.338  11.080  1.00  0.00     0.167 HD
HETATM   11  N   UNK N   1      36.172  13.860   9.364  0.00  0.00    -0.340 N 
HETATM   12  H   UNK N   1      37.140  13.861   9.186  0.00  0.00     0.167 HD
ENDROOT
BRANCH   7  13
HETATM   13  C   UNK N   1      36.167  12.903  11.706  0.00  0.00     0.042 A 
HETATM   14  C   UNK N   1      36.964  11.753  11.641  0.00  0.00     0.018 A 
HETATM   15  C   UNK N   1      37.563  11.249  12.798  0.00  0.00     0.002 A 
HETATM   16  C   UNK N   1      37.377  11.889  14.027  0.00  0.00     0.015 A 
HETATM   17  C   UNK N   1      36.591  13.049  14.124  0.00  0.00     0.008 A 
HETATM   18  C   UNK N   1      35.983  13.551  12.950  0.00  0.00     0.090 A 
BRANCH  17  19
HETATM   19  C   UNK N   1      36.415  13.719  15.456  0.00  0.00    -0.023 A 
HETATM   20  C   UNK N   1      35.501  13.226  16.408  0.00  0.00     0.012 A 
HETATM   21  C   UNK N   1      35.339  13.849  17.645  0.00  0.00     0.001 A 
HETATM   22  C   UNK N   1      36.091  14.980  17.955  0.00  0.00     0.000 A 
HETATM   23  C   UNK N   1      37.003  15.487  17.024  0.00  0.00     0.001 A 
HETATM   24  C   UNK N   1      37.164  14.862  15.782  0.00  0.00     0.012 A 
ENDBRANCH  17  19
BRANCH  18  25
HETATM   25  O   UNK N   1      35.226  14.663  13.011  0.00  0.00    -0.359 OA
HETATM   26  H   UNK N   1      34.901  15.052  12.223  0.00  0.00     0.217 HD
ENDBRANCH  18  25
ENDBRANCH   7  13
BRANCH   3  27
HETATM   27  C   UNK N   1      31.445  15.337   6.738  0.00  0.00     0.104 C 
HETATM   28  N   UNK N   1      30.758  14.484   6.074  0.00  0.00    -0.385 N 
HETATM   29  H   UNK N   1      29.923  14.759   5.632  0.00  0.00     0.157 HD
ATOM     30  HN  UNK N   1      31.078  13.519   6.004  1.00  0.00     0.157 HD
BRANCH  27  31
HETATM   31  N   UNK N   1      30.923  16.640   6.922  0.00  0.00    -0.385 N 
HETATM   32  H   UNK N   1      30.650  16.943   7.817  0.00  0.00     0.157 HD
HETATM   33  H   UNK N   1      30.833  17.246   6.151  0.00  0.00     0.157 HD
ENDBRANCH  27  31
ENDBRANCH   3  27
TORSDOF 5
ENDMDL
MODEL 8
REMARK VINA RESULT:      -7.4      3.941      8.610
REMARK  5 active torsions:
REMARK  status: ('A' for Active; 'I' for Inactive)
REMARK    1  A    between atoms: C_12  and  C_11 
REMARK    2  A    between atoms: C_20  and  C_13 
REMARK    3  A    between atoms: C_19  and  C_14 
REMARK    4  A    between atoms: O_28  and  C_18 
REMARK    5  A    between atoms: N_24  and  C_19 
ROOT
HETATM    1  C   UNK N   1      34.938  12.584  12.052  0.00  0.00     0.049 A 
HETATM    2  C   UNK N   1      36.063  14.919  13.188  0.00  0.00     0.056 A 
HETATM    3  C   UNK N   1      35.649  12.477  13.259  0.00  0.00     0.031 A 
HETATM    4  C   UNK N   1      36.224  13.668  13.834  0.00  0.00     0.050 A 
HETATM    5  C   UNK N   1      34.818  13.826  11.463  0.00  0.00     0.061 A 
HETATM    6  C   UNK N   1      35.348  14.950  11.997  0.00  0.00     0.062 A 
HETATM    7  C   UNK N   1      34.366  15.446  10.173  0.00  0.00     0.119 A 
HETATM    8 Cl   UNK N   1      37.141  13.652  15.334  0.00  0.00    -0.083 Cl
HETATM    9  N   UNK N   1      34.200  14.109  10.323  0.00  0.00    -0.340 N 
ATOM     10  HN  UNK N   1      33.712  13.465   9.701  1.00  0.00     0.167 HD
HETATM   11  N   UNK N   1      35.071  16.002  11.197  0.00  0.00    -0.340 N 
HETATM   12  H   UNK N   1      35.319  16.946  11.325  0.00  0.00     0.167 HD
ENDROOT
BRANCH   7  13
HETATM   13  C   UNK N   1      33.832  16.176   8.998  0.00  0.00     0.042 A 
HETATM   14  C   UNK N   1      34.700  16.773   8.076  0.00  0.00     0.018 A 
HETATM   15  C   UNK N   1      34.188  17.465   6.976  0.00  0.00     0.002 A 
HETATM   16  C   UNK N   1      32.806  17.563   6.783  0.00  0.00     0.015 A 
HETATM   17  C   UNK N   1      31.909  16.967   7.685  0.00  0.00     0.008 A 
HETATM   18  C   UNK N   1      32.434  16.272   8.799  0.00  0.00     0.090 A 
BRANCH  17  19
HETATM   19  C   UNK N   1      30.431  17.081   7.449  0.00  0.00    -0.023 A 
HETATM   20  C   UNK N   1      29.629  17.938   8.228  0.00  0.00     0.012 A 
HETATM   21  C   UNK N   1      28.257  18.045   8.008  0.00  0.00     0.001 A 
HETATM   22  C   UNK N   1      27.657  17.294   6.998  0.00  0.00     0.000 A 
HETATM   23  C   UNK N   1      28.433  16.437   6.213  0.00  0.00     0.001 A 
HETATM   24  C   UNK N   1      29.811  16.330   6.436  0.00  0.00     0.012 A 
ENDBRANCH  17  19
BRANCH  18  25
HETATM   25  O   UNK N   1      31.599  15.688   9.679  0.00  0.00    -0.359 OA
HETATM   26  H   UNK N   1      31.828  15.649  10.587  0.00  0.00     0.217 HD
ENDBRANCH  18  25
ENDBRANCH   7  13
BRANCH   3  27
HETATM   27  C   UNK N   1      35.754  11.114  13.855  0.00  0.00     0.104 C 
HETATM   28  N   UNK N   1      36.807  10.401  13.714  0.00  0.00    -0.385 N 
HETATM   29  H   UNK N   1      36.825   9.474  14.043  0.00  0.00     0.157 HD
ATOM     30  HN  UNK N   1      37.631  10.795  13.261  1.00  0.00     0.157 HD
BRANCH  27  31
HETATM   31  N   UNK N   1      34.665  10.587  14.591  0.00  0.00    -0.385 N 
HETATM   32  H   UNK N   1      34.545   9.613  14.670  0.00  0.00     0.157 HD
HETATM   33  H   UNK N   1      34.025  11.197  15.025  0.00  0.00     0.157 HD
ENDBRANCH  27  31
ENDBRANCH   3  27
TORSDOF 5
ENDMDL
MODEL 9
REMARK VINA RESULT:      -7.4      5.078      9.315
REMARK  5 active torsions:
REMARK  status: ('A' for Active; 'I' for Inactive)
REMARK    1  A    between atoms: C_12  and  C_11 
REMARK    2  A    between atoms: C_20  and  C_13 
REMARK    3  A    between atoms: C_19  and  C_14 
REMARK    4  A    between atoms: O_28  and  C_18 
REMARK    5  A    between atoms: N_24  and  C_19 
ROOT
HETATM    1  C   UNK N   1      35.497  10.739  15.418  0.00  0.00     0.049 A 
HETATM    2  C   UNK N   1      35.351  13.417  16.322  0.00  0.00     0.056 A 
HETATM    3  C   UNK N   1      35.388  10.985  16.797  0.00  0.00     0.031 A 
HETATM    4  C   UNK N   1      35.318  12.351  17.256  0.00  0.00     0.050 A 
HETATM    5  C   UNK N   1      35.532  11.816  14.556  0.00  0.00     0.061 A 
HETATM    6  C   UNK N   1      35.460  13.100  14.974  0.00  0.00     0.062 A 
HETATM    7  C   UNK N   1      35.642  13.073  12.852  0.00  0.00     0.119 A 
HETATM    8 Cl   UNK N   1      35.191  12.778  18.956  0.00  0.00    -0.083 Cl
HETATM    9  N   UNK N   1      35.647  11.772  13.234  0.00  0.00    -0.340 N 
ATOM     10  HN  UNK N   1      35.723  10.946  12.641  1.00  0.00     0.167 HD
HETATM   11  N   UNK N   1      35.523  13.925  13.908  0.00  0.00    -0.340 N 
HETATM   12  H   UNK N   1      35.490  14.910  13.896  0.00  0.00     0.167 HD
ENDROOT
BRANCH   7  13
HETATM   13  C   UNK N   1      35.769  13.474  11.431  0.00  0.00     0.042 A 
HETATM   14  C   UNK N   1      36.821  12.989  10.645  0.00  0.00     0.018 A 
HETATM   15  C   UNK N   1      36.937  13.378   9.308  0.00  0.00     0.002 A 
HETATM   16  C   UNK N   1      36.001  14.249   8.742  0.00  0.00     0.015 A 
HETATM   17  C   UNK N   1      34.928  14.746   9.500  0.00  0.00     0.008 A 
HETATM   18  C   UNK N   1      34.820  14.352  10.855  0.00  0.00     0.090 A 
BRANCH  17  19
HETATM   19  C   UNK N   1      33.934  15.673   8.864  0.00  0.00    -0.023 A 
HETATM   20  C   UNK N   1      34.140  17.067   8.847  0.00  0.00     0.012 A 
HETATM   21  C   UNK N   1      33.217  17.928   8.255  0.00  0.00     0.001 A 
HETATM   22  C   UNK N   1      32.065  17.409   7.666  0.00  0.00     0.000 A 
HETATM   23  C   UNK N   1      31.840  16.030   7.673  0.00  0.00     0.001 A 
HETATM   24  C   UNK N   1      32.767  15.166   8.268  0.00  0.00     0.012 A 
ENDBRANCH  17  19
BRANCH  18  25
HETATM   25  O   UNK N   1      33.800  14.809  11.606  0.00  0.00    -0.359 OA
HETATM   26  H   UNK N   1      33.952  15.481  12.241  0.00  0.00     0.217 HD
ENDBRANCH  18  25
ENDBRANCH   7  13
BRANCH   3  27
HETATM   27  C   UNK N   1      35.358   9.791  17.689  0.00  0.00     0.104 C 
HETATM   28  N   UNK N   1      34.258   9.320  18.142  0.00  0.00    -0.385 N 
HETATM   29  H   UNK N   1      34.266   8.584  18.795  0.00  0.00     0.157 HD
ATOM     30  HN  UNK N   1      33.370   9.710  17.826  1.00  0.00     0.157 HD
BRANCH  27  31
HETATM   31  N   UNK N   1      36.572   9.158  18.050  0.00  0.00    -0.385 N 
HETATM   32  H   UNK N   1      37.373   9.263  17.487  0.00  0.00     0.157 HD
HETATM   33  H   UNK N   1      36.617   8.611  18.868  0.00  0.00     0.157 HD
ENDBRANCH  27  31
ENDBRANCH   3  27
TORSDOF 5
ENDMDL
