MODEL 1
REMARK VINA RESULT:      -5.7      0.000      0.000
REMARK  22 active torsions:
REMARK  status: ('A' for Active; 'I' for Inactive)
REMARK    1  A    between atoms: C_5  and  C_1 
REMARK    2  A    between atoms: N_10  and  C_1 
REMARK    3  A    between atoms: C_7  and  C_2 
REMARK    4  A    between atoms: N_10  and  C_2 
REMARK    5  A    between atoms: C_6  and  C_3 
REMARK    6  A    between atoms: O_23  and  C_3 
REMARK    7  A    between atoms: N_10  and  C_4 
REMARK    8  A    between atoms: P_24  and  C_4 
REMARK    9  A    between atoms: C_8  and  C_5 
REMARK   10  A    between atoms: C_5  and  O_11 
REMARK   11  A    between atoms: C_9  and  C_6 
REMARK   12  A    between atoms: C_6  and  O_12 
REMARK   13  A    between atoms: O_13  and  C_7 
REMARK   14  A    between atoms: O_14  and  C_7 
REMARK   15  A    between atoms: C_9  and  C_8 
REMARK   16  A    between atoms: C_8  and  O_15 
REMARK   17  A    between atoms: C_9  and  O_16 
REMARK   18  A    between atoms: P_24  and  O_17 
REMARK   19  A    between atoms: P_24  and  O_18 
REMARK   20  A    between atoms: P_25  and  O_20 
REMARK   21  A    between atoms: P_25  and  O_21 
REMARK   22  A    between atoms: P_25  and  O_23 
ROOT
HETATM    1  C   UNK N   1      32.667  15.510   9.431  0.00  0.00     0.177 C 
ENDROOT
BRANCH   1   2
HETATM    2  C   UNK N   1      31.829  15.724   8.166  0.00  0.00     0.307 C 
BRANCH   2   3
HETATM    3  N   UNK N   1      31.529  17.137   7.958  0.00  0.00     0.112 N 
BRANCH   3   4
HETATM    4  C   UNK N   1      32.088  17.476   6.656  0.00  0.00     0.379 C 
BRANCH   4   5
HETATM    5  C   UNK N   1      33.581  17.567   6.700  0.00  0.00     0.135 C 
BRANCH   5   6
HETATM    6  O   UNK N   1      34.332  16.841   5.846  0.00  0.00    -0.777 OA
HETATM    7  H   UNK N   1      34.983  17.057   5.207  0.00  0.00     0.167 HD
ENDBRANCH   5   6
BRANCH   5   8
HETATM    8  O   UNK N   1      34.174  18.404   7.563  0.00  0.00    -0.777 OA
HETATM    9  H   UNK N   1      34.732  19.090   7.251  0.00  0.00     0.167 HD
ENDBRANCH   5   8
ENDBRANCH   4   5
ENDBRANCH   3   4
BRANCH   3  10
HETATM   10  C   UNK N   1      30.090  17.282   7.804  0.00  0.00     0.397 C 
BRANCH  10  11
HETATM   11  P   UNK N   1      29.279  17.765   9.412  0.00  0.00     0.264 P 
HETATM   12  O   UNK N   1      29.887  19.082   9.960  0.00  0.00    -0.652 OA
BRANCH  11  13
HETATM   13  O   UNK N   1      29.527  16.632  10.704  0.00  0.00    -0.328 OA
HETATM   14  H   UNK N   1      30.115  15.867  10.801  0.00  0.00     0.220 HD
ENDBRANCH  11  13
BRANCH  11  15
HETATM   15  O   UNK N   1      27.573  18.078   9.333  0.00  0.00    -0.328 OA
HETATM   16  H   UNK N   1      26.746  18.433   9.694  0.00  0.00     0.220 HD
ENDBRANCH  11  15
ENDBRANCH  10  11
ENDBRANCH   3  10
ENDBRANCH   2   3
ENDBRANCH   1   2
BRANCH   1  17
HETATM   17  C   UNK N   1      33.880  14.594   9.159  0.00  0.00     0.179 C 
BRANCH  17  18
HETATM   18  C   UNK N   1      35.253  15.235   9.490  0.00  0.00     0.180 C 
BRANCH  18  19
HETATM   19  C   UNK N   1      35.183  16.180  10.711  0.00  0.00     0.173 C 
BRANCH  19  20
HETATM   20  C   UNK N   1      35.750  15.479  11.942  0.00  0.00     0.214 C 
BRANCH  20  21
HETATM   21  O   UNK N   1      34.887  14.474  12.405  0.00  0.00    -0.294 OA
BRANCH  21  22
HETATM   22  P   UNK N   1      35.892  13.363  13.295  0.00  0.00     0.390 P 
HETATM   23  O   UNK N   1      35.533  12.503  12.051  0.00  0.00    -0.632 OA
BRANCH  22  24
HETATM   24  O   UNK N   1      37.449  12.879  12.701  0.00  0.00    -0.307 OA
HETATM   25  H   UNK N   1      37.569  12.003  12.302  0.00  0.00     0.222 HD
ENDBRANCH  22  24
BRANCH  22  26
HETATM   26  O   UNK N   1      36.824  14.735  12.781  0.00  0.00    -0.307 OA
HETATM   27  H   UNK N   1      37.175  15.377  13.417  0.00  0.00     0.222 HD
ENDBRANCH  22  26
ENDBRANCH  21  22
ENDBRANCH  20  21
ENDBRANCH  19  20
BRANCH  19  28
HETATM   28  O   UNK N   1      35.925  17.340  10.475  0.00  0.00    -0.391 OA
HETATM   29  H   UNK N   1      35.581  18.054   9.915  0.00  0.00     0.210 HD
ENDBRANCH  19  28
ENDBRANCH  18  19
BRANCH  18  30
HETATM   30  O   UNK N   1      36.184  14.225   9.756  0.00  0.00    -0.390 OA
HETATM   31  H   UNK N   1      36.953  14.094   9.180  0.00  0.00     0.210 HD
ENDBRANCH  18  30
ENDBRANCH  17  18
BRANCH  17  32
HETATM   32  O   UNK N   1      33.712  13.419   9.900  0.00  0.00    -0.390 OA
HETATM   33  H   UNK N   1      33.822  12.551   9.482  0.00  0.00     0.210 HD
ENDBRANCH  17  32
ENDBRANCH   1  17
BRANCH   1  34
HETATM   34  O   UNK N   1      31.866  14.988  10.448  0.00  0.00    -0.391 OA
HETATM   35  H   UNK N   1      32.183  14.916  11.362  0.00  0.00     0.210 HD
ENDBRANCH   1  34
TORSDOF 22
ENDMDL
MODEL 2
REMARK VINA RESULT:      -5.4      1.789      6.738
REMARK  22 active torsions:
REMARK  status: ('A' for Active; 'I' for Inactive)
REMARK    1  A    between atoms: C_5  and  C_1 
REMARK    2  A    between atoms: N_10  and  C_1 
REMARK    3  A    between atoms: C_7  and  C_2 
REMARK    4  A    between atoms: N_10  and  C_2 
REMARK    5  A    between atoms: C_6  and  C_3 
REMARK    6  A    between atoms: O_23  and  C_3 
REMARK    7  A    between atoms: N_10  and  C_4 
REMARK    8  A    between atoms: P_24  and  C_4 
REMARK    9  A    between atoms: C_8  and  C_5 
REMARK   10  A    between atoms: C_5  and  O_11 
REMARK   11  A    between atoms: C_9  and  C_6 
REMARK   12  A    between atoms: C_6  and  O_12 
REMARK   13  A    between atoms: O_13  and  C_7 
REMARK   14  A    between atoms: O_14  and  C_7 
REMARK   15  A    between atoms: C_9  and  C_8 
REMARK   16  A    between atoms: C_8  and  O_15 
REMARK   17  A    between atoms: C_9  and  O_16 
REMARK   18  A    between atoms: P_24  and  O_17 
REMARK   19  A    between atoms: P_24  and  O_18 
REMARK   20  A    between atoms: P_25  and  O_20 
REMARK   21  A    between atoms: P_25  and  O_21 
REMARK   22  A    between atoms: P_25  and  O_23 
ROOT
HETATM    1  C   UNK N   1      34.736  16.964   9.499  0.00  0.00     0.177 C 
ENDROOT
BRANCH   1   2
HETATM    2  C   UNK N   1      35.124  15.546   9.070  0.00  0.00     0.307 C 
BRANCH   2   3
HETATM    3  N   UNK N   1      34.553  14.543   9.964  0.00  0.00     0.112 N 
BRANCH   3   4
HETATM    4  C   UNK N   1      33.713  13.695   9.129  0.00  0.00     0.379 C 
BRANCH   4   5
HETATM    5  C   UNK N   1      32.392  14.334   8.841  0.00  0.00     0.135 C 
BRANCH   5   6
HETATM    6  O   UNK N   1      31.791  14.148   7.647  0.00  0.00    -0.777 OA
HETATM    7  H   UNK N   1      30.943  14.354   7.306  0.00  0.00     0.167 HD
ENDBRANCH   5   6
BRANCH   5   8
HETATM    8  O   UNK N   1      31.781  15.060   9.789  0.00  0.00    -0.777 OA
HETATM    9  H   UNK N   1      31.448  15.913   9.591  0.00  0.00     0.167 HD
ENDBRANCH   5   8
ENDBRANCH   4   5
ENDBRANCH   3   4
BRANCH   3  10
HETATM   10  C   UNK N   1      35.627  13.679  10.428  0.00  0.00     0.397 C 
BRANCH  10  11
HETATM   11  P   UNK N   1      35.890  13.846  12.266  0.00  0.00     0.264 P 
HETATM   12  O   UNK N   1      37.036  12.918  12.745  0.00  0.00    -0.652 OA
BRANCH  11  13
HETATM   13  O   UNK N   1      34.533  13.350  13.228  0.00  0.00    -0.328 OA
HETATM   14  H   UNK N   1      34.458  12.790  14.016  0.00  0.00     0.220 HD
ENDBRANCH  11  13
BRANCH  11  15
HETATM   15  O   UNK N   1      36.354  15.424  12.822  0.00  0.00    -0.328 OA
HETATM   16  H   UNK N   1      36.210  16.378  12.922  0.00  0.00     0.220 HD
ENDBRANCH  11  15
ENDBRANCH  10  11
ENDBRANCH   3  10
ENDBRANCH   2   3
ENDBRANCH   1   2
BRANCH   1  17
HETATM   17  C   UNK N   1      34.456  17.869   8.279  0.00  0.00     0.179 C 
BRANCH  17  18
HETATM   18  C   UNK N   1      32.952  18.132   8.009  0.00  0.00     0.180 C 
BRANCH  18  19
HETATM   19  C   UNK N   1      32.399  17.264   6.857  0.00  0.00     0.173 C 
BRANCH  19  20
HETATM   20  C   UNK N   1      30.896  17.487   6.715  0.00  0.00     0.214 C 
BRANCH  20  21
HETATM   21  O   UNK N   1      30.179  16.810   7.713  0.00  0.00    -0.294 OA
BRANCH  21  22
HETATM   22  P   UNK N   1      28.851  17.857   8.134  0.00  0.00     0.390 P 
HETATM   23  O   UNK N   1      28.118  16.775   7.293  0.00  0.00    -0.632 OA
BRANCH  22  24
HETATM   24  O   UNK N   1      27.590  17.329   9.203  0.00  0.00    -0.307 OA
HETATM   25  H   UNK N   1      26.778  16.937   8.845  0.00  0.00     0.222 HD
ENDBRANCH  22  24
BRANCH  22  26
HETATM   26  O   UNK N   1      29.505  17.112   9.561  0.00  0.00    -0.307 OA
HETATM   27  H   UNK N   1      29.642  16.154   9.615  0.00  0.00     0.222 HD
ENDBRANCH  22  26
ENDBRANCH  21  22
ENDBRANCH  20  21
ENDBRANCH  19  20
BRANCH  19  28
HETATM   28  O   UNK N   1      33.017  17.600   5.649  0.00  0.00    -0.391 OA
HETATM   29  H   UNK N   1      32.596  17.409   4.797  0.00  0.00     0.210 HD
ENDBRANCH  19  28
ENDBRANCH  18  19
BRANCH  18  30
HETATM   30  O   UNK N   1      32.218  17.861   9.169  0.00  0.00    -0.390 OA
HETATM   31  H   UNK N   1      31.547  18.484   9.489  0.00  0.00     0.210 HD
ENDBRANCH  18  30
ENDBRANCH  17  18
BRANCH  17  32
HETATM   32  O   UNK N   1      35.124  19.081   8.474  0.00  0.00    -0.390 OA
HETATM   33  H   UNK N   1      35.432  19.605   7.717  0.00  0.00     0.210 HD
ENDBRANCH  17  32
ENDBRANCH   1  17
BRANCH   1  34
HETATM   34  O   UNK N   1      35.739  17.508  10.302  0.00  0.00    -0.391 OA
HETATM   35  H   UNK N   1      35.593  18.310  10.829  0.00  0.00     0.210 HD
ENDBRANCH   1  34
TORSDOF 22
ENDMDL
MODEL 3
REMARK VINA RESULT:      -5.2      2.946      4.205
REMARK  22 active torsions:
REMARK  status: ('A' for Active; 'I' for Inactive)
REMARK    1  A    between atoms: C_5  and  C_1 
REMARK    2  A    between atoms: N_10  and  C_1 
REMARK    3  A    between atoms: C_7  and  C_2 
REMARK    4  A    between atoms: N_10  and  C_2 
REMARK    5  A    between atoms: C_6  and  C_3 
REMARK    6  A    between atoms: O_23  and  C_3 
REMARK    7  A    between atoms: N_10  and  C_4 
REMARK    8  A    between atoms: P_24  and  C_4 
REMARK    9  A    between atoms: C_8  and  C_5 
REMARK   10  A    between atoms: C_5  and  O_11 
REMARK   11  A    between atoms: C_9  and  C_6 
REMARK   12  A    between atoms: C_6  and  O_12 
REMARK   13  A    between atoms: O_13  and  C_7 
REMARK   14  A    between atoms: O_14  and  C_7 
REMARK   15  A    between atoms: C_9  and  C_8 
REMARK   16  A    between atoms: C_8  and  O_15 
REMARK   17  A    between atoms: C_9  and  O_16 
REMARK   18  A    between atoms: P_24  and  O_17 
REMARK   19  A    between atoms: P_24  and  O_18 
REMARK   20  A    between atoms: P_25  and  O_20 
REMARK   21  A    between atoms: P_25  and  O_21 
REMARK   22  A    between atoms: P_25  and  O_23 
ROOT
HETATM    1  C   UNK N   1      34.150  16.402   8.016  0.00  0.00     0.177 C 
ENDROOT
BRANCH   1   2
HETATM    2  C   UNK N   1      35.110  15.278   7.613  0.00  0.00     0.307 C 
BRANCH   2   3
HETATM    3  N   UNK N   1      34.420  14.231   6.864  0.00  0.00     0.112 N 
BRANCH   3   4
HETATM    4  C   UNK N   1      35.009  14.240   5.532  0.00  0.00     0.379 C 
BRANCH   4   5
HETATM    5  C   UNK N   1      34.009  14.626   4.488  0.00  0.00     0.135 C 
BRANCH   5   6
HETATM    6  O   UNK N   1      33.121  15.613   4.727  0.00  0.00    -0.777 OA
HETATM    7  H   UNK N   1      33.197  16.499   5.023  0.00  0.00     0.167 HD
ENDBRANCH   5   6
BRANCH   5   8
HETATM    8  O   UNK N   1      34.024  14.018   3.293  0.00  0.00    -0.777 OA
HETATM    9  H   UNK N   1      34.367  13.150   3.206  0.00  0.00     0.167 HD
ENDBRANCH   5   8
ENDBRANCH   4   5
ENDBRANCH   3   4
BRANCH   3  10
HETATM   10  C   UNK N   1      34.787  12.944   7.435  0.00  0.00     0.397 C 
BRANCH  10  11
HETATM   11  P   UNK N   1      33.528  12.370   8.684  0.00  0.00     0.264 P 
HETATM   12  O   UNK N   1      32.377  13.401   8.819  0.00  0.00    -0.652 OA
BRANCH  11  13
HETATM   13  O   UNK N   1      34.142  12.230  10.302  0.00  0.00    -0.328 OA
HETATM   14  H   UNK N   1      34.855  11.699  10.688  0.00  0.00     0.220 HD
ENDBRANCH  11  13
BRANCH  11  15
HETATM   15  O   UNK N   1      32.726  10.875   8.315  0.00  0.00    -0.328 OA
HETATM   16  H   UNK N   1      32.617  10.062   7.799  0.00  0.00     0.220 HD
ENDBRANCH  11  15
ENDBRANCH  10  11
ENDBRANCH   3  10
ENDBRANCH   2   3
ENDBRANCH   1   2
BRANCH   1  17
HETATM   17  C   UNK N   1      34.301  16.768   9.509  0.00  0.00     0.179 C 
BRANCH  17  18
HETATM   18  C   UNK N   1      34.742  15.589  10.415  0.00  0.00     0.180 C 
BRANCH  18  19
HETATM   19  C   UNK N   1      35.852  15.995  11.411  0.00  0.00     0.173 C 
BRANCH  19  20
HETATM   20  C   UNK N   1      35.849  15.045  12.605  0.00  0.00     0.214 C 
BRANCH  20  21
HETATM   21  O   UNK N   1      36.097  13.722  12.211  0.00  0.00    -0.294 OA
BRANCH  21  22
HETATM   22  P   UNK N   1      35.916  12.758  13.652  0.00  0.00     0.390 P 
HETATM   23  O   UNK N   1      36.482  14.076  14.249  0.00  0.00    -0.632 OA
BRANCH  22  24
HETATM   24  O   UNK N   1      34.745  13.163  14.867  0.00  0.00    -0.307 OA
HETATM   25  H   UNK N   1      34.098  12.504  15.161  0.00  0.00     0.222 HD
ENDBRANCH  22  24
BRANCH  22  26
HETATM   26  O   UNK N   1      34.362  13.083  12.947  0.00  0.00    -0.307 OA
HETATM   27  H   UNK N   1      33.895  13.917  13.110  0.00  0.00     0.222 HD
ENDBRANCH  22  26
ENDBRANCH  21  22
ENDBRANCH  20  21
ENDBRANCH  19  20
BRANCH  19  28
HETATM   28  O   UNK N   1      37.106  15.938  10.797  0.00  0.00    -0.391 OA
HETATM   29  H   UNK N   1      37.922  15.902  11.319  0.00  0.00     0.210 HD
ENDBRANCH  19  28
ENDBRANCH  18  19
BRANCH  18  30
HETATM   30  O   UNK N   1      33.639  15.121  11.138  0.00  0.00    -0.390 OA
HETATM   31  H   UNK N   1      33.354  14.196  11.067  0.00  0.00     0.210 HD
ENDBRANCH  18  30
ENDBRANCH  17  18
BRANCH  17  32
HETATM   32  O   UNK N   1      35.222  17.815   9.609  0.00  0.00    -0.390 OA
HETATM   33  H   UNK N   1      35.195  18.560   8.988  0.00  0.00     0.210 HD
ENDBRANCH  17  32
ENDBRANCH   1  17
BRANCH   1  34
HETATM   34  O   UNK N   1      32.837  16.031   7.724  0.00  0.00    -0.391 OA
HETATM   35  H   UNK N   1      32.612  15.131   7.439  0.00  0.00     0.210 HD
ENDBRANCH   1  34
TORSDOF 22
ENDMDL
MODEL 4
REMARK VINA RESULT:      -5.2      3.962      8.551
REMARK  22 active torsions:
REMARK  status: ('A' for Active; 'I' for Inactive)
REMARK    1  A    between atoms: C_5  and  C_1 
REMARK    2  A    between atoms: N_10  and  C_1 
REMARK    3  A    between atoms: C_7  and  C_2 
REMARK    4  A    between atoms: N_10  and  C_2 
REMARK    5  A    between atoms: C_6  and  C_3 
REMARK    6  A    between atoms: O_23  and  C_3 
REMARK    7  A    between atoms: N_10  and  C_4 
REMARK    8  A    between atoms: P_24  and  C_4 
REMARK    9  A    between atoms: C_8  and  C_5 
REMARK   10  A    between atoms: C_5  and  O_11 
REMARK   11  A    between atoms: C_9  and  C_6 
REMARK   12  A    between atoms: C_6  and  O_12 
REMARK   13  A    between atoms: O_13  and  C_7 
REMARK   14  A    between atoms: O_14  and  C_7 
REMARK   15  A    between atoms: C_9  and  C_8 
REMARK   16  A    between atoms: C_8  and  O_15 
REMARK   17  A    between atoms: C_9  and  O_16 
REMARK   18  A    between atoms: P_24  and  O_17 
REMARK   19  A    between atoms: P_24  and  O_18 
REMARK   20  A    between atoms: P_25  and  O_20 
REMARK   21  A    between atoms: P_25  and  O_21 
REMARK   22  A    between atoms: P_25  and  O_23 
ROOT
HETATM    1  C   UNK N   1      35.797  14.094  13.802  0.00  0.00     0.177 C 
ENDROOT
BRANCH   1   2
HETATM    2  C   UNK N   1      35.161  12.993  14.657  0.00  0.00     0.307 C 
BRANCH   2   3
HETATM    3  N   UNK N   1      35.804  12.896  15.964  0.00  0.00     0.112 N 
BRANCH   3   4
HETATM    4  C   UNK N   1      34.789  13.272  16.939  0.00  0.00     0.379 C 
BRANCH   4   5
HETATM    5  C   UNK N   1      35.392  13.916  18.146  0.00  0.00     0.135 C 
BRANCH   5   6
HETATM    6  O   UNK N   1      36.016  15.109  18.041  0.00  0.00    -0.777 OA
HETATM    7  H   UNK N   1      36.341  15.611  17.320  0.00  0.00     0.167 HD
ENDBRANCH   5   6
BRANCH   5   8
HETATM    8  O   UNK N   1      35.274  13.329  19.346  0.00  0.00    -0.777 OA
HETATM    9  H   UNK N   1      35.002  12.434  19.411  0.00  0.00     0.167 HD
ENDBRANCH   5   8
ENDBRANCH   4   5
ENDBRANCH   3   4
BRANCH   3  10
HETATM   10  C   UNK N   1      36.088  11.493  16.231  0.00  0.00     0.397 C 
BRANCH  10  11
HETATM   11  P   UNK N   1      37.173  10.755  14.907  0.00  0.00     0.264 P 
HETATM   12  O   UNK N   1      37.995   9.566  15.469  0.00  0.00    -0.652 OA
BRANCH  11  13
HETATM   13  O   UNK N   1      38.386  11.836  14.295  0.00  0.00    -0.328 OA
HETATM   14  H   UNK N   1      38.339  12.615  13.719  0.00  0.00     0.220 HD
ENDBRANCH  11  13
BRANCH  11  15
HETATM   15  O   UNK N   1      36.344  10.094  13.533  0.00  0.00    -0.328 OA
HETATM   16  H   UNK N   1      35.922  10.172  12.663  0.00  0.00     0.220 HD
ENDBRANCH  11  15
ENDBRANCH  10  11
ENDBRANCH   3  10
ENDBRANCH   2   3
ENDBRANCH   1   2
BRANCH   1  17
HETATM   17  C   UNK N   1      35.976  13.640  12.337  0.00  0.00     0.179 C 
BRANCH  17  18
HETATM   18  C   UNK N   1      35.185  14.484  11.303  0.00  0.00     0.180 C 
BRANCH  18  19
HETATM   19  C   UNK N   1      36.106  15.138  10.249  0.00  0.00     0.173 C 
BRANCH  19  20
HETATM   20  C   UNK N   1      35.265  15.719   9.116  0.00  0.00     0.214 C 
BRANCH  20  21
HETATM   21  O   UNK N   1      34.086  16.305   9.599  0.00  0.00    -0.294 OA
BRANCH  21  22
HETATM   22  P   UNK N   1      33.715  17.600   8.493  0.00  0.00     0.390 P 
HETATM   23  O   UNK N   1      35.087  18.073   9.049  0.00  0.00    -0.632 OA
BRANCH  22  24
HETATM   24  O   UNK N   1      34.648  17.851   7.052  0.00  0.00    -0.307 OA
HETATM   25  H   UNK N   1      34.363  17.462   6.211  0.00  0.00     0.222 HD
ENDBRANCH  22  24
BRANCH  22  26
HETATM   26  O   UNK N   1      33.943  16.114   7.623  0.00  0.00    -0.307 OA
HETATM   27  H   UNK N   1      34.031  16.100   6.658  0.00  0.00     0.222 HD
ENDBRANCH  22  26
ENDBRANCH  21  22
ENDBRANCH  20  21
ENDBRANCH  19  20
BRANCH  19  28
HETATM   28  O   UNK N   1      36.855  16.168  10.824  0.00  0.00    -0.391 OA
HETATM   29  H   UNK N   1      37.766  16.347  10.543  0.00  0.00     0.210 HD
ENDBRANCH  19  28
ENDBRANCH  18  19
BRANCH  18  30
HETATM   30  O   UNK N   1      34.260  13.666  10.647  0.00  0.00    -0.390 OA
HETATM   31  H   UNK N   1      34.457  12.732  10.474  0.00  0.00     0.210 HD
ENDBRANCH  18  30
ENDBRANCH  17  18
BRANCH  17  32
HETATM   32  O   UNK N   1      37.341  13.674  12.034  0.00  0.00    -0.390 OA
HETATM   33  H   UNK N   1      37.938  12.983  12.361  0.00  0.00     0.210 HD
ENDBRANCH  17  32
ENDBRANCH   1  17
BRANCH   1  34
HETATM   34  O   UNK N   1      37.018  14.479  14.357  0.00  0.00    -0.391 OA
HETATM   35  H   UNK N   1      37.067  15.102  15.099  0.00  0.00     0.210 HD
ENDBRANCH   1  34
TORSDOF 22
ENDMDL
MODEL 5
REMARK VINA RESULT:      -5.2      4.088      9.018
REMARK  22 active torsions:
REMARK  status: ('A' for Active; 'I' for Inactive)
REMARK    1  A    between atoms: C_5  and  C_1 
REMARK    2  A    between atoms: N_10  and  C_1 
REMARK    3  A    between atoms: C_7  and  C_2 
REMARK    4  A    between atoms: N_10  and  C_2 
REMARK    5  A    between atoms: C_6  and  C_3 
REMARK    6  A    between atoms: O_23  and  C_3 
REMARK    7  A    between atoms: N_10  and  C_4 
REMARK    8  A    between atoms: P_24  and  C_4 
REMARK    9  A    between atoms: C_8  and  C_5 
REMARK   10  A    between atoms: C_5  and  O_11 
REMARK   11  A    between atoms: C_9  and  C_6 
REMARK   12  A    between atoms: C_6  and  O_12 
REMARK   13  A    between atoms: O_13  and  C_7 
REMARK   14  A    between atoms: O_14  and  C_7 
REMARK   15  A    between atoms: C_9  and  C_8 
REMARK   16  A    between atoms: C_8  and  O_15 
REMARK   17  A    between atoms: C_9  and  O_16 
REMARK   18  A    between atoms: P_24  and  O_17 
REMARK   19  A    between atoms: P_24  and  O_18 
REMARK   20  A    between atoms: P_25  and  O_20 
REMARK   21  A    between atoms: P_25  and  O_21 
REMARK   22  A    between atoms: P_25  and  O_23 
ROOT
HETATM    1  C   UNK N   1      29.696  17.601   8.829  0.00  0.00     0.177 C 
ENDROOT
BRANCH   1   2
HETATM    2  C   UNK N   1      31.061  18.293   8.760  0.00  0.00     0.307 C 
BRANCH   2   3
HETATM    3  N   UNK N   1      31.998  17.542   7.929  0.00  0.00     0.112 N 
BRANCH   3   4
HETATM    4  C   UNK N   1      33.265  17.550   8.648  0.00  0.00     0.379 C 
BRANCH   4   5
HETATM    5  C   UNK N   1      34.343  18.227   7.864  0.00  0.00     0.135 C 
BRANCH   5   6
HETATM    6  O   UNK N   1      34.464  18.003   6.538  0.00  0.00    -0.777 OA
HETATM    7  H   UNK N   1      34.497  18.560   5.785  0.00  0.00     0.167 HD
ENDBRANCH   5   6
BRANCH   5   8
HETATM    8  O   UNK N   1      35.167  19.094   8.471  0.00  0.00    -0.777 OA
HETATM    9  H   UNK N   1      34.898  19.979   8.619  0.00  0.00     0.167 HD
ENDBRANCH   5   8
ENDBRANCH   4   5
ENDBRANCH   3   4
BRANCH   3  10
HETATM   10  C   UNK N   1      31.578  16.149   7.910  0.00  0.00     0.397 C 
BRANCH  10  11
HETATM   11  P   UNK N   1      31.796  15.395   6.220  0.00  0.00     0.264 P 
HETATM   12  O   UNK N   1      33.294  15.368   5.819  0.00  0.00    -0.652 OA
BRANCH  11  13
HETATM   13  O   UNK N   1      31.046  16.292   4.937  0.00  0.00    -0.328 OA
HETATM   14  H   UNK N   1      30.298  16.908   4.919  0.00  0.00     0.220 HD
ENDBRANCH  11  13
BRANCH  11  15
HETATM   15  O   UNK N   1      31.278  13.746   6.056  0.00  0.00    -0.328 OA
HETATM   16  H   UNK N   1      31.159  12.927   5.550  0.00  0.00     0.220 HD
ENDBRANCH  11  15
ENDBRANCH  10  11
ENDBRANCH   3  10
ENDBRANCH   2   3
ENDBRANCH   1   2
BRANCH   1  17
HETATM   17  C   UNK N   1      28.549  18.575   8.484  0.00  0.00     0.179 C 
BRANCH  17  18
HETATM   18  C   UNK N   1      28.051  18.483   7.018  0.00  0.00     0.180 C 
BRANCH  18  19
HETATM   19  C   UNK N   1      27.585  19.850   6.467  0.00  0.00     0.173 C 
BRANCH  19  20
HETATM   20  C   UNK N   1      27.071  19.686   5.040  0.00  0.00     0.214 C 
BRANCH  20  21
HETATM   21  O   UNK N   1      25.799  20.254   4.883  0.00  0.00    -0.294 OA
BRANCH  21  22
HETATM   22  P   UNK N   1      25.228  19.712   3.328  0.00  0.00     0.390 P 
HETATM   23  O   UNK N   1      24.093  20.693   3.731  0.00  0.00    -0.632 OA
BRANCH  22  24
HETATM   24  O   UNK N   1      25.150  20.789   1.969  0.00  0.00    -0.307 OA
HETATM   25  H   UNK N   1      24.330  21.268   1.772  0.00  0.00     0.222 HD
ENDBRANCH  22  24
BRANCH  22  26
HETATM   26  O   UNK N   1      26.706  20.606   3.147  0.00  0.00    -0.307 OA
HETATM   27  H   UNK N   1      27.461  20.462   3.738  0.00  0.00     0.222 HD
ENDBRANCH  22  26
ENDBRANCH  21  22
ENDBRANCH  20  21
ENDBRANCH  19  20
BRANCH  19  28
HETATM   28  O   UNK N   1      26.556  20.371   7.257  0.00  0.00    -0.391 OA
HETATM   29  H   UNK N   1      25.783  20.801   6.859  0.00  0.00     0.210 HD
ENDBRANCH  19  28
ENDBRANCH  18  19
BRANCH  18  30
HETATM   30  O   UNK N   1      29.083  18.000   6.207  0.00  0.00    -0.390 OA
HETATM   31  H   UNK N   1      29.511  18.574   5.553  0.00  0.00     0.210 HD
ENDBRANCH  18  30
ENDBRANCH  17  18
BRANCH  17  32
HETATM   32  O   UNK N   1      27.489  18.327   9.363  0.00  0.00    -0.390 OA
HETATM   33  H   UNK N   1      27.221  17.419   9.572  0.00  0.00     0.210 HD
ENDBRANCH  17  32
ENDBRANCH   1  17
BRANCH   1  34
HETATM   34  O   UNK N   1      29.512  17.042  10.095  0.00  0.00    -0.391 OA
HETATM   35  H   UNK N   1      29.297  17.588  10.868  0.00  0.00     0.210 HD
ENDBRANCH   1  34
TORSDOF 22
ENDMDL
MODEL 6
REMARK VINA RESULT:      -5.2      2.753      7.321
REMARK  22 active torsions:
REMARK  status: ('A' for Active; 'I' for Inactive)
REMARK    1  A    between atoms: C_5  and  C_1 
REMARK    2  A    between atoms: N_10  and  C_1 
REMARK    3  A    between atoms: C_7  and  C_2 
REMARK    4  A    between atoms: N_10  and  C_2 
REMARK    5  A    between atoms: C_6  and  C_3 
REMARK    6  A    between atoms: O_23  and  C_3 
REMARK    7  A    between atoms: N_10  and  C_4 
REMARK    8  A    between atoms: P_24  and  C_4 
REMARK    9  A    between atoms: C_8  and  C_5 
REMARK   10  A    between atoms: C_5  and  O_11 
REMARK   11  A    between atoms: C_9  and  C_6 
REMARK   12  A    between atoms: C_6  and  O_12 
REMARK   13  A    between atoms: O_13  and  C_7 
REMARK   14  A    between atoms: O_14  and  C_7 
REMARK   15  A    between atoms: C_9  and  C_8 
REMARK   16  A    between atoms: C_8  and  O_15 
REMARK   17  A    between atoms: C_9  and  O_16 
REMARK   18  A    between atoms: P_24  and  O_17 
REMARK   19  A    between atoms: P_24  and  O_18 
REMARK   20  A    between atoms: P_25  and  O_20 
REMARK   21  A    between atoms: P_25  and  O_21 
REMARK   22  A    between atoms: P_25  and  O_23 
ROOT
HETATM    1  C   UNK N   1      34.057  14.978   9.992  0.00  0.00     0.177 C 
ENDROOT
BRANCH   1   2
HETATM    2  C   UNK N   1      35.060  13.831   9.838  0.00  0.00     0.307 C 
BRANCH   2   3
HETATM    3  N   UNK N   1      34.778  12.746  10.773  0.00  0.00     0.112 N 
BRANCH   3   4
HETATM    4  C   UNK N   1      34.538  11.565   9.955  0.00  0.00     0.379 C 
BRANCH   4   5
HETATM    5  C   UNK N   1      33.261  10.882  10.328  0.00  0.00     0.135 C 
BRANCH   5   6
HETATM    6  O   UNK N   1      32.147  11.069   9.587  0.00  0.00    -0.777 OA
HETATM    7  H   UNK N   1      31.993  11.301   8.692  0.00  0.00     0.167 HD
ENDBRANCH   5   6
BRANCH   5   8
HETATM    8  O   UNK N   1      33.231  10.047  11.376  0.00  0.00    -0.777 OA
HETATM    9  H   UNK N   1      32.697  10.241  12.122  0.00  0.00     0.167 HD
ENDBRANCH   5   8
ENDBRANCH   4   5
ENDBRANCH   3   4
BRANCH   3  10
HETATM   10  C   UNK N   1      35.994  12.454  11.517  0.00  0.00     0.397 C 
BRANCH  10  11
HETATM   11  P   UNK N   1      36.125  13.510  13.048  0.00  0.00     0.264 P 
HETATM   12  O   UNK N   1      34.793  13.497  13.841  0.00  0.00    -0.652 OA
BRANCH  11  13
HETATM   13  O   UNK N   1      36.394  15.196  12.730  0.00  0.00    -0.328 OA
HETATM   14  H   UNK N   1      35.791  15.947  12.626  0.00  0.00     0.220 HD
ENDBRANCH  11  13
BRANCH  11  15
HETATM   15  O   UNK N   1      37.321  13.017  14.206  0.00  0.00    -0.328 OA
HETATM   16  H   UNK N   1      37.589  12.674  15.072  0.00  0.00     0.220 HD
ENDBRANCH  11  15
ENDBRANCH  10  11
ENDBRANCH   3  10
ENDBRANCH   2   3
ENDBRANCH   1   2
BRANCH   1  17
HETATM   17  C   UNK N   1      34.707  16.345   9.688  0.00  0.00     0.179 C 
BRANCH  17  18
HETATM   18  C   UNK N   1      33.868  17.261   8.759  0.00  0.00     0.180 C 
BRANCH  18  19
HETATM   19  C   UNK N   1      34.066  16.924   7.264  0.00  0.00     0.173 C 
BRANCH  19  20
HETATM   20  C   UNK N   1      32.767  16.378   6.679  0.00  0.00     0.214 C 
BRANCH  20  21
HETATM   21  O   UNK N   1      32.139  17.321   5.852  0.00  0.00    -0.294 OA
BRANCH  21  22
HETATM   22  P   UNK N   1      30.508  16.746   5.634  0.00  0.00     0.390 P 
HETATM   23  O   UNK N   1      30.382  17.478   6.999  0.00  0.00    -0.632 OA
BRANCH  22  24
HETATM   24  O   UNK N   1      29.193  17.845   5.360  0.00  0.00    -0.307 OA
HETATM   25  H   UNK N   1      28.707  17.826   4.522  0.00  0.00     0.222 HD
ENDBRANCH  22  24
BRANCH  22  26
HETATM   26  O   UNK N   1      30.905  17.909   4.407  0.00  0.00    -0.307 OA
HETATM   27  H   UNK N   1      30.707  17.747   3.471  0.00  0.00     0.222 HD
ENDBRANCH  22  26
ENDBRANCH  21  22
ENDBRANCH  20  21
ENDBRANCH  19  20
BRANCH  19  28
HETATM   28  O   UNK N   1      34.434  18.067   6.549  0.00  0.00    -0.391 OA
HETATM   29  H   UNK N   1      34.283  18.134   5.593  0.00  0.00     0.210 HD
ENDBRANCH  19  28
ENDBRANCH  18  19
BRANCH  18  30
HETATM   30  O   UNK N   1      32.512  17.124   9.075  0.00  0.00    -0.390 OA
HETATM   31  H   UNK N   1      32.164  16.286   9.419  0.00  0.00     0.210 HD
ENDBRANCH  18  30
ENDBRANCH  17  18
BRANCH  17  32
HETATM   32  O   UNK N   1      34.948  16.993  10.904  0.00  0.00    -0.390 OA
HETATM   33  H   UNK N   1      34.678  17.915  11.035  0.00  0.00     0.210 HD
ENDBRANCH  17  32
ENDBRANCH   1  17
BRANCH   1  34
HETATM   34  O   UNK N   1      33.511  14.961  11.276  0.00  0.00    -0.391 OA
HETATM   35  H   UNK N   1      33.233  15.776  11.724  0.00  0.00     0.210 HD
ENDBRANCH   1  34
TORSDOF 22
ENDMDL
MODEL 7
REMARK VINA RESULT:      -5.2      2.053      3.764
REMARK  22 active torsions:
REMARK  status: ('A' for Active; 'I' for Inactive)
REMARK    1  A    between atoms: C_5  and  C_1 
REMARK    2  A    between atoms: N_10  and  C_1 
REMARK    3  A    between atoms: C_7  and  C_2 
REMARK    4  A    between atoms: N_10  and  C_2 
REMARK    5  A    between atoms: C_6  and  C_3 
REMARK    6  A    between atoms: O_23  and  C_3 
REMARK    7  A    between atoms: N_10  and  C_4 
REMARK    8  A    between atoms: P_24  and  C_4 
REMARK    9  A    between atoms: C_8  and  C_5 
REMARK   10  A    between atoms: C_5  and  O_11 
REMARK   11  A    between atoms: C_9  and  C_6 
REMARK   12  A    between atoms: C_6  and  O_12 
REMARK   13  A    between atoms: O_13  and  C_7 
REMARK   14  A    between atoms: O_14  and  C_7 
REMARK   15  A    between atoms: C_9  and  C_8 
REMARK   16  A    between atoms: C_8  and  O_15 
REMARK   17  A    between atoms: C_9  and  O_16 
REMARK   18  A    between atoms: P_24  and  O_17 
REMARK   19  A    between atoms: P_24  and  O_18 
REMARK   20  A    between atoms: P_25  and  O_20 
REMARK   21  A    between atoms: P_25  and  O_21 
REMARK   22  A    between atoms: P_25  and  O_23 
ROOT
HETATM    1  C   UNK N   1      32.708  17.302   8.572  0.00  0.00     0.177 C 
ENDROOT
BRANCH   1   2
HETATM    2  C   UNK N   1      31.737  17.567   7.417  0.00  0.00     0.307 C 
BRANCH   2   3
HETATM    3  N   UNK N   1      30.460  16.892   7.629  0.00  0.00     0.112 N 
BRANCH   3   4
HETATM    4  C   UNK N   1      29.493  17.944   7.908  0.00  0.00     0.379 C 
BRANCH   4   5
HETATM    5  C   UNK N   1      28.852  17.766   9.248  0.00  0.00     0.135 C 
BRANCH   5   6
HETATM    6  O   UNK N   1      29.590  17.379  10.310  0.00  0.00    -0.777 OA
HETATM    7  H   UNK N   1      29.534  17.534  11.232  0.00  0.00     0.167 HD
ENDBRANCH   5   6
BRANCH   5   8
HETATM    8  O   UNK N   1      27.548  18.034   9.406  0.00  0.00    -0.777 OA
HETATM    9  H   UNK N   1      27.207  18.252  10.251  0.00  0.00     0.167 HD
ENDBRANCH   5   8
ENDBRANCH   4   5
ENDBRANCH   3   4
BRANCH   3  10
HETATM   10  C   UNK N   1      30.036  16.309   6.365  0.00  0.00     0.397 C 
BRANCH  10  11
HETATM   11  P   UNK N   1      31.075  14.829   5.915  0.00  0.00     0.264 P 
HETATM   12  O   UNK N   1      31.803  14.268   7.164  0.00  0.00    -0.652 OA
BRANCH  11  13
HETATM   13  O   UNK N   1      32.369  15.176   4.810  0.00  0.00    -0.328 OA
HETATM   14  H   UNK N   1      33.328  15.052   4.865  0.00  0.00     0.220 HD
ENDBRANCH  11  13
BRANCH  11  15
HETATM   15  O   UNK N   1      30.212  13.467   5.271  0.00  0.00    -0.328 OA
HETATM   16  H   UNK N   1      29.408  13.034   4.946  0.00  0.00     0.220 HD
ENDBRANCH  11  15
ENDBRANCH  10  11
ENDBRANCH   3  10
ENDBRANCH   2   3
ENDBRANCH   1   2
BRANCH   1  17
HETATM   17  C   UNK N   1      34.125  16.970   8.056  0.00  0.00     0.179 C 
BRANCH  17  18
HETATM   18  C   UNK N   1      34.899  15.945   8.926  0.00  0.00     0.180 C 
BRANCH  18  19
HETATM   19  C   UNK N   1      35.045  16.409  10.393  0.00  0.00     0.173 C 
BRANCH  19  20
HETATM   20  C   UNK N   1      35.658  15.290  11.231  0.00  0.00     0.214 C 
BRANCH  20  21
HETATM   21  O   UNK N   1      34.682  14.613  11.977  0.00  0.00    -0.294 OA
BRANCH  21  22
HETATM   22  P   UNK N   1      35.358  13.044  12.324  0.00  0.00     0.390 P 
HETATM   23  O   UNK N   1      34.636  13.357  13.664  0.00  0.00    -0.632 OA
BRANCH  22  24
HETATM   24  O   UNK N   1      34.343  11.654  12.548  0.00  0.00    -0.307 OA
HETATM   25  H   UNK N   1      34.288  11.223  13.415  0.00  0.00     0.222 HD
ENDBRANCH  22  24
BRANCH  22  26
HETATM   26  O   UNK N   1      34.170  12.922  11.062  0.00  0.00    -0.307 OA
HETATM   27  H   UNK N   1      34.229  13.458  10.256  0.00  0.00     0.222 HD
ENDBRANCH  22  26
ENDBRANCH  21  22
ENDBRANCH  20  21
ENDBRANCH  19  20
BRANCH  19  28
HETATM   28  O   UNK N   1      35.873  17.532  10.472  0.00  0.00    -0.391 OA
HETATM   29  H   UNK N   1      36.835  17.446  10.546  0.00  0.00     0.210 HD
ENDBRANCH  19  28
ENDBRANCH  18  19
BRANCH  18  30
HETATM   30  O   UNK N   1      34.227  14.718   8.907  0.00  0.00    -0.390 OA
HETATM   31  H   UNK N   1      33.574  14.499   9.591  0.00  0.00     0.210 HD
ENDBRANCH  18  30
ENDBRANCH  17  18
BRANCH  17  32
HETATM   32  O   UNK N   1      34.010  16.491   6.747  0.00  0.00    -0.390 OA
HETATM   33  H   UNK N   1      33.331  15.838   6.516  0.00  0.00     0.210 HD
ENDBRANCH  17  32
ENDBRANCH   1  17
BRANCH   1  34
HETATM   34  O   UNK N   1      32.217  16.273   9.378  0.00  0.00    -0.391 OA
HETATM   35  H   UNK N   1      31.349  16.332   9.809  0.00  0.00     0.210 HD
ENDBRANCH   1  34
TORSDOF 22
ENDMDL
MODEL 8
REMARK VINA RESULT:      -5.1      3.387      5.732
REMARK  22 active torsions:
REMARK  status: ('A' for Active; 'I' for Inactive)
REMARK    1  A    between atoms: C_5  and  C_1 
REMARK    2  A    between atoms: N_10  and  C_1 
REMARK    3  A    between atoms: C_7  and  C_2 
REMARK    4  A    between atoms: N_10  and  C_2 
REMARK    5  A    between atoms: C_6  and  C_3 
REMARK    6  A    between atoms: O_23  and  C_3 
REMARK    7  A    between atoms: N_10  and  C_4 
REMARK    8  A    between atoms: P_24  and  C_4 
REMARK    9  A    between atoms: C_8  and  C_5 
REMARK   10  A    between atoms: C_5  and  O_11 
REMARK   11  A    between atoms: C_9  and  C_6 
REMARK   12  A    between atoms: C_6  and  O_12 
REMARK   13  A    between atoms: O_13  and  C_7 
REMARK   14  A    between atoms: O_14  and  C_7 
REMARK   15  A    between atoms: C_9  and  C_8 
REMARK   16  A    between atoms: C_8  and  O_15 
REMARK   17  A    between atoms: C_9  and  O_16 
REMARK   18  A    between atoms: P_24  and  O_17 
REMARK   19  A    between atoms: P_24  and  O_18 
REMARK   20  A    between atoms: P_25  and  O_20 
REMARK   21  A    between atoms: P_25  and  O_21 
REMARK   22  A    between atoms: P_25  and  O_23 
ROOT
HETATM    1  C   UNK N   1      33.959  15.214   8.662  0.00  0.00     0.177 C 
ENDROOT
BRANCH   1   2
HETATM    2  C   UNK N   1      34.936  14.262   7.965  0.00  0.00     0.307 C 
BRANCH   2   3
HETATM    3  N   UNK N   1      35.443  13.249   8.888  0.00  0.00     0.112 N 
BRANCH   3   4
HETATM    4  C   UNK N   1      34.688  12.036   8.603  0.00  0.00     0.379 C 
BRANCH   4   5
HETATM    5  C   UNK N   1      33.722  11.716   9.699  0.00  0.00     0.135 C 
BRANCH   5   6
HETATM    6  O   UNK N   1      34.127  11.717  10.987  0.00  0.00    -0.777 OA
HETATM    7  H   UNK N   1      34.423  11.051  11.576  0.00  0.00     0.167 HD
ENDBRANCH   5   6
BRANCH   5   8
HETATM    8  O   UNK N   1      32.437  11.468   9.405  0.00  0.00    -0.777 OA
HETATM    9  H   UNK N   1      31.909  10.953   9.983  0.00  0.00     0.167 HD
ENDBRANCH   5   8
ENDBRANCH   4   5
ENDBRANCH   3   4
BRANCH   3  10
HETATM   10  C   UNK N   1      36.816  12.940   8.518  0.00  0.00     0.397 C 
BRANCH  10  11
HETATM   11  P   UNK N   1      37.778  12.274   9.969  0.00  0.00     0.264 P 
HETATM   12  O   UNK N   1      38.852  11.260   9.498  0.00  0.00    -0.652 OA
BRANCH  11  13
HETATM   13  O   UNK N   1      36.824  11.364  11.099  0.00  0.00    -0.328 OA
HETATM   14  H   UNK N   1      36.130  11.619  11.725  0.00  0.00     0.220 HD
ENDBRANCH  11  13
BRANCH  11  15
HETATM   15  O   UNK N   1      38.668  13.448  10.888  0.00  0.00    -0.328 OA
HETATM   16  H   UNK N   1      38.888  13.909  11.712  0.00  0.00     0.220 HD
ENDBRANCH  11  15
ENDBRANCH  10  11
ENDBRANCH   3  10
ENDBRANCH   2   3
ENDBRANCH   1   2
BRANCH   1  17
HETATM   17  C   UNK N   1      34.124  15.171  10.197  0.00  0.00     0.179 C 
BRANCH  17  18
HETATM   18  C   UNK N   1      34.846  16.405  10.799  0.00  0.00     0.180 C 
BRANCH  18  19
HETATM   19  C   UNK N   1      36.097  16.015  11.617  0.00  0.00     0.173 C 
BRANCH  19  20
HETATM   20  C   UNK N   1      35.854  14.691  12.335  0.00  0.00     0.214 C 
BRANCH  20  21
HETATM   21  O   UNK N   1      36.415  14.692  13.621  0.00  0.00    -0.294 OA
BRANCH  21  22
HETATM   22  P   UNK N   1      35.815  13.252  14.399  0.00  0.00     0.390 P 
HETATM   23  O   UNK N   1      34.717  13.485  13.325  0.00  0.00    -0.632 OA
BRANCH  22  24
HETATM   24  O   UNK N   1      35.764  11.731  13.566  0.00  0.00    -0.307 OA
HETATM   25  H   UNK N   1      34.989  11.154  13.649  0.00  0.00     0.222 HD
ENDBRANCH  22  24
BRANCH  22  26
HETATM   26  O   UNK N   1      37.321  12.921  13.600  0.00  0.00    -0.307 OA
HETATM   27  H   UNK N   1      38.079  12.551  14.079  0.00  0.00     0.222 HD
ENDBRANCH  22  26
ENDBRANCH  21  22
ENDBRANCH  20  21
ENDBRANCH  19  20
BRANCH  19  28
HETATM   28  O   UNK N   1      37.206  15.873  10.780  0.00  0.00    -0.391 OA
HETATM   29  H   UNK N   1      37.176  15.307   9.994  0.00  0.00     0.210 HD
ENDBRANCH  19  28
ENDBRANCH  18  19
BRANCH  18  30
HETATM   30  O   UNK N   1      35.235  17.264   9.765  0.00  0.00    -0.390 OA
HETATM   31  H   UNK N   1      35.807  18.027   9.942  0.00  0.00     0.210 HD
ENDBRANCH  18  30
ENDBRANCH  17  18
BRANCH  17  32
HETATM   32  O   UNK N   1      32.854  15.039  10.767  0.00  0.00    -0.390 OA
HETATM   33  H   UNK N   1      32.491  15.735  11.337  0.00  0.00     0.210 HD
ENDBRANCH  17  32
ENDBRANCH   1  17
BRANCH   1  34
HETATM   34  O   UNK N   1      32.650  14.904   8.293  0.00  0.00    -0.391 OA
HETATM   35  H   UNK N   1      32.075  14.361   8.856  0.00  0.00     0.210 HD
ENDBRANCH   1  34
TORSDOF 22
ENDMDL
MODEL 9
REMARK VINA RESULT:      -5.1      1.552      2.213
REMARK  22 active torsions:
REMARK  status: ('A' for Active; 'I' for Inactive)
REMARK    1  A    between atoms: C_5  and  C_1 
REMARK    2  A    between atoms: N_10  and  C_1 
REMARK    3  A    between atoms: C_7  and  C_2 
REMARK    4  A    between atoms: N_10  and  C_2 
REMARK    5  A    between atoms: C_6  and  C_3 
REMARK    6  A    between atoms: O_23  and  C_3 
REMARK    7  A    between atoms: N_10  and  C_4 
REMARK    8  A    between atoms: P_24  and  C_4 
REMARK    9  A    between atoms: C_8  and  C_5 
REMARK   10  A    between atoms: C_5  and  O_11 
REMARK   11  A    between atoms: C_9  and  C_6 
REMARK   12  A    between atoms: C_6  and  O_12 
REMARK   13  A    between atoms: O_13  and  C_7 
REMARK   14  A    between atoms: O_14  and  C_7 
REMARK   15  A    between atoms: C_9  and  C_8 
REMARK   16  A    between atoms: C_8  and  O_15 
REMARK   17  A    between atoms: C_9  and  O_16 
REMARK   18  A    between atoms: P_24  and  O_17 
REMARK   19  A    between atoms: P_24  and  O_18 
REMARK   20  A    between atoms: P_25  and  O_20 
REMARK   21  A    between atoms: P_25  and  O_21 
REMARK   22  A    between atoms: P_25  and  O_23 
ROOT
HETATM    1  C   UNK N   1      33.520  16.181   9.011  0.00  0.00     0.177 C 
ENDROOT
BRANCH   1   2
HETATM    2  C   UNK N   1      32.181  15.821   8.360  0.00  0.00     0.307 C 
BRANCH   2   3
HETATM    3  N   UNK N   1      31.694  16.903   7.509  0.00  0.00     0.112 N 
BRANCH   3   4
HETATM    4  C   UNK N   1      32.022  16.517   6.144  0.00  0.00     0.379 C 
BRANCH   4   5
HETATM    5  C   UNK N   1      33.030  17.439   5.534  0.00  0.00     0.135 C 
BRANCH   5   6
HETATM    6  O   UNK N   1      32.899  17.837   4.250  0.00  0.00    -0.777 OA
HETATM    7  H   UNK N   1      33.504  18.119   3.592  0.00  0.00     0.167 HD
ENDBRANCH   5   6
BRANCH   5   8
HETATM    8  O   UNK N   1      34.043  17.906   6.277  0.00  0.00    -0.777 OA
HETATM    9  H   UNK N   1      34.736  18.396   5.879  0.00  0.00     0.167 HD
ENDBRANCH   5   8
ENDBRANCH   4   5
ENDBRANCH   3   4
BRANCH   3  10
HETATM   10  C   UNK N   1      30.240  16.910   7.565  0.00  0.00     0.397 C 
BRANCH  10  11
HETATM   11  P   UNK N   1      29.621  17.815   9.073  0.00  0.00     0.264 P 
HETATM   12  O   UNK N   1      30.525  19.034   9.392  0.00  0.00    -0.652 OA
BRANCH  11  13
HETATM   13  O   UNK N   1      29.666  16.879  10.534  0.00  0.00    -0.328 OA
HETATM   14  H   UNK N   1      29.951  15.971  10.722  0.00  0.00     0.220 HD
ENDBRANCH  11  13
BRANCH  11  15
HETATM   15  O   UNK N   1      28.024  18.483   8.949  0.00  0.00    -0.328 OA
HETATM   16  H   UNK N   1      27.215  18.856   9.333  0.00  0.00     0.220 HD
ENDBRANCH  11  15
ENDBRANCH  10  11
ENDBRANCH   3  10
ENDBRANCH   2   3
ENDBRANCH   1   2
BRANCH   1  17
HETATM   17  C   UNK N   1      33.846  15.242  10.193  0.00  0.00     0.179 C 
BRANCH  17  18
HETATM   18  C   UNK N   1      34.989  15.744  11.113  0.00  0.00     0.180 C 
BRANCH  18  19
HETATM   19  C   UNK N   1      35.513  14.640  12.058  0.00  0.00     0.173 C 
BRANCH  19  20
HETATM   20  C   UNK N   1      36.176  13.533  11.243  0.00  0.00     0.214 C 
BRANCH  20  21
HETATM   21  O   UNK N   1      37.574  13.595  11.332  0.00  0.00    -0.294 OA
BRANCH  21  22
HETATM   22  P   UNK N   1      38.170  13.079   9.778  0.00  0.00     0.390 P 
HETATM   23  O   UNK N   1      36.649  12.806   9.615  0.00  0.00    -0.632 OA
BRANCH  22  24
HETATM   24  O   UNK N   1      37.777  13.947   8.327  0.00  0.00    -0.307 OA
HETATM   25  H   UNK N   1      36.945  14.442   8.264  0.00  0.00     0.222 HD
ENDBRANCH  22  24
BRANCH  22  26
HETATM   26  O   UNK N   1      38.416  14.787   9.979  0.00  0.00    -0.307 OA
HETATM   27  H   UNK N   1      38.532  15.182  10.857  0.00  0.00     0.222 HD
ENDBRANCH  22  26
ENDBRANCH  21  22
ENDBRANCH  20  21
ENDBRANCH  19  20
BRANCH  19  28
HETATM   28  O   UNK N   1      36.453  15.163  12.950  0.00  0.00    -0.391 OA
HETATM   29  H   UNK N   1      36.483  16.110  13.153  0.00  0.00     0.210 HD
ENDBRANCH  19  28
ENDBRANCH  18  19
BRANCH  18  30
HETATM   30  O   UNK N   1      36.050  16.204  10.326  0.00  0.00    -0.390 OA
HETATM   31  H   UNK N   1      36.745  15.597  10.025  0.00  0.00     0.210 HD
ENDBRANCH  18  30
ENDBRANCH  17  18
BRANCH  17  32
HETATM   32  O   UNK N   1      32.678  15.062  10.940  0.00  0.00    -0.390 OA
HETATM   33  H   UNK N   1      31.918  14.590  10.565  0.00  0.00     0.210 HD
ENDBRANCH  17  32
ENDBRANCH   1  17
BRANCH   1  34
HETATM   34  O   UNK N   1      33.504  17.514   9.423  0.00  0.00    -0.391 OA
HETATM   35  H   UNK N   1      32.731  17.903   9.863  0.00  0.00     0.210 HD
ENDBRANCH   1  34
TORSDOF 22
ENDMDL
