REMARK  9 active torsions:
REMARK  status: ('A' for Active; 'I' for Inactive)
REMARK    1  A    between atoms: C_2  and  N_1 
REMARK    2  A    between atoms: C_2  and  C_3 
REMARK    3  A    between atoms: C_2  and  C_10 
REMARK    4  A    between atoms: C_3  and  S_4 
REMARK    5  A    between atoms: S_4  and  C_5 
REMARK    6  A    between atoms: C_5  and  P_6 
REMARK    7  A    between atoms: P_6  and  O_7 
REMARK    8  A    between atoms: P_6  and  O_8 
REMARK    9  A    between atoms: C_10  and  O_11 
ROOT
HETATM    1  C   UNK N   1       4.137   1.391   0.266  0.00  0.00     0.110 C 
ENDROOT
BRANCH   1   2
HETATM    2  C   UNK N   1       5.429   1.886  -0.356  0.00  0.00     0.182 C 
BRANCH   2   3
HETATM    3  N   UNK N   1       5.758   3.192   0.190  0.00  0.00    -0.417 N 
HETATM    4  H   UNK N   1       6.668   3.451   0.572  0.00  0.00     0.150 HD
HETATM    5  H   UNK N   1       5.026   3.903   0.190  0.00  0.00     0.150 HD
ENDBRANCH   2   3
BRANCH   2   6
HETATM    6  C   UNK N   1       6.542   0.907  -0.106  0.00  0.00     0.163 C 
HETATM    7  O   UNK N   1       6.439  -0.245  -0.490  0.00  0.00    -0.648 OA
BRANCH   6   8
HETATM    8  O   UNK N   1       7.665   1.297   0.532  0.00  0.00    -0.775 OA
HETATM    9  H   UNK N   1       8.290   0.757   0.976  0.00  0.00     0.167 HD
ENDBRANCH   6   8
ENDBRANCH   2   6
ENDBRANCH   1   2
BRANCH   1  10
HETATM   10  S   UNK N   1       3.156   0.519  -0.994  0.00  0.00    -0.155 SA
BRANCH  10  11
HETATM   11  C   UNK N   1       1.700   0.455   0.088  0.00  0.00     0.198 C 
BRANCH  11  12
HETATM   12  P   UNK N   1       0.756   2.068   0.144  0.00  0.00     0.245 P 
HETATM   13  O   UNK N   1       1.684   3.288   0.392  0.00  0.00    -0.653 OA
BRANCH  12  14
HETATM   14  O   UNK N   1      -0.250   2.528  -1.198  0.00  0.00    -0.329 OA
HETATM   15  H   UNK N   1      -0.308   3.142  -1.946  0.00  0.00     0.220 HD
ENDBRANCH  12  14
BRANCH  12  16
HETATM   16  O   UNK N   1      -0.277   2.080   1.532  0.00  0.00    -0.329 OA
HETATM   17  H   UNK N   1      -0.561   2.585   2.311  0.00  0.00     0.220 HD
ENDBRANCH  12  16
ENDBRANCH  11  12
ENDBRANCH  10  11
ENDBRANCH   1  10
TORSDOF 9
