MODEL 1
REMARK VINA RESULT:      -4.6      0.000      0.000
REMARK  9 active torsions:
REMARK  status: ('A' for Active; 'I' for Inactive)
REMARK    1  A    between atoms: C_3  and  C_2 
REMARK    2  A    between atoms: C_4  and  C_2 
REMARK    3  A    between atoms: C_5  and  C_3 
REMARK    4  A    between atoms: C_6  and  C_4 
REMARK    5  A    between atoms: C_8  and  C_5 
REMARK    6  A    between atoms: C_9  and  C_6 
REMARK    7  A    between atoms: C_8  and  C_7 
REMARK    8  A    between atoms: C_7  and  N_10 
REMARK    9  A    between atoms: O_13  and  C_9 
ROOT
HETATM    1  C   UNK N   1      24.865  26.903  -5.501  0.00  0.00     0.007 C 
ENDROOT
BRANCH   1   2
HETATM    2  C   UNK N   1      25.481  25.675  -6.147  0.00  0.00     0.001 C 
BRANCH   2   3
HETATM    3  C   UNK N   1      25.627  24.542  -5.148  0.00  0.00     0.010 C 
BRANCH   3   4
HETATM    4  C   UNK N   1      27.087  24.163  -4.975  0.00  0.00     0.110 C 
BRANCH   4   5
HETATM    5  C   UNK N   1      27.449  24.203  -3.529  0.00  0.00     0.139 C 
HETATM    6  O   UNK N   1      26.606  24.487  -2.695  0.00  0.00    -0.650 OA
BRANCH   5   7
HETATM    7  O   UNK N   1      28.706  23.921  -3.145  0.00  0.00    -0.776 OA
HETATM    8  H   UNK N   1      29.025  24.231  -2.319  0.00  0.00     0.167 HD
ENDBRANCH   5   7
ENDBRANCH   4   5
ENDBRANCH   3   4
ENDBRANCH   2   3
ENDBRANCH   1   2
BRANCH   1   9
HETATM    9  C   UNK N   1      25.922  27.968  -5.271  0.00  0.00     0.080 C 
BRANCH   9  10
HETATM   10  C   UNK N   1      25.918  28.426  -3.845  0.00  0.00     0.148 C 
HETATM   11  O   UNK N   1      25.439  27.694  -2.992  0.00  0.00    -0.296 OA
BRANCH  10  12
HETATM   12  C   UNK N   1      26.528  29.745  -3.433  0.00  0.00     0.140 C 
HETATM   13  C   UNK N   1      27.297  30.349  -4.592  0.00  0.00     0.039 C 
BRANCH  12  14
HETATM   14  N   UNK N   1      27.426  29.594  -2.298  0.00  0.00    -0.420 N 
HETATM   15  H   UNK N   1      27.060  29.555  -1.347  0.00  0.00     0.150 HD
HETATM   16  H   UNK N   1      28.432  29.524  -2.456  0.00  0.00     0.150 HD
ENDBRANCH  12  14
ENDBRANCH  10  12
ENDBRANCH   9  10
ENDBRANCH   1   9
TORSDOF 9
ENDMDL
MODEL 2
REMARK VINA RESULT:      -4.5     15.783     16.504
REMARK  9 active torsions:
REMARK  status: ('A' for Active; 'I' for Inactive)
REMARK    1  A    between atoms: C_3  and  C_2 
REMARK    2  A    between atoms: C_4  and  C_2 
REMARK    3  A    between atoms: C_5  and  C_3 
REMARK    4  A    between atoms: C_6  and  C_4 
REMARK    5  A    between atoms: C_8  and  C_5 
REMARK    6  A    between atoms: C_9  and  C_6 
REMARK    7  A    between atoms: C_8  and  C_7 
REMARK    8  A    between atoms: C_7  and  N_10 
REMARK    9  A    between atoms: O_13  and  C_9 
ROOT
HETATM    1  C   UNK N   1      31.512  16.059   6.294  0.00  0.00     0.007 C 
ENDROOT
BRANCH   1   2
HETATM    2  C   UNK N   1      32.649  16.620   5.459  0.00  0.00     0.001 C 
BRANCH   2   3
HETATM    3  C   UNK N   1      33.401  17.703   6.211  0.00  0.00     0.010 C 
BRANCH   3   4
HETATM    4  C   UNK N   1      34.392  17.090   7.185  0.00  0.00     0.110 C 
BRANCH   4   5
HETATM    5  C   UNK N   1      34.487  17.941   8.406  0.00  0.00     0.139 C 
HETATM    6  O   UNK N   1      35.019  19.037   8.348  0.00  0.00    -0.650 OA
BRANCH   5   7
HETATM    7  O   UNK N   1      33.983  17.500   9.572  0.00  0.00    -0.776 OA
HETATM    8  H   UNK N   1      33.733  16.601   9.665  0.00  0.00     0.167 HD
ENDBRANCH   5   7
ENDBRANCH   4   5
ENDBRANCH   3   4
ENDBRANCH   2   3
ENDBRANCH   1   2
BRANCH   1   9
HETATM    9  C   UNK N   1      30.699  17.185   6.908  0.00  0.00     0.080 C 
BRANCH   9  10
HETATM   10  C   UNK N   1      30.523  16.976   8.381  0.00  0.00     0.148 C 
HETATM   11  O   UNK N   1      31.339  16.293   8.980  0.00  0.00    -0.296 OA
BRANCH  10  12
HETATM   12  C   UNK N   1      29.390  17.621   9.145  0.00  0.00     0.140 C 
HETATM   13  C   UNK N   1      28.404  18.252   8.181  0.00  0.00     0.039 C 
BRANCH  12  14
HETATM   14  N   UNK N   1      29.871  18.641  10.063  0.00  0.00    -0.420 N 
HETATM   15  H   UNK N   1      30.377  18.382  10.910  0.00  0.00     0.150 HD
HETATM   16  H   UNK N   1      29.702  19.627   9.858  0.00  0.00     0.150 HD
ENDBRANCH  12  14
ENDBRANCH  10  12
ENDBRANCH   9  10
ENDBRANCH   1   9
TORSDOF 9
ENDMDL
MODEL 3
REMARK VINA RESULT:      -4.5     18.220     20.144
REMARK  9 active torsions:
REMARK  status: ('A' for Active; 'I' for Inactive)
REMARK    1  A    between atoms: C_3  and  C_2 
REMARK    2  A    between atoms: C_4  and  C_2 
REMARK    3  A    between atoms: C_5  and  C_3 
REMARK    4  A    between atoms: C_6  and  C_4 
REMARK    5  A    between atoms: C_8  and  C_5 
REMARK    6  A    between atoms: C_9  and  C_6 
REMARK    7  A    between atoms: C_8  and  C_7 
REMARK    8  A    between atoms: C_7  and  N_10 
REMARK    9  A    between atoms: O_13  and  C_9 
ROOT
HETATM    1  C   UNK N   1      20.297  14.421   9.501  0.00  0.00     0.007 C 
ENDROOT
BRANCH   1   2
HETATM    2  C   UNK N   1      20.844  15.600   8.714  0.00  0.00     0.001 C 
BRANCH   2   3
HETATM    3  C   UNK N   1      19.728  16.384   8.050  0.00  0.00     0.010 C 
BRANCH   3   4
HETATM    4  C   UNK N   1      19.319  17.568   8.908  0.00  0.00     0.110 C 
BRANCH   4   5
HETATM    5  C   UNK N   1      17.926  17.373   9.402  0.00  0.00     0.139 C 
HETATM    6  O   UNK N   1      17.498  18.061  10.314  0.00  0.00    -0.650 OA
BRANCH   5   7
HETATM    7  O   UNK N   1      17.139  16.439   8.839  0.00  0.00    -0.776 OA
HETATM    8  H   UNK N   1      16.628  15.868   9.380  0.00  0.00     0.167 HD
ENDBRANCH   5   7
ENDBRANCH   4   5
ENDBRANCH   3   4
ENDBRANCH   2   3
ENDBRANCH   1   2
BRANCH   1   9
HETATM    9  C   UNK N   1      21.151  13.188   9.269  0.00  0.00     0.080 C 
BRANCH   9  10
HETATM   10  C   UNK N   1      21.490  12.520  10.567  0.00  0.00     0.148 C 
HETATM   11  O   UNK N   1      20.596  12.315  11.374  0.00  0.00    -0.296 OA
BRANCH  10  12
HETATM   12  C   UNK N   1      22.894  12.061  10.881  0.00  0.00     0.140 C 
HETATM   13  C   UNK N   1      23.061  11.882  12.378  0.00  0.00     0.039 C 
BRANCH  12  14
HETATM   14  N   UNK N   1      23.891  13.007  10.404  0.00  0.00    -0.420 N 
HETATM   15  H   UNK N   1      24.349  12.870   9.504  0.00  0.00     0.150 HD
HETATM   16  H   UNK N   1      24.134  13.817  10.977  0.00  0.00     0.150 HD
ENDBRANCH  12  14
ENDBRANCH  10  12
ENDBRANCH   9  10
ENDBRANCH   1   9
TORSDOF 9
ENDMDL
MODEL 4
REMARK VINA RESULT:      -4.5     17.418     19.020
REMARK  9 active torsions:
REMARK  status: ('A' for Active; 'I' for Inactive)
REMARK    1  A    between atoms: C_3  and  C_2 
REMARK    2  A    between atoms: C_4  and  C_2 
REMARK    3  A    between atoms: C_5  and  C_3 
REMARK    4  A    between atoms: C_6  and  C_4 
REMARK    5  A    between atoms: C_8  and  C_5 
REMARK    6  A    between atoms: C_9  and  C_6 
REMARK    7  A    between atoms: C_8  and  C_7 
REMARK    8  A    between atoms: C_7  and  N_10 
REMARK    9  A    between atoms: O_13  and  C_9 
ROOT
HETATM    1  C   UNK N   1      20.332  14.410   9.386  0.00  0.00     0.007 C 
ENDROOT
BRANCH   1   2
HETATM    2  C   UNK N   1      21.582  13.548   9.420  0.00  0.00     0.001 C 
BRANCH   2   3
HETATM    3  C   UNK N   1      21.569  12.605  10.609  0.00  0.00     0.010 C 
BRANCH   3   4
HETATM    4  C   UNK N   1      22.804  11.722  10.608  0.00  0.00     0.110 C 
BRANCH   4   5
HETATM    5  C   UNK N   1      23.595  11.963  11.848  0.00  0.00     0.139 C 
HETATM    6  O   UNK N   1      23.061  11.879  12.941  0.00  0.00    -0.650 OA
BRANCH   5   7
HETATM    7  O   UNK N   1      24.902  12.271  11.760  0.00  0.00    -0.776 OA
HETATM    8  H   UNK N   1      25.455  11.803  11.165  0.00  0.00     0.167 HD
ENDBRANCH   5   7
ENDBRANCH   4   5
ENDBRANCH   3   4
ENDBRANCH   2   3
ENDBRANCH   1   2
BRANCH   1   9
HETATM    9  C   UNK N   1      20.674  15.823   8.949  0.00  0.00     0.080 C 
BRANCH   9  10
HETATM   10  C   UNK N   1      20.152  16.097   7.572  0.00  0.00     0.148 C 
HETATM   11  O   UNK N   1      18.955  15.972   7.360  0.00  0.00    -0.296 OA
BRANCH  10  12
HETATM   12  C   UNK N   1      21.058  16.563   6.457  0.00  0.00     0.140 C 
HETATM   13  C   UNK N   1      22.419  15.907   6.583  0.00  0.00     0.039 C 
BRANCH  12  14
HETATM   14  N   UNK N   1      21.227  18.008   6.468  0.00  0.00    -0.420 N 
HETATM   15  H   UNK N   1      21.973  18.439   7.013  0.00  0.00     0.150 HD
HETATM   16  H   UNK N   1      20.594  18.596   5.924  0.00  0.00     0.150 HD
ENDBRANCH  12  14
ENDBRANCH  10  12
ENDBRANCH   9  10
ENDBRANCH   1   9
TORSDOF 9
ENDMDL
MODEL 5
REMARK VINA RESULT:      -4.5     14.521     15.909
REMARK  9 active torsions:
REMARK  status: ('A' for Active; 'I' for Inactive)
REMARK    1  A    between atoms: C_3  and  C_2 
REMARK    2  A    between atoms: C_4  and  C_2 
REMARK    3  A    between atoms: C_5  and  C_3 
REMARK    4  A    between atoms: C_6  and  C_4 
REMARK    5  A    between atoms: C_8  and  C_5 
REMARK    6  A    between atoms: C_9  and  C_6 
REMARK    7  A    between atoms: C_8  and  C_7 
REMARK    8  A    between atoms: C_7  and  N_10 
REMARK    9  A    between atoms: O_13  and  C_9 
ROOT
HETATM    1  C   UNK N   1      30.807  17.104   6.764  0.00  0.00     0.007 C 
ENDROOT
BRANCH   1   2
HETATM    2  C   UNK N   1      31.690  16.047   7.403  0.00  0.00     0.001 C 
BRANCH   2   3
HETATM    3  C   UNK N   1      32.547  16.640   8.506  0.00  0.00     0.010 C 
BRANCH   3   4
HETATM    4  C   UNK N   1      32.800  18.116   8.254  0.00  0.00     0.110 C 
BRANCH   4   5
HETATM    5  C   UNK N   1      34.198  18.312   7.774  0.00  0.00     0.139 C 
HETATM    6  O   UNK N   1      34.959  19.042   8.386  0.00  0.00    -0.650 OA
BRANCH   5   7
HETATM    7  O   UNK N   1      34.620  17.678   6.665  0.00  0.00    -0.776 OA
HETATM    8  H   UNK N   1      34.003  17.419   6.009  0.00  0.00     0.167 HD
ENDBRANCH   5   7
ENDBRANCH   4   5
ENDBRANCH   3   4
ENDBRANCH   2   3
ENDBRANCH   1   2
BRANCH   1   9
HETATM    9  C   UNK N   1      29.405  16.562   6.547  0.00  0.00     0.080 C 
BRANCH   9  10
HETATM   10  C   UNK N   1      28.374  17.591   6.899  0.00  0.00     0.148 C 
HETATM   11  O   UNK N   1      27.441  17.775   6.132  0.00  0.00    -0.296 OA
BRANCH  10  12
HETATM   12  C   UNK N   1      28.438  18.371   8.191  0.00  0.00     0.140 C 
HETATM   13  C   UNK N   1      28.269  17.436   9.373  0.00  0.00     0.039 C 
BRANCH  12  14
HETATM   14  N   UNK N   1      27.411  19.399   8.252  0.00  0.00    -0.420 N 
HETATM   15  H   UNK N   1      26.562  19.319   7.692  0.00  0.00     0.150 HD
HETATM   16  H   UNK N   1      27.540  20.208   8.861  0.00  0.00     0.150 HD
ENDBRANCH  12  14
ENDBRANCH  10  12
ENDBRANCH   9  10
ENDBRANCH   1   9
TORSDOF 9
ENDMDL
MODEL 6
REMARK VINA RESULT:      -4.5     15.882     17.309
REMARK  9 active torsions:
REMARK  status: ('A' for Active; 'I' for Inactive)
REMARK    1  A    between atoms: C_3  and  C_2 
REMARK    2  A    between atoms: C_4  and  C_2 
REMARK    3  A    between atoms: C_5  and  C_3 
REMARK    4  A    between atoms: C_6  and  C_4 
REMARK    5  A    between atoms: C_8  and  C_5 
REMARK    6  A    between atoms: C_9  and  C_6 
REMARK    7  A    between atoms: C_8  and  C_7 
REMARK    8  A    between atoms: C_7  and  N_10 
REMARK    9  A    between atoms: O_13  and  C_9 
ROOT
HETATM    1  C   UNK N   1      32.808  17.301   6.847  0.00  0.00     0.007 C 
ENDROOT
BRANCH   1   2
HETATM    2  C   UNK N   1      31.331  17.023   6.627  0.00  0.00     0.001 C 
BRANCH   2   3
HETATM    3  C   UNK N   1      30.563  17.064   7.934  0.00  0.00     0.010 C 
BRANCH   3   4
HETATM    4  C   UNK N   1      29.283  17.866   7.779  0.00  0.00     0.110 C 
BRANCH   4   5
HETATM    5  C   UNK N   1      28.793  18.294   9.121  0.00  0.00     0.139 C 
HETATM    6  O   UNK N   1      29.578  18.708   9.957  0.00  0.00    -0.650 OA
BRANCH   5   7
HETATM    7  O   UNK N   1      27.480  18.226   9.408  0.00  0.00    -0.776 OA
HETATM    8  H   UNK N   1      26.857  18.657   8.857  0.00  0.00     0.167 HD
ENDBRANCH   5   7
ENDBRANCH   4   5
ENDBRANCH   3   4
ENDBRANCH   2   3
ENDBRANCH   1   2
BRANCH   1   9
HETATM    9  C   UNK N   1      33.013  18.088   8.129  0.00  0.00     0.080 C 
BRANCH   9  10
HETATM   10  C   UNK N   1      34.316  17.727   8.775  0.00  0.00     0.148 C 
HETATM   11  O   UNK N   1      35.220  18.549   8.775  0.00  0.00    -0.296 OA
BRANCH  10  12
HETATM   12  C   UNK N   1      34.523  16.396   9.457  0.00  0.00     0.140 C 
HETATM   13  C   UNK N   1      35.342  16.581  10.721  0.00  0.00     0.039 C 
BRANCH  12  14
HETATM   14  N   UNK N   1      35.202  15.445   8.591  0.00  0.00    -0.420 N 
HETATM   15  H   UNK N   1      34.781  14.540   8.383  0.00  0.00     0.150 HD
HETATM   16  H   UNK N   1      36.107  15.686   8.186  0.00  0.00     0.150 HD
ENDBRANCH  12  14
ENDBRANCH  10  12
ENDBRANCH   9  10
ENDBRANCH   1   9
TORSDOF 9
ENDMDL
MODEL 7
REMARK VINA RESULT:      -4.4     11.773     13.576
REMARK  9 active torsions:
REMARK  status: ('A' for Active; 'I' for Inactive)
REMARK    1  A    between atoms: C_3  and  C_2 
REMARK    2  A    between atoms: C_4  and  C_2 
REMARK    3  A    between atoms: C_5  and  C_3 
REMARK    4  A    between atoms: C_6  and  C_4 
REMARK    5  A    between atoms: C_8  and  C_5 
REMARK    6  A    between atoms: C_9  and  C_6 
REMARK    7  A    between atoms: C_8  and  C_7 
REMARK    8  A    between atoms: C_7  and  N_10 
REMARK    9  A    between atoms: O_13  and  C_9 
ROOT
HETATM    1  C   UNK N   1      27.870  18.278   4.525  0.00  0.00     0.007 C 
ENDROOT
BRANCH   1   2
HETATM    2  C   UNK N   1      28.903  18.075   5.619  0.00  0.00     0.001 C 
BRANCH   2   3
HETATM    3  C   UNK N   1      28.287  17.423   6.843  0.00  0.00     0.010 C 
BRANCH   3   4
HETATM    4  C   UNK N   1      29.283  17.385   7.988  0.00  0.00     0.110 C 
BRANCH   4   5
HETATM    5  C   UNK N   1      28.759  18.180   9.136  0.00  0.00     0.139 C 
HETATM    6  O   UNK N   1      29.531  18.719   9.911  0.00  0.00    -0.650 OA
BRANCH   5   7
HETATM    7  O   UNK N   1      27.432  18.304   9.315  0.00  0.00    -0.776 OA
HETATM    8  H   UNK N   1      26.897  18.654   8.629  0.00  0.00     0.167 HD
ENDBRANCH   5   7
ENDBRANCH   4   5
ENDBRANCH   3   4
ENDBRANCH   2   3
ENDBRANCH   1   2
BRANCH   1   9
HETATM    9  C   UNK N   1      27.498  19.746   4.412  0.00  0.00     0.080 C 
BRANCH   9  10
HETATM   10  C   UNK N   1      26.353  20.079   5.319  0.00  0.00     0.148 C 
HETATM   11  O   UNK N   1      25.314  19.446   5.211  0.00  0.00    -0.296 OA
BRANCH  10  12
HETATM   12  C   UNK N   1      26.467  21.142   6.385  0.00  0.00     0.140 C 
HETATM   13  C   UNK N   1      27.796  21.863   6.263  0.00  0.00     0.039 C 
BRANCH  12  14
HETATM   14  N   UNK N   1      26.357  20.579   7.723  0.00  0.00    -0.420 N 
HETATM   15  H   UNK N   1      27.130  20.656   8.383  0.00  0.00     0.150 HD
HETATM   16  H   UNK N   1      25.498  20.104   8.003  0.00  0.00     0.150 HD
ENDBRANCH  12  14
ENDBRANCH  10  12
ENDBRANCH   9  10
ENDBRANCH   1   9
TORSDOF 9
ENDMDL
MODEL 8
REMARK VINA RESULT:      -4.4      2.402      3.454
REMARK  9 active torsions:
REMARK  status: ('A' for Active; 'I' for Inactive)
REMARK    1  A    between atoms: C_3  and  C_2 
REMARK    2  A    between atoms: C_4  and  C_2 
REMARK    3  A    between atoms: C_5  and  C_3 
REMARK    4  A    between atoms: C_6  and  C_4 
REMARK    5  A    between atoms: C_8  and  C_5 
REMARK    6  A    between atoms: C_9  and  C_6 
REMARK    7  A    between atoms: C_8  and  C_7 
REMARK    8  A    between atoms: C_7  and  N_10 
REMARK    9  A    between atoms: O_13  and  C_9 
ROOT
HETATM    1  C   UNK N   1      27.023  24.213  -4.183  0.00  0.00     0.007 C 
ENDROOT
BRANCH   1   2
HETATM    2  C   UNK N   1      28.416  24.382  -4.764  0.00  0.00     0.001 C 
BRANCH   2   3
HETATM    3  C   UNK N   1      29.477  24.295  -3.683  0.00  0.00     0.010 C 
BRANCH   3   4
HETATM    4  C   UNK N   1      30.238  22.984  -3.783  0.00  0.00     0.110 C 
BRANCH   4   5
HETATM    5  C   UNK N   1      30.826  22.642  -2.456  0.00  0.00     0.139 C 
HETATM    6  O   UNK N   1      31.840  21.967  -2.391  0.00  0.00    -0.650 OA
BRANCH   5   7
HETATM    7  O   UNK N   1      30.239  23.082  -1.329  0.00  0.00    -0.776 OA
HETATM    8  H   UNK N   1      30.761  23.297  -0.581  0.00  0.00     0.167 HD
ENDBRANCH   5   7
ENDBRANCH   4   5
ENDBRANCH   3   4
ENDBRANCH   2   3
ENDBRANCH   1   2
BRANCH   1   9
HETATM    9  C   UNK N   1      26.490  25.545  -3.687  0.00  0.00     0.080 C 
BRANCH   9  10
HETATM   10  C   UNK N   1      25.701  26.238  -4.755  0.00  0.00     0.148 C 
HETATM   11  O   UNK N   1      25.086  25.560  -5.565  0.00  0.00    -0.296 OA
BRANCH  10  12
HETATM   12  C   UNK N   1      25.615  27.743  -4.830  0.00  0.00     0.140 C 
HETATM   13  C   UNK N   1      26.805  28.297  -5.590  0.00  0.00     0.039 C 
BRANCH  12  14
HETATM   14  N   UNK N   1      25.579  28.348  -3.506  0.00  0.00    -0.420 N 
HETATM   15  H   UNK N   1      26.407  28.798  -3.119  0.00  0.00     0.150 HD
HETATM   16  H   UNK N   1      24.716  28.321  -2.962  0.00  0.00     0.150 HD
ENDBRANCH  12  14
ENDBRANCH  10  12
ENDBRANCH   9  10
ENDBRANCH   1   9
TORSDOF 9
ENDMDL
MODEL 9
REMARK VINA RESULT:      -4.4     10.022     11.182
REMARK  9 active torsions:
REMARK  status: ('A' for Active; 'I' for Inactive)
REMARK    1  A    between atoms: C_3  and  C_2 
REMARK    2  A    between atoms: C_4  and  C_2 
REMARK    3  A    between atoms: C_5  and  C_3 
REMARK    4  A    between atoms: C_6  and  C_4 
REMARK    5  A    between atoms: C_8  and  C_5 
REMARK    6  A    between atoms: C_9  and  C_6 
REMARK    7  A    between atoms: C_8  and  C_7 
REMARK    8  A    between atoms: C_7  and  N_10 
REMARK    9  A    between atoms: O_13  and  C_9 
ROOT
HETATM    1  C   UNK N   1      25.184  20.330   2.548  0.00  0.00     0.007 C 
ENDROOT
BRANCH   1   2
HETATM    2  C   UNK N   1      23.883  20.978   2.986  0.00  0.00     0.001 C 
BRANCH   2   3
HETATM    3  C   UNK N   1      22.743  19.977   2.992  0.00  0.00     0.010 C 
BRANCH   3   4
HETATM    4  C   UNK N   1      21.435  20.651   2.619  0.00  0.00     0.110 C 
BRANCH   4   5
HETATM    5  C   UNK N   1      21.012  20.212   1.258  0.00  0.00     0.139 C 
HETATM    6  O   UNK N   1      21.367  20.840   0.275  0.00  0.00    -0.650 OA
BRANCH   5   7
HETATM    7  O   UNK N   1      20.242  19.118   1.116  0.00  0.00    -0.776 OA
HETATM    8  H   UNK N   1      20.110  18.745   0.266  0.00  0.00     0.167 HD
ENDBRANCH   5   7
ENDBRANCH   4   5
ENDBRANCH   3   4
ENDBRANCH   2   3
ENDBRANCH   1   2
BRANCH   1   9
HETATM    9  C   UNK N   1      25.615  19.276   3.553  0.00  0.00     0.080 C 
BRANCH   9  10
HETATM   10  C   UNK N   1      26.724  19.786   4.421  0.00  0.00     0.148 C 
HETATM   11  O   UNK N   1      27.839  19.914   3.936  0.00  0.00    -0.296 OA
BRANCH  10  12
HETATM   12  C   UNK N   1      26.490  20.184   5.859  0.00  0.00     0.140 C 
HETATM   13  C   UNK N   1      27.002  21.590   6.101  0.00  0.00     0.039 C 
BRANCH  12  14
HETATM   14  N   UNK N   1      27.150  19.275   6.784  0.00  0.00    -0.420 N 
HETATM   15  H   UNK N   1      26.608  18.734   7.456  0.00  0.00     0.150 HD
HETATM   16  H   UNK N   1      28.166  19.179   6.760  0.00  0.00     0.150 HD
ENDBRANCH  12  14
ENDBRANCH  10  12
ENDBRANCH   9  10
ENDBRANCH   1   9
TORSDOF 9
ENDMDL
