MODEL 1
REMARK VINA RESULT:      -5.1      0.000      0.000
REMARK  16 active torsions:
REMARK  status: ('A' for Active; 'I' for Inactive)
REMARK    1  A    between atoms: C_4  and  C_3 
REMARK    2  A    between atoms: C_5  and  C_4 
REMARK    3  A    between atoms: C_6  and  C_5 
REMARK    4  A    between atoms: C_7  and  C_6 
REMARK    5  A    between atoms: C_9  and  C_8 
REMARK    6  A    between atoms: C_10  and  C_9 
REMARK    7  A    between atoms: C_12  and  C_11 
REMARK    8  A    between atoms: C_13  and  C_12 
REMARK    9  A    between atoms: C_15  and  C_14 
REMARK   10  A    between atoms: C_16  and  C_15 
REMARK   11  A    between atoms: C_18  and  C_17 
REMARK   12  A    between atoms: C_19  and  C_18 
REMARK   13  A    between atoms: C_20  and  C_19 
REMARK   14  A    between atoms: C_21  and  C_20 
REMARK   15  A    between atoms: P_25  and  C_21 
REMARK   16  A    between atoms: P_25  and  O_24 
ROOT
HETATM    1  C   UNK N   1      28.055  29.246  -6.586  0.00  0.00    -0.027 C 
HETATM    2  C   UNK N   1      28.101  28.234  -7.465  0.00  0.00    -0.027 C 
ENDROOT
BRANCH   2   3
HETATM    3  C   UNK N   1      28.264  26.804  -7.047  0.00  0.00     0.053 C 
BRANCH   3   4
HETATM    4  C   UNK N   1      29.711  26.418  -6.901  0.00  0.00    -0.027 C 
HETATM    5  C   UNK N   1      30.186  25.886  -5.767  0.00  0.00    -0.030 C 
BRANCH   5   6
HETATM    6  C   UNK N   1      29.325  25.652  -4.560  0.00  0.00     0.027 C 
BRANCH   6   7
HETATM    7  C   UNK N   1      30.028  24.786  -3.521  0.00  0.00     0.004 C 
BRANCH   7   8
HETATM    8  C   UNK N   1      29.423  23.393  -3.450  0.00  0.00     0.012 C 
BRANCH   8   9
HETATM    9  C   UNK N   1      30.146  22.467  -4.413  0.00  0.00     0.137 C 
BRANCH   9  10
HETATM   10  P   UNK N   1      31.768  21.903  -3.705  0.00  0.00     0.365 P 
HETATM   11  F   UNK N   1      30.462  20.825  -3.412  0.00  0.00    -0.156 F 
HETATM   12  O   UNK N   1      31.768  21.963  -2.154  0.00  0.00    -0.254 OA
BRANCH  10  13
HETATM   13  O   UNK N   1      32.412  20.340  -4.100  0.00  0.00    -0.316 OA
HETATM   14  C   UNK N   1      31.683  19.931  -5.216  0.00  0.00     0.213 C 
ENDBRANCH  10  13
ENDBRANCH   9  10
ENDBRANCH   8   9
ENDBRANCH   7   8
ENDBRANCH   6   7
ENDBRANCH   5   6
ENDBRANCH   3   4
ENDBRANCH   2   3
BRANCH   1  15
HETATM   15  C   UNK N   1      28.149  29.027  -5.105  0.00  0.00     0.053 C 
BRANCH  15  16
HETATM   16  C   UNK N   1      26.997  29.674  -4.399  0.00  0.00    -0.027 C 
HETATM   17  C   UNK N   1      25.967  28.967  -3.915  0.00  0.00    -0.027 C 
BRANCH  17  18
HETATM   18  C   UNK N   1      25.906  27.469  -4.042  0.00  0.00     0.053 C 
BRANCH  18  19
HETATM   19  C   UNK N   1      25.161  27.030  -5.274  0.00  0.00    -0.027 C 
HETATM   20  C   UNK N   1      25.141  25.748  -5.664  0.00  0.00    -0.030 C 
BRANCH  20  21
HETATM   21  C   UNK N   1      25.845  24.676  -4.887  0.00  0.00     0.027 C 
BRANCH  21  22
HETATM   22  C   UNK N   1      26.412  23.621  -5.818  0.00  0.00     0.004 C 
BRANCH  22  23
HETATM   23  C   UNK N   1      25.929  23.885  -7.228  0.00  0.00    -0.000 C 
BRANCH  23  24
HETATM   24  C   UNK N   1      25.753  22.569  -7.955  0.00  0.00    -0.005 C 
HETATM   25  C   UNK N   1      24.852  21.661  -7.146  0.00  0.00     0.005 C 
ENDBRANCH  23  24
ENDBRANCH  22  23
ENDBRANCH  21  22
ENDBRANCH  20  21
ENDBRANCH  18  19
ENDBRANCH  17  18
ENDBRANCH  15  16
ENDBRANCH   1  15
TORSDOF 16
ENDMDL
MODEL 2
REMARK VINA RESULT:      -5.0      3.896      6.852
REMARK  16 active torsions:
REMARK  status: ('A' for Active; 'I' for Inactive)
REMARK    1  A    between atoms: C_4  and  C_3 
REMARK    2  A    between atoms: C_5  and  C_4 
REMARK    3  A    between atoms: C_6  and  C_5 
REMARK    4  A    between atoms: C_7  and  C_6 
REMARK    5  A    between atoms: C_9  and  C_8 
REMARK    6  A    between atoms: C_10  and  C_9 
REMARK    7  A    between atoms: C_12  and  C_11 
REMARK    8  A    between atoms: C_13  and  C_12 
REMARK    9  A    between atoms: C_15  and  C_14 
REMARK   10  A    between atoms: C_16  and  C_15 
REMARK   11  A    between atoms: C_18  and  C_17 
REMARK   12  A    between atoms: C_19  and  C_18 
REMARK   13  A    between atoms: C_20  and  C_19 
REMARK   14  A    between atoms: C_21  and  C_20 
REMARK   15  A    between atoms: P_25  and  C_21 
REMARK   16  A    between atoms: P_25  and  O_24 
ROOT
HETATM    1  C   UNK N   1      28.663  24.099  -3.429  0.00  0.00    -0.027 C 
HETATM    2  C   UNK N   1      27.331  23.948  -3.475  0.00  0.00    -0.027 C 
ENDROOT
BRANCH   2   3
HETATM    3  C   UNK N   1      26.426  24.930  -4.154  0.00  0.00     0.053 C 
BRANCH   3   4
HETATM    4  C   UNK N   1      26.000  24.458  -5.517  0.00  0.00    -0.027 C 
HETATM    5  C   UNK N   1      25.701  25.320  -6.499  0.00  0.00    -0.030 C 
BRANCH   5   6
HETATM    6  C   UNK N   1      25.751  26.809  -6.312  0.00  0.00     0.027 C 
BRANCH   6   7
HETATM    7  C   UNK N   1      27.057  27.402  -6.827  0.00  0.00     0.004 C 
BRANCH   7   8
HETATM    8  C   UNK N   1      27.384  28.719  -6.141  0.00  0.00     0.012 C 
BRANCH   8   9
HETATM    9  C   UNK N   1      27.917  28.454  -4.743  0.00  0.00     0.137 C 
BRANCH   9  10
HETATM   10  P   UNK N   1      26.802  29.192  -3.453  0.00  0.00     0.365 P 
HETATM   11  F   UNK N   1      27.625  27.773  -2.940  0.00  0.00    -0.156 F 
HETATM   12  O   UNK N   1      25.564  28.296  -3.186  0.00  0.00    -0.254 OA
BRANCH  10  13
HETATM   13  O   UNK N   1      27.416  29.601  -1.882  0.00  0.00    -0.316 OA
HETATM   14  C   UNK N   1      28.680  30.136  -2.126  0.00  0.00     0.213 C 
ENDBRANCH  10  13
ENDBRANCH   9  10
ENDBRANCH   8   9
ENDBRANCH   7   8
ENDBRANCH   6   7
ENDBRANCH   5   6
ENDBRANCH   3   4
ENDBRANCH   2   3
BRANCH   1  15
HETATM   15  C   UNK N   1      29.360  25.262  -4.071  0.00  0.00     0.053 C 
BRANCH  15  16
HETATM   16  C   UNK N   1      29.794  24.918  -5.464  0.00  0.00    -0.027 C 
HETATM   17  C   UNK N   1      31.056  24.574  -5.754  0.00  0.00    -0.027 C 
BRANCH  17  18
HETATM   18  C   UNK N   1      32.120  24.498  -4.694  0.00  0.00     0.053 C 
BRANCH  18  19
HETATM   19  C   UNK N   1      33.072  23.355  -4.920  0.00  0.00    -0.027 C 
HETATM   20  C   UNK N   1      32.913  22.175  -4.306  0.00  0.00    -0.030 C 
BRANCH  20  21
HETATM   21  C   UNK N   1      31.770  21.921  -3.369  0.00  0.00     0.027 C 
BRANCH  21  22
HETATM   22  C   UNK N   1      30.673  21.132  -4.059  0.00  0.00     0.004 C 
BRANCH  22  23
HETATM   23  C   UNK N   1      31.295  20.166  -5.045  0.00  0.00    -0.000 C 
BRANCH  23  24
HETATM   24  C   UNK N   1      30.574  20.265  -6.372  0.00  0.00    -0.005 C 
HETATM   25  C   UNK N   1      29.515  21.345  -6.292  0.00  0.00     0.005 C 
ENDBRANCH  23  24
ENDBRANCH  22  23
ENDBRANCH  21  22
ENDBRANCH  20  21
ENDBRANCH  18  19
ENDBRANCH  17  18
ENDBRANCH  15  16
ENDBRANCH   1  15
TORSDOF 16
ENDMDL
MODEL 3
REMARK VINA RESULT:      -5.0     23.129     26.511
REMARK  16 active torsions:
REMARK  status: ('A' for Active; 'I' for Inactive)
REMARK    1  A    between atoms: C_4  and  C_3 
REMARK    2  A    between atoms: C_5  and  C_4 
REMARK    3  A    between atoms: C_6  and  C_5 
REMARK    4  A    between atoms: C_7  and  C_6 
REMARK    5  A    between atoms: C_9  and  C_8 
REMARK    6  A    between atoms: C_10  and  C_9 
REMARK    7  A    between atoms: C_12  and  C_11 
REMARK    8  A    between atoms: C_13  and  C_12 
REMARK    9  A    between atoms: C_15  and  C_14 
REMARK   10  A    between atoms: C_16  and  C_15 
REMARK   11  A    between atoms: C_18  and  C_17 
REMARK   12  A    between atoms: C_19  and  C_18 
REMARK   13  A    between atoms: C_20  and  C_19 
REMARK   14  A    between atoms: C_21  and  C_20 
REMARK   15  A    between atoms: P_25  and  C_21 
REMARK   16  A    between atoms: P_25  and  O_24 
ROOT
HETATM    1  C   UNK N   1      35.874  12.688  16.045  0.00  0.00    -0.027 C 
HETATM    2  C   UNK N   1      35.932  11.532  15.366  0.00  0.00    -0.027 C 
ENDROOT
BRANCH   2   3
HETATM    3  C   UNK N   1      34.888  10.465  15.491  0.00  0.00     0.053 C 
BRANCH   3   4
HETATM    4  C   UNK N   1      33.717  10.710  14.579  0.00  0.00    -0.027 C 
HETATM    5  C   UNK N   1      33.748  10.364  13.285  0.00  0.00    -0.030 C 
BRANCH   5   6
HETATM    6  C   UNK N   1      34.948   9.728  12.646  0.00  0.00     0.027 C 
BRANCH   6   7
HETATM    7  C   UNK N   1      35.586  10.640  11.604  0.00  0.00     0.004 C 
BRANCH   7   8
HETATM    8  C   UNK N   1      37.001  11.037  11.997  0.00  0.00     0.012 C 
BRANCH   8   9
HETATM    9  C   UNK N   1      37.128  12.551  12.008  0.00  0.00     0.137 C 
BRANCH   9  10
HETATM   10  P   UNK N   1      35.511  13.358  11.576  0.00  0.00     0.365 P 
HETATM   11  F   UNK N   1      36.669  14.428  12.263  0.00  0.00    -0.156 F 
HETATM   12  O   UNK N   1      34.718  13.767  12.846  0.00  0.00    -0.254 OA
BRANCH  10  13
HETATM   13  O   UNK N   1      35.466  14.752  10.543  0.00  0.00    -0.316 OA
HETATM   14  C   UNK N   1      35.869  15.809  11.358  0.00  0.00     0.213 C 
ENDBRANCH  10  13
ENDBRANCH   9  10
ENDBRANCH   8   9
ENDBRANCH   7   8
ENDBRANCH   6   7
ENDBRANCH   5   6
ENDBRANCH   3   4
ENDBRANCH   2   3
BRANCH   1  15
HETATM   15  C   UNK N   1      34.746  13.013  16.978  0.00  0.00     0.053 C 
BRANCH  15  16
HETATM   16  C   UNK N   1      35.251  13.733  18.191  0.00  0.00    -0.027 C 
HETATM   17  C   UNK N   1      35.278  13.160  19.402  0.00  0.00    -0.027 C 
BRANCH  17  18
HETATM   18  C   UNK N   1      34.812  11.746  19.619  0.00  0.00     0.053 C 
BRANCH  18  19
HETATM   19  C   UNK N   1      35.880  10.737  19.296  0.00  0.00    -0.027 C 
HETATM   20  C   UNK N   1      35.577   9.487  18.921  0.00  0.00    -0.030 C 
BRANCH  20  21
HETATM   21  C   UNK N   1      34.155   9.026  18.787  0.00  0.00     0.027 C 
BRANCH  21  22
HETATM   22  C   UNK N   1      33.732   8.223  20.001  0.00  0.00     0.004 C 
BRANCH  22  23
HETATM   23  C   UNK N   1      32.590   8.931  20.698  0.00  0.00    -0.000 C 
BRANCH  23  24
HETATM   24  C   UNK N   1      31.551   7.916  21.122  0.00  0.00    -0.005 C 
HETATM   25  C   UNK N   1      30.538   7.735  20.011  0.00  0.00     0.005 C 
ENDBRANCH  23  24
ENDBRANCH  22  23
ENDBRANCH  21  22
ENDBRANCH  20  21
ENDBRANCH  18  19
ENDBRANCH  17  18
ENDBRANCH  15  16
ENDBRANCH   1  15
TORSDOF 16
ENDMDL
MODEL 4
REMARK VINA RESULT:      -4.9      3.155      5.416
REMARK  16 active torsions:
REMARK  status: ('A' for Active; 'I' for Inactive)
REMARK    1  A    between atoms: C_4  and  C_3 
REMARK    2  A    between atoms: C_5  and  C_4 
REMARK    3  A    between atoms: C_6  and  C_5 
REMARK    4  A    between atoms: C_7  and  C_6 
REMARK    5  A    between atoms: C_9  and  C_8 
REMARK    6  A    between atoms: C_10  and  C_9 
REMARK    7  A    between atoms: C_12  and  C_11 
REMARK    8  A    between atoms: C_13  and  C_12 
REMARK    9  A    between atoms: C_15  and  C_14 
REMARK   10  A    between atoms: C_16  and  C_15 
REMARK   11  A    between atoms: C_18  and  C_17 
REMARK   12  A    between atoms: C_19  and  C_18 
REMARK   13  A    between atoms: C_20  and  C_19 
REMARK   14  A    between atoms: C_21  and  C_20 
REMARK   15  A    between atoms: P_25  and  C_21 
REMARK   16  A    between atoms: P_25  and  O_24 
ROOT
HETATM    1  C   UNK N   1      29.776  28.412  -6.369  0.00  0.00    -0.027 C 
HETATM    2  C   UNK N   1      28.789  29.314  -6.486  0.00  0.00    -0.027 C 
ENDROOT
BRANCH   2   3
HETATM    3  C   UNK N   1      27.407  29.078  -5.957  0.00  0.00     0.053 C 
BRANCH   3   4
HETATM    4  C   UNK N   1      27.171  29.793  -4.654  0.00  0.00    -0.027 C 
HETATM    5  C   UNK N   1      26.356  29.294  -3.715  0.00  0.00    -0.030 C 
BRANCH   5   6
HETATM    6  C   UNK N   1      25.609  28.004  -3.895  0.00  0.00     0.027 C 
BRANCH   6   7
HETATM    7  C   UNK N   1      26.377  26.818  -3.321  0.00  0.00     0.004 C 
BRANCH   7   8
HETATM    8  C   UNK N   1      26.333  25.617  -4.253  0.00  0.00     0.012 C 
BRANCH   8   9
HETATM    9  C   UNK N   1      25.419  25.911  -5.430  0.00  0.00     0.137 C 
BRANCH   9  10
HETATM   10  P   UNK N   1      26.002  25.035  -6.961  0.00  0.00     0.365 P 
HETATM   11  F   UNK N   1      25.790  24.006  -5.600  0.00  0.00    -0.156 F 
HETATM   12  O   UNK N   1      27.467  24.544  -6.817  0.00  0.00    -0.254 OA
BRANCH  10  13
HETATM   13  O   UNK N   1      25.126  23.674  -7.590  0.00  0.00    -0.316 OA
HETATM   14  C   UNK N   1      25.895  22.566  -7.238  0.00  0.00     0.213 C 
ENDBRANCH  10  13
ENDBRANCH   9  10
ENDBRANCH   8   9
ENDBRANCH   7   8
ENDBRANCH   6   7
ENDBRANCH   5   6
ENDBRANCH   3   4
ENDBRANCH   2   3
BRANCH   1  15
HETATM   15  C   UNK N   1      29.579  27.094  -5.682  0.00  0.00     0.053 C 
BRANCH  15  16
HETATM   16  C   UNK N   1      30.128  27.134  -4.289  0.00  0.00    -0.027 C 
HETATM   17  C   UNK N   1      30.356  26.021  -3.578  0.00  0.00    -0.027 C 
BRANCH  17  18
HETATM   18  C   UNK N   1      30.083  24.653  -4.141  0.00  0.00     0.053 C 
BRANCH  18  19
HETATM   19  C   UNK N   1      29.322  23.781  -3.179  0.00  0.00    -0.027 C 
HETATM   20  C   UNK N   1      29.897  22.732  -2.575  0.00  0.00    -0.030 C 
BRANCH  20  21
HETATM   21  C   UNK N   1      31.335  22.376  -2.811  0.00  0.00     0.027 C 
BRANCH  21  22
HETATM   22  C   UNK N   1      31.449  21.078  -3.585  0.00  0.00     0.004 C 
BRANCH  22  23
HETATM   23  C   UNK N   1      31.551  21.383  -5.065  0.00  0.00    -0.000 C 
BRANCH  23  24
HETATM   24  C   UNK N   1      30.452  20.654  -5.807  0.00  0.00    -0.005 C 
HETATM   25  C   UNK N   1      29.442  21.655  -6.327  0.00  0.00     0.005 C 
ENDBRANCH  23  24
ENDBRANCH  22  23
ENDBRANCH  21  22
ENDBRANCH  20  21
ENDBRANCH  18  19
ENDBRANCH  17  18
ENDBRANCH  15  16
ENDBRANCH   1  15
TORSDOF 16
ENDMDL
MODEL 5
REMARK VINA RESULT:      -4.9      1.844      3.294
REMARK  16 active torsions:
REMARK  status: ('A' for Active; 'I' for Inactive)
REMARK    1  A    between atoms: C_4  and  C_3 
REMARK    2  A    between atoms: C_5  and  C_4 
REMARK    3  A    between atoms: C_6  and  C_5 
REMARK    4  A    between atoms: C_7  and  C_6 
REMARK    5  A    between atoms: C_9  and  C_8 
REMARK    6  A    between atoms: C_10  and  C_9 
REMARK    7  A    between atoms: C_12  and  C_11 
REMARK    8  A    between atoms: C_13  and  C_12 
REMARK    9  A    between atoms: C_15  and  C_14 
REMARK   10  A    between atoms: C_16  and  C_15 
REMARK   11  A    between atoms: C_18  and  C_17 
REMARK   12  A    between atoms: C_19  and  C_18 
REMARK   13  A    between atoms: C_20  and  C_19 
REMARK   14  A    between atoms: C_21  and  C_20 
REMARK   15  A    between atoms: P_25  and  C_21 
REMARK   16  A    between atoms: P_25  and  O_24 
ROOT
HETATM    1  C   UNK N   1      30.322  27.707  -3.405  0.00  0.00    -0.027 C 
HETATM    2  C   UNK N   1      30.275  26.466  -3.912  0.00  0.00    -0.027 C 
ENDROOT
BRANCH   2   3
HETATM    3  C   UNK N   1      29.253  26.040  -4.921  0.00  0.00     0.053 C 
BRANCH   3   4
HETATM    4  C   UNK N   1      28.185  25.172  -4.313  0.00  0.00    -0.027 C 
HETATM    5  C   UNK N   1      27.692  24.107  -4.958  0.00  0.00    -0.030 C 
BRANCH   5   6
HETATM    6  C   UNK N   1      28.149  23.710  -6.332  0.00  0.00     0.027 C 
BRANCH   6   7
HETATM    7  C   UNK N   1      28.871  22.367  -6.324  0.00  0.00     0.004 C 
BRANCH   7   8
HETATM    8  C   UNK N   1      30.197  22.448  -5.583  0.00  0.00     0.012 C 
BRANCH   8   9
HETATM    9  C   UNK N   1      30.325  21.276  -4.624  0.00  0.00     0.137 C 
BRANCH   9  10
HETATM   10  P   UNK N   1      31.328  21.743  -3.132  0.00  0.00     0.365 P 
HETATM   11  F   UNK N   1      31.178  22.998  -4.297  0.00  0.00    -0.156 F 
HETATM   12  O   UNK N   1      32.831  21.910  -3.482  0.00  0.00    -0.254 OA
BRANCH  10  13
HETATM   13  O   UNK N   1      30.921  23.146  -2.195  0.00  0.00    -0.316 OA
HETATM   14  C   UNK N   1      29.576  22.974  -1.870  0.00  0.00     0.213 C 
ENDBRANCH  10  13
ENDBRANCH   9  10
ENDBRANCH   8   9
ENDBRANCH   7   8
ENDBRANCH   6   7
ENDBRANCH   5   6
ENDBRANCH   3   4
ENDBRANCH   2   3
BRANCH   1  15
HETATM   15  C   UNK N   1      29.359  28.779  -3.820  0.00  0.00     0.053 C 
BRANCH  15  16
HETATM   16  C   UNK N   1      28.363  29.048  -2.733  0.00  0.00    -0.027 C 
HETATM   17  C   UNK N   1      27.048  29.141  -2.976  0.00  0.00    -0.027 C 
BRANCH  17  18
HETATM   18  C   UNK N   1      26.485  28.970  -4.361  0.00  0.00     0.053 C 
BRANCH  18  19
HETATM   19  C   UNK N   1      25.433  27.896  -4.420  0.00  0.00    -0.027 C 
HETATM   20  C   UNK N   1      25.311  27.088  -5.481  0.00  0.00    -0.030 C 
BRANCH  20  21
HETATM   21  C   UNK N   1      26.227  27.197  -6.665  0.00  0.00     0.027 C 
BRANCH  21  22
HETATM   22  C   UNK N   1      25.782  26.267  -7.777  0.00  0.00     0.004 C 
BRANCH  22  23
HETATM   23  C   UNK N   1      26.884  26.158  -8.809  0.00  0.00    -0.000 C 
BRANCH  23  24
HETATM   24  C   UNK N   1      28.101  26.921  -8.331  0.00  0.00    -0.005 C 
HETATM   25  C   UNK N   1      28.637  27.777  -9.459  0.00  0.00     0.005 C 
ENDBRANCH  23  24
ENDBRANCH  22  23
ENDBRANCH  21  22
ENDBRANCH  20  21
ENDBRANCH  18  19
ENDBRANCH  17  18
ENDBRANCH  15  16
ENDBRANCH   1  15
TORSDOF 16
ENDMDL
MODEL 6
REMARK VINA RESULT:      -4.9      3.297      5.999
REMARK  16 active torsions:
REMARK  status: ('A' for Active; 'I' for Inactive)
REMARK    1  A    between atoms: C_4  and  C_3 
REMARK    2  A    between atoms: C_5  and  C_4 
REMARK    3  A    between atoms: C_6  and  C_5 
REMARK    4  A    between atoms: C_7  and  C_6 
REMARK    5  A    between atoms: C_9  and  C_8 
REMARK    6  A    between atoms: C_10  and  C_9 
REMARK    7  A    between atoms: C_12  and  C_11 
REMARK    8  A    between atoms: C_13  and  C_12 
REMARK    9  A    between atoms: C_15  and  C_14 
REMARK   10  A    between atoms: C_16  and  C_15 
REMARK   11  A    between atoms: C_18  and  C_17 
REMARK   12  A    between atoms: C_19  and  C_18 
REMARK   13  A    between atoms: C_20  and  C_19 
REMARK   14  A    between atoms: C_21  and  C_20 
REMARK   15  A    between atoms: P_25  and  C_21 
REMARK   16  A    between atoms: P_25  and  O_24 
ROOT
HETATM    1  C   UNK N   1      30.987  23.544  -2.939  0.00  0.00    -0.027 C 
HETATM    2  C   UNK N   1      30.500  22.297  -2.860  0.00  0.00    -0.027 C 
ENDROOT
BRANCH   2   3
HETATM    3  C   UNK N   1      30.073  21.514  -4.064  0.00  0.00     0.053 C 
BRANCH   3   4
HETATM    4  C   UNK N   1      31.107  20.502  -4.476  0.00  0.00    -0.027 C 
HETATM    5  C   UNK N   1      31.293  20.169  -5.760  0.00  0.00    -0.030 C 
BRANCH   5   6
HETATM    6  C   UNK N   1      30.480  20.760  -6.876  0.00  0.00     0.027 C 
BRANCH   6   7
HETATM    7  C   UNK N   1      29.458  19.769  -7.420  0.00  0.00     0.004 C 
BRANCH   7   8
HETATM    8  C   UNK N   1      28.260  20.478  -8.032  0.00  0.00     0.012 C 
BRANCH   8   9
HETATM    9  C   UNK N   1      28.137  21.878  -7.454  0.00  0.00     0.137 C 
BRANCH   9  10
HETATM   10  P   UNK N   1      26.553  22.685  -7.992  0.00  0.00     0.365 P 
HETATM   11  F   UNK N   1      26.416  20.997  -7.698  0.00  0.00    -0.156 F 
HETATM   12  O   UNK N   1      26.139  22.238  -9.420  0.00  0.00    -0.254 OA
BRANCH  10  13
HETATM   13  O   UNK N   1      25.114  22.537  -7.033  0.00  0.00    -0.316 OA
HETATM   14  C   UNK N   1      24.622  21.266  -7.330  0.00  0.00     0.213 C 
ENDBRANCH  10  13
ENDBRANCH   9  10
ENDBRANCH   8   9
ENDBRANCH   7   8
ENDBRANCH   6   7
ENDBRANCH   5   6
ENDBRANCH   3   4
ENDBRANCH   2   3
BRANCH   1  15
HETATM   15  C   UNK N   1      31.158  24.255  -4.249  0.00  0.00     0.053 C 
BRANCH  15  16
HETATM   16  C   UNK N   1      30.597  25.643  -4.177  0.00  0.00    -0.027 C 
HETATM   17  C   UNK N   1      29.355  25.932  -4.589  0.00  0.00    -0.027 C 
BRANCH  17  18
HETATM   18  C   UNK N   1      28.437  24.876  -5.142  0.00  0.00     0.053 C 
BRANCH  18  19
HETATM   19  C   UNK N   1      27.397  24.444  -4.144  0.00  0.00    -0.027 C 
HETATM   20  C   UNK N   1      26.102  24.746  -4.302  0.00  0.00    -0.030 C 
BRANCH  20  21
HETATM   21  C   UNK N   1      25.612  25.519  -5.490  0.00  0.00     0.027 C 
BRANCH  21  22
HETATM   22  C   UNK N   1      25.373  26.972  -5.128  0.00  0.00     0.004 C 
BRANCH  22  23
HETATM   23  C   UNK N   1      26.347  27.845  -5.889  0.00  0.00    -0.000 C 
BRANCH  23  24
HETATM   24  C   UNK N   1      26.972  28.848  -4.943  0.00  0.00    -0.005 C 
HETATM   25  C   UNK N   1      26.153  28.921  -3.672  0.00  0.00     0.005 C 
ENDBRANCH  23  24
ENDBRANCH  22  23
ENDBRANCH  21  22
ENDBRANCH  20  21
ENDBRANCH  18  19
ENDBRANCH  17  18
ENDBRANCH  15  16
ENDBRANCH   1  15
TORSDOF 16
ENDMDL
MODEL 7
REMARK VINA RESULT:      -4.9      1.849      4.201
REMARK  16 active torsions:
REMARK  status: ('A' for Active; 'I' for Inactive)
REMARK    1  A    between atoms: C_4  and  C_3 
REMARK    2  A    between atoms: C_5  and  C_4 
REMARK    3  A    between atoms: C_6  and  C_5 
REMARK    4  A    between atoms: C_7  and  C_6 
REMARK    5  A    between atoms: C_9  and  C_8 
REMARK    6  A    between atoms: C_10  and  C_9 
REMARK    7  A    between atoms: C_12  and  C_11 
REMARK    8  A    between atoms: C_13  and  C_12 
REMARK    9  A    between atoms: C_15  and  C_14 
REMARK   10  A    between atoms: C_16  and  C_15 
REMARK   11  A    between atoms: C_18  and  C_17 
REMARK   12  A    between atoms: C_19  and  C_18 
REMARK   13  A    between atoms: C_20  and  C_19 
REMARK   14  A    between atoms: C_21  and  C_20 
REMARK   15  A    between atoms: P_25  and  C_21 
REMARK   16  A    between atoms: P_25  and  O_24 
ROOT
HETATM    1  C   UNK N   1      26.428  29.646  -3.656  0.00  0.00    -0.027 C 
HETATM    2  C   UNK N   1      25.818  28.516  -4.046  0.00  0.00    -0.027 C 
ENDROOT
BRANCH   2   3
HETATM    3  C   UNK N   1      26.100  27.184  -3.420  0.00  0.00     0.053 C 
BRANCH   3   4
HETATM    4  C   UNK N   1      26.103  26.072  -4.433  0.00  0.00    -0.027 C 
HETATM    5  C   UNK N   1      26.639  24.875  -4.163  0.00  0.00    -0.030 C 
BRANCH   5   6
HETATM    6  C   UNK N   1      27.290  24.558  -2.847  0.00  0.00     0.027 C 
BRANCH   6   7
HETATM    7  C   UNK N   1      28.237  23.369  -2.954  0.00  0.00     0.004 C 
BRANCH   7   8
HETATM    8  C   UNK N   1      29.609  23.788  -3.457  0.00  0.00     0.012 C 
BRANCH   8   9
HETATM    9  C   UNK N   1      30.193  22.695  -4.336  0.00  0.00     0.137 C 
BRANCH   9  10
HETATM   10  P   UNK N   1      31.786  22.051  -3.629  0.00  0.00     0.365 P 
HETATM   11  F   UNK N   1      30.451  20.985  -3.439  0.00  0.00    -0.156 F 
HETATM   12  O   UNK N   1      31.748  22.008  -2.078  0.00  0.00    -0.254 OA
BRANCH  10  13
HETATM   13  O   UNK N   1      32.406  20.503  -4.112  0.00  0.00    -0.316 OA
HETATM   14  C   UNK N   1      31.540  20.074  -5.116  0.00  0.00     0.213 C 
ENDBRANCH  10  13
ENDBRANCH   9  10
ENDBRANCH   8   9
ENDBRANCH   7   8
ENDBRANCH   6   7
ENDBRANCH   5   6
ENDBRANCH   3   4
ENDBRANCH   2   3
BRANCH   1  15
HETATM   15  C   UNK N   1      27.437  29.669  -2.546  0.00  0.00     0.053 C 
BRANCH  15  16
HETATM   16  C   UNK N   1      28.434  30.767  -2.759  0.00  0.00    -0.027 C 
HETATM   17  C   UNK N   1      29.725  30.634  -2.424  0.00  0.00    -0.027 C 
BRANCH  17  18
HETATM   18  C   UNK N   1      30.260  29.363  -1.822  0.00  0.00     0.053 C 
BRANCH  18  19
HETATM   19  C   UNK N   1      31.380  28.773  -2.635  0.00  0.00    -0.027 C 
HETATM   20  C   UNK N   1      31.160  27.814  -3.544  0.00  0.00    -0.030 C 
BRANCH  20  21
HETATM   21  C   UNK N   1      29.783  27.284  -3.814  0.00  0.00     0.027 C 
BRANCH  21  22
HETATM   22  C   UNK N   1      29.427  27.432  -5.281  0.00  0.00     0.004 C 
BRANCH  22  23
HETATM   23  C   UNK N   1      29.599  28.877  -5.695  0.00  0.00    -0.000 C 
BRANCH  23  24
HETATM   24  C   UNK N   1      28.464  29.278  -6.613  0.00  0.00    -0.005 C 
HETATM   25  C   UNK N   1      27.794  28.035  -7.159  0.00  0.00     0.005 C 
ENDBRANCH  23  24
ENDBRANCH  22  23
ENDBRANCH  21  22
ENDBRANCH  20  21
ENDBRANCH  18  19
ENDBRANCH  17  18
ENDBRANCH  15  16
ENDBRANCH   1  15
TORSDOF 16
ENDMDL
MODEL 8
REMARK VINA RESULT:      -4.9      3.033      5.283
REMARK  16 active torsions:
REMARK  status: ('A' for Active; 'I' for Inactive)
REMARK    1  A    between atoms: C_4  and  C_3 
REMARK    2  A    between atoms: C_5  and  C_4 
REMARK    3  A    between atoms: C_6  and  C_5 
REMARK    4  A    between atoms: C_7  and  C_6 
REMARK    5  A    between atoms: C_9  and  C_8 
REMARK    6  A    between atoms: C_10  and  C_9 
REMARK    7  A    between atoms: C_12  and  C_11 
REMARK    8  A    between atoms: C_13  and  C_12 
REMARK    9  A    between atoms: C_15  and  C_14 
REMARK   10  A    between atoms: C_16  and  C_15 
REMARK   11  A    between atoms: C_18  and  C_17 
REMARK   12  A    between atoms: C_19  and  C_18 
REMARK   13  A    between atoms: C_20  and  C_19 
REMARK   14  A    between atoms: C_21  and  C_20 
REMARK   15  A    between atoms: P_25  and  C_21 
REMARK   16  A    between atoms: P_25  and  O_24 
ROOT
HETATM    1  C   UNK N   1      27.486  29.479  -5.603  0.00  0.00    -0.027 C 
HETATM    2  C   UNK N   1      26.771  29.529  -4.469  0.00  0.00    -0.027 C 
ENDROOT
BRANCH   2   3
HETATM    3  C   UNK N   1      25.826  28.442  -4.056  0.00  0.00     0.053 C 
BRANCH   3   4
HETATM    4  C   UNK N   1      26.447  27.500  -3.061  0.00  0.00    -0.027 C 
HETATM    5  C   UNK N   1      26.537  26.185  -3.299  0.00  0.00    -0.030 C 
BRANCH   5   6
HETATM    6  C   UNK N   1      26.014  25.552  -4.556  0.00  0.00     0.027 C 
BRANCH   6   7
HETATM    7  C   UNK N   1      26.321  24.060  -4.611  0.00  0.00     0.004 C 
BRANCH   7   8
HETATM    8  C   UNK N   1      27.128  23.698  -5.848  0.00  0.00     0.012 C 
BRANCH   8   9
HETATM    9  C   UNK N   1      26.425  24.217  -7.092  0.00  0.00     0.137 C 
BRANCH   9  10
HETATM   10  P   UNK N   1      26.467  22.956  -8.455  0.00  0.00     0.365 P 
HETATM   11  F   UNK N   1      25.937  22.336  -6.942  0.00  0.00    -0.156 F 
HETATM   12  O   UNK N   1      27.591  21.908  -8.232  0.00  0.00    -0.254 OA
BRANCH  10  13
HETATM   13  O   UNK N   1      25.053  22.029  -8.848  0.00  0.00    -0.316 OA
HETATM   14  C   UNK N   1      24.630  21.498  -7.630  0.00  0.00     0.213 C 
ENDBRANCH  10  13
ENDBRANCH   9  10
ENDBRANCH   8   9
ENDBRANCH   7   8
ENDBRANCH   6   7
ENDBRANCH   5   6
ENDBRANCH   3   4
ENDBRANCH   2   3
BRANCH   1  15
HETATM   15  C   UNK N   1      27.406  28.317  -6.549  0.00  0.00     0.053 C 
BRANCH  15  16
HETATM   16  C   UNK N   1      28.698  28.145  -7.288  0.00  0.00    -0.027 C 
HETATM   17  C   UNK N   1      29.628  27.259  -6.905  0.00  0.00    -0.027 C 
BRANCH  17  18
HETATM   18  C   UNK N   1      29.427  26.368  -5.709  0.00  0.00     0.053 C 
BRANCH  18  19
HETATM   19  C   UNK N   1      30.095  26.910  -4.474  0.00  0.00    -0.027 C 
HETATM   20  C   UNK N   1      30.649  26.102  -3.561  0.00  0.00    -0.030 C 
BRANCH  20  21
HETATM   21  C   UNK N   1      30.650  24.611  -3.725  0.00  0.00     0.027 C 
BRANCH  21  22
HETATM   22  C   UNK N   1      29.562  23.975  -2.882  0.00  0.00     0.004 C 
BRANCH  22  23
HETATM   23  C   UNK N   1      29.774  22.477  -2.836  0.00  0.00    -0.000 C 
BRANCH  23  24
HETATM   24  C   UNK N   1      30.172  21.981  -4.209  0.00  0.00    -0.005 C 
HETATM   25  C   UNK N   1      31.028  20.741  -4.070  0.00  0.00     0.005 C 
ENDBRANCH  23  24
ENDBRANCH  22  23
ENDBRANCH  21  22
ENDBRANCH  20  21
ENDBRANCH  18  19
ENDBRANCH  17  18
ENDBRANCH  15  16
ENDBRANCH   1  15
TORSDOF 16
ENDMDL
MODEL 9
REMARK VINA RESULT:      -4.8     12.705     15.804
REMARK  16 active torsions:
REMARK  status: ('A' for Active; 'I' for Inactive)
REMARK    1  A    between atoms: C_4  and  C_3 
REMARK    2  A    between atoms: C_5  and  C_4 
REMARK    3  A    between atoms: C_6  and  C_5 
REMARK    4  A    between atoms: C_7  and  C_6 
REMARK    5  A    between atoms: C_9  and  C_8 
REMARK    6  A    between atoms: C_10  and  C_9 
REMARK    7  A    between atoms: C_12  and  C_11 
REMARK    8  A    between atoms: C_13  and  C_12 
REMARK    9  A    between atoms: C_15  and  C_14 
REMARK   10  A    between atoms: C_16  and  C_15 
REMARK   11  A    between atoms: C_18  and  C_17 
REMARK   12  A    between atoms: C_19  and  C_18 
REMARK   13  A    between atoms: C_20  and  C_19 
REMARK   14  A    between atoms: C_21  and  C_20 
REMARK   15  A    between atoms: P_25  and  C_21 
REMARK   16  A    between atoms: P_25  and  O_24 
ROOT
HETATM    1  C   UNK N   1      27.565  20.298   7.060  0.00  0.00    -0.027 C 
HETATM    2  C   UNK N   1      27.365  20.805   5.834  0.00  0.00    -0.027 C 
ENDROOT
BRANCH   2   3
HETATM    3  C   UNK N   1      27.762  20.082   4.582  0.00  0.00     0.053 C 
BRANCH   3   4
HETATM    4  C   UNK N   1      26.695  20.154   3.525  0.00  0.00    -0.027 C 
HETATM    5  C   UNK N   1      25.727  19.232   3.437  0.00  0.00    -0.030 C 
BRANCH   5   6
HETATM    6  C   UNK N   1      25.644  18.055   4.366  0.00  0.00     0.027 C 
BRANCH   6   7
HETATM    7  C   UNK N   1      25.057  16.828   3.677  0.00  0.00     0.004 C 
BRANCH   7   8
HETATM    8  C   UNK N   1      23.572  16.678   3.969  0.00  0.00     0.012 C 
BRANCH   8   9
HETATM    9  C   UNK N   1      23.290  17.050   5.415  0.00  0.00     0.137 C 
BRANCH   9  10
HETATM   10  P   UNK N   1      21.509  17.524   5.646  0.00  0.00     0.365 P 
HETATM   11  F   UNK N   1      22.479  18.758   4.946  0.00  0.00    -0.156 F 
HETATM   12  O   UNK N   1      21.341  18.600   6.752  0.00  0.00    -0.254 OA
BRANCH  10  13
HETATM   13  O   UNK N   1      20.565  18.098   4.306  0.00  0.00    -0.316 OA
HETATM   14  C   UNK N   1      21.062  19.374   4.046  0.00  0.00     0.213 C 
ENDBRANCH  10  13
ENDBRANCH   9  10
ENDBRANCH   8   9
ENDBRANCH   7   8
ENDBRANCH   6   7
ENDBRANCH   5   6
ENDBRANCH   3   4
ENDBRANCH   2   3
BRANCH   1  15
HETATM   15  C   UNK N   1      28.191  18.953   7.279  0.00  0.00     0.053 C 
BRANCH  15  16
HETATM   16  C   UNK N   1      28.080  18.543   8.716  0.00  0.00    -0.027 C 
HETATM   17  C   UNK N   1      29.157  18.298   9.474  0.00  0.00    -0.027 C 
BRANCH  17  18
HETATM   18  C   UNK N   1      30.554  18.430   8.932  0.00  0.00     0.053 C 
BRANCH  18  19
HETATM   19  C   UNK N   1      31.106  17.116   8.451  0.00  0.00    -0.027 C 
HETATM   20  C   UNK N   1      32.359  17.005   7.989  0.00  0.00    -0.030 C 
BRANCH  20  21
HETATM   21  C   UNK N   1      33.288  18.182   7.940  0.00  0.00     0.027 C 
BRANCH  21  22
HETATM   22  C   UNK N   1      34.589  17.872   8.654  0.00  0.00     0.004 C 
BRANCH  22  23
HETATM   23  C   UNK N   1      34.420  16.615   9.481  0.00  0.00    -0.000 C 
BRANCH  23  24
HETATM   24  C   UNK N   1      35.381  16.646  10.649  0.00  0.00    -0.005 C 
HETATM   25  C   UNK N   1      36.347  15.485  10.540  0.00  0.00     0.005 C 
ENDBRANCH  23  24
ENDBRANCH  22  23
ENDBRANCH  21  22
ENDBRANCH  20  21
ENDBRANCH  18  19
ENDBRANCH  17  18
ENDBRANCH  15  16
ENDBRANCH   1  15
TORSDOF 16
ENDMDL
