MODEL 1
REMARK VINA RESULT:      -4.5      0.000      0.000
REMARK  6 active torsions:
REMARK  status: ('A' for Active; 'I' for Inactive)
REMARK    1  A    between atoms: C_2  and  C_3 
REMARK    2  A    between atoms: C_2  and  C_10 
REMARK    3  A    between atoms: C_3  and  C_4 
REMARK    4  A    between atoms: C_4  and  C_5 
REMARK    5  A    between atoms: C_5  and  C_6 
REMARK    6  A    between atoms: C_6  and  O_9 
ROOT
HETATM    1  C   UNK N   1      27.953  23.992  -3.987  0.00  0.00     0.004 C 
ENDROOT
BRANCH   1   2
HETATM    2  C   UNK N   1      26.663  24.737  -3.697  0.00  0.00     0.008 C 
BRANCH   2   3
HETATM    3  C   UNK N   1      25.709  24.749  -4.880  0.00  0.00     0.003 C 
HETATM    4  C   UNK N   1      26.043  23.617  -5.842  0.00  0.00     0.014 C 
BRANCH   3   5
HETATM    5  C   UNK N   1      25.854  26.069  -5.569  0.00  0.00    -0.033 C 
HETATM    6  C   UNK N   1      24.833  26.919  -5.663  0.00  0.00     0.007 C 
ENDBRANCH   3   5
ENDBRANCH   2   3
ENDBRANCH   1   2
BRANCH   1   7
HETATM    7  C   UNK N   1      28.482  23.463  -2.662  0.00  0.00     0.037 C 
BRANCH   7   8
HETATM    8  C   UNK N   1      29.977  23.175  -2.679  0.00  0.00     0.051 C 
HETATM    9  C   UNK N   1      30.739  24.287  -3.375  0.00  0.00     0.045 C 
HETATM   10  C   UNK N   1      30.203  21.882  -3.432  0.00  0.00     0.045 C 
BRANCH   8  11
HETATM   11  O   UNK N   1      30.454  23.027  -1.374  0.00  0.00    -0.391 OA
HETATM   12  H   UNK N   1      30.437  23.641  -0.623  0.00  0.00     0.210 HD
ENDBRANCH   8  11
ENDBRANCH   7   8
ENDBRANCH   1   7
TORSDOF 6
ENDMDL
MODEL 2
REMARK VINA RESULT:      -4.4     13.029     14.530
REMARK  6 active torsions:
REMARK  status: ('A' for Active; 'I' for Inactive)
REMARK    1  A    between atoms: C_2  and  C_3 
REMARK    2  A    between atoms: C_2  and  C_10 
REMARK    3  A    between atoms: C_3  and  C_4 
REMARK    4  A    between atoms: C_4  and  C_5 
REMARK    5  A    between atoms: C_5  and  C_6 
REMARK    6  A    between atoms: C_6  and  O_9 
ROOT
HETATM    1  C   UNK N   1      30.731  16.970   8.069  0.00  0.00     0.004 C 
ENDROOT
BRANCH   1   2
HETATM    2  C   UNK N   1      31.328  16.810   6.683  0.00  0.00     0.008 C 
BRANCH   2   3
HETATM    3  C   UNK N   1      32.681  17.485   6.540  0.00  0.00     0.003 C 
HETATM    4  C   UNK N   1      33.713  16.498   6.009  0.00  0.00     0.014 C 
BRANCH   3   5
HETATM    5  C   UNK N   1      33.090  17.978   7.892  0.00  0.00    -0.033 C 
HETATM    6  C   UNK N   1      34.343  18.347   8.147  0.00  0.00     0.007 C 
ENDBRANCH   3   5
ENDBRANCH   2   3
ENDBRANCH   1   2
BRANCH   1   7
HETATM    7  C   UNK N   1      29.224  17.094   7.907  0.00  0.00     0.037 C 
BRANCH   7   8
HETATM    8  C   UNK N   1      28.628  18.273   8.665  0.00  0.00     0.051 C 
HETATM    9  C   UNK N   1      28.215  19.381   7.713  0.00  0.00     0.045 C 
HETATM   10  C   UNK N   1      29.679  18.809   9.612  0.00  0.00     0.045 C 
BRANCH   8  11
HETATM   11  O   UNK N   1      27.519  17.857   9.408  0.00  0.00    -0.391 OA
HETATM   12  H   UNK N   1      26.878  18.370   9.924  0.00  0.00     0.210 HD
ENDBRANCH   8  11
ENDBRANCH   7   8
ENDBRANCH   1   7
TORSDOF 6
ENDMDL
MODEL 3
REMARK VINA RESULT:      -4.3     10.827     12.293
REMARK  6 active torsions:
REMARK  status: ('A' for Active; 'I' for Inactive)
REMARK    1  A    between atoms: C_2  and  C_3 
REMARK    2  A    between atoms: C_2  and  C_10 
REMARK    3  A    between atoms: C_3  and  C_4 
REMARK    4  A    between atoms: C_4  and  C_5 
REMARK    5  A    between atoms: C_5  and  C_6 
REMARK    6  A    between atoms: C_6  and  O_9 
ROOT
HETATM    1  C   UNK N   1      27.970  17.749   6.467  0.00  0.00     0.004 C 
ENDROOT
BRANCH   1   2
HETATM    2  C   UNK N   1      28.281  18.727   5.349  0.00  0.00     0.008 C 
BRANCH   2   3
HETATM    3  C   UNK N   1      27.170  19.740   5.124  0.00  0.00     0.003 C 
HETATM    4  C   UNK N   1      27.039  20.062   3.641  0.00  0.00     0.014 C 
BRANCH   3   5
HETATM    5  C   UNK N   1      27.519  20.977   5.890  0.00  0.00    -0.033 C 
HETATM    6  C   UNK N   1      26.606  21.633   6.603  0.00  0.00     0.007 C 
ENDBRANCH   3   5
ENDBRANCH   2   3
ENDBRANCH   1   2
BRANCH   1   7
HETATM    7  C   UNK N   1      29.107  17.830   7.474  0.00  0.00     0.037 C 
BRANCH   7   8
HETATM    8  C   UNK N   1      28.648  18.201   8.878  0.00  0.00     0.051 C 
HETATM    9  C   UNK N   1      29.758  18.888   9.652  0.00  0.00     0.045 C 
HETATM   10  C   UNK N   1      28.260  16.931   9.603  0.00  0.00     0.045 C 
BRANCH   8  11
HETATM   11  O   UNK N   1      27.533  19.043   8.814  0.00  0.00    -0.391 OA
HETATM   12  H   UNK N   1      27.340  19.790   8.225  0.00  0.00     0.210 HD
ENDBRANCH   8  11
ENDBRANCH   7   8
ENDBRANCH   1   7
TORSDOF 6
ENDMDL
MODEL 4
REMARK VINA RESULT:      -4.3     12.704     14.588
REMARK  6 active torsions:
REMARK  status: ('A' for Active; 'I' for Inactive)
REMARK    1  A    between atoms: C_2  and  C_3 
REMARK    2  A    between atoms: C_2  and  C_10 
REMARK    3  A    between atoms: C_3  and  C_4 
REMARK    4  A    between atoms: C_4  and  C_5 
REMARK    5  A    between atoms: C_5  and  C_6 
REMARK    6  A    between atoms: C_6  and  O_9 
ROOT
HETATM    1  C   UNK N   1      30.765  17.592   8.414  0.00  0.00     0.004 C 
ENDROOT
BRANCH   1   2
HETATM    2  C   UNK N   1      32.073  18.360   8.380  0.00  0.00     0.008 C 
BRANCH   2   3
HETATM    3  C   UNK N   1      33.276  17.467   8.126  0.00  0.00     0.003 C 
HETATM    4  C   UNK N   1      34.561  18.285   8.165  0.00  0.00     0.014 C 
BRANCH   3   5
HETATM    5  C   UNK N   1      33.104  16.844   6.777  0.00  0.00    -0.033 C 
HETATM    6  C   UNK N   1      33.473  17.479   5.666  0.00  0.00     0.007 C 
ENDBRANCH   3   5
ENDBRANCH   2   3
ENDBRANCH   1   2
BRANCH   1   7
HETATM    7  C   UNK N   1      29.700  18.526   8.969  0.00  0.00     0.037 C 
BRANCH   7   8
HETATM    8  C   UNK N   1      28.323  18.308   8.357  0.00  0.00     0.051 C 
HETATM    9  C   UNK N   1      28.298  17.051   7.506  0.00  0.00     0.045 C 
HETATM   10  C   UNK N   1      27.999  19.498   7.481  0.00  0.00     0.045 C 
BRANCH   8  11
HETATM   11  O   UNK N   1      27.358  18.211   9.363  0.00  0.00    -0.391 OA
HETATM   12  H   UNK N   1      27.279  18.681  10.208  0.00  0.00     0.210 HD
ENDBRANCH   8  11
ENDBRANCH   7   8
ENDBRANCH   1   7
TORSDOF 6
ENDMDL
MODEL 5
REMARK VINA RESULT:      -4.3      4.387      5.340
REMARK  6 active torsions:
REMARK  status: ('A' for Active; 'I' for Inactive)
REMARK    1  A    between atoms: C_2  and  C_3 
REMARK    2  A    between atoms: C_2  and  C_10 
REMARK    3  A    between atoms: C_3  and  C_4 
REMARK    4  A    between atoms: C_4  and  C_5 
REMARK    5  A    between atoms: C_5  and  C_6 
REMARK    6  A    between atoms: C_6  and  O_9 
ROOT
HETATM    1  C   UNK N   1      26.149  23.940  -6.475  0.00  0.00     0.004 C 
ENDROOT
BRANCH   1   2
HETATM    2  C   UNK N   1      25.524  24.686  -5.310  0.00  0.00     0.008 C 
BRANCH   2   3
HETATM    3  C   UNK N   1      25.275  26.154  -5.614  0.00  0.00     0.003 C 
HETATM    4  C   UNK N   1      25.758  26.494  -7.018  0.00  0.00     0.014 C 
BRANCH   3   5
HETATM    5  C   UNK N   1      26.024  26.962  -4.602  0.00  0.00    -0.033 C 
HETATM    6  C   UNK N   1      25.547  28.117  -4.144  0.00  0.00     0.007 C 
ENDBRANCH   3   5
ENDBRANCH   2   3
ENDBRANCH   1   2
BRANCH   1   7
HETATM    7  C   UNK N   1      25.508  22.562  -6.531  0.00  0.00     0.037 C 
BRANCH   7   8
HETATM    8  C   UNK N   1      25.118  22.133  -7.940  0.00  0.00     0.051 C 
HETATM    9  C   UNK N   1      25.750  20.800  -8.298  0.00  0.00     0.045 C 
HETATM   10  C   UNK N   1      25.610  23.184  -8.910  0.00  0.00     0.045 C 
BRANCH   8  11
HETATM   11  O   UNK N   1      23.728  22.035  -8.046  0.00  0.00    -0.391 OA
HETATM   12  H   UNK N   1      23.134  21.284  -7.886  0.00  0.00     0.210 HD
ENDBRANCH   8  11
ENDBRANCH   7   8
ENDBRANCH   1   7
TORSDOF 6
ENDMDL
MODEL 6
REMARK VINA RESULT:      -4.2     17.141     18.721
REMARK  6 active torsions:
REMARK  status: ('A' for Active; 'I' for Inactive)
REMARK    1  A    between atoms: C_2  and  C_3 
REMARK    2  A    between atoms: C_2  and  C_10 
REMARK    3  A    between atoms: C_3  and  C_4 
REMARK    4  A    between atoms: C_4  and  C_5 
REMARK    5  A    between atoms: C_5  and  C_6 
REMARK    6  A    between atoms: C_6  and  O_9 
ROOT
HETATM    1  C   UNK N   1      20.563  14.550   9.416  0.00  0.00     0.004 C 
ENDROOT
BRANCH   1   2
HETATM    2  C   UNK N   1      21.785  13.770   9.864  0.00  0.00     0.008 C 
BRANCH   2   3
HETATM    3  C   UNK N   1      21.458  12.345  10.277  0.00  0.00     0.003 C 
HETATM    4  C   UNK N   1      20.375  12.338  11.349  0.00  0.00     0.014 C 
BRANCH   3   5
HETATM    5  C   UNK N   1      22.711  11.724  10.808  0.00  0.00    -0.033 C 
HETATM    6  C   UNK N   1      23.125  11.952  12.052  0.00  0.00     0.007 C 
ENDBRANCH   3   5
ENDBRANCH   2   3
ENDBRANCH   1   2
BRANCH   1   7
HETATM    7  C   UNK N   1      21.047  15.682   8.522  0.00  0.00     0.037 C 
BRANCH   7   8
HETATM    8  C   UNK N   1      19.934  16.623   8.080  0.00  0.00     0.051 C 
HETATM    9  C   UNK N   1      18.763  16.573   9.044  0.00  0.00     0.045 C 
HETATM   10  C   UNK N   1      19.460  16.188   6.711  0.00  0.00     0.045 C 
BRANCH   8  11
HETATM   11  O   UNK N   1      20.415  17.933   7.996  0.00  0.00    -0.391 OA
HETATM   12  H   UNK N   1      20.190  18.649   7.382  0.00  0.00     0.210 HD
ENDBRANCH   8  11
ENDBRANCH   7   8
ENDBRANCH   1   7
TORSDOF 6
ENDMDL
MODEL 7
REMARK VINA RESULT:      -4.2     20.019     22.594
REMARK  6 active torsions:
REMARK  status: ('A' for Active; 'I' for Inactive)
REMARK    1  A    between atoms: C_2  and  C_3 
REMARK    2  A    between atoms: C_2  and  C_10 
REMARK    3  A    between atoms: C_3  and  C_4 
REMARK    4  A    between atoms: C_4  and  C_5 
REMARK    5  A    between atoms: C_5  and  C_6 
REMARK    6  A    between atoms: C_6  and  O_9 
ROOT
HETATM    1  C   UNK N   1      36.893  12.732  13.750  0.00  0.00     0.004 C 
ENDROOT
BRANCH   1   2
HETATM    2  C   UNK N   1      36.443  12.219  15.106  0.00  0.00     0.008 C 
BRANCH   2   3
HETATM    3  C   UNK N   1      34.977  12.500  15.388  0.00  0.00     0.003 C 
HETATM    4  C   UNK N   1      34.808  13.094  16.780  0.00  0.00     0.014 C 
BRANCH   3   5
HETATM    5  C   UNK N   1      34.238  11.203  15.289  0.00  0.00    -0.033 C 
HETATM    6  C   UNK N   1      33.806  10.737  14.119  0.00  0.00     0.007 C 
ENDBRANCH   3   5
ENDBRANCH   2   3
ENDBRANCH   1   2
BRANCH   1   7
HETATM    7  C   UNK N   1      36.192  14.060  13.508  0.00  0.00     0.037 C 
BRANCH   7   8
HETATM    8  C   UNK N   1      35.583  14.179  12.118  0.00  0.00     0.051 C 
HETATM    9  C   UNK N   1      36.302  13.281  11.128  0.00  0.00     0.045 C 
HETATM   10  C   UNK N   1      35.717  15.615  11.662  0.00  0.00     0.045 C 
BRANCH   8  11
HETATM   11  O   UNK N   1      34.227  13.842  12.155  0.00  0.00    -0.391 OA
HETATM   12  H   UNK N   1      33.683  13.494  12.880  0.00  0.00     0.210 HD
ENDBRANCH   8  11
ENDBRANCH   7   8
ENDBRANCH   1   7
TORSDOF 6
ENDMDL
MODEL 8
REMARK VINA RESULT:      -4.2     12.564     14.024
REMARK  6 active torsions:
REMARK  status: ('A' for Active; 'I' for Inactive)
REMARK    1  A    between atoms: C_2  and  C_3 
REMARK    2  A    between atoms: C_2  and  C_10 
REMARK    3  A    between atoms: C_3  and  C_4 
REMARK    4  A    between atoms: C_4  and  C_5 
REMARK    5  A    between atoms: C_5  and  C_6 
REMARK    6  A    between atoms: C_6  and  O_9 
ROOT
HETATM    1  C   UNK N   1      31.716  17.451   7.756  0.00  0.00     0.004 C 
ENDROOT
BRANCH   1   2
HETATM    2  C   UNK N   1      30.478  17.307   8.622  0.00  0.00     0.008 C 
BRANCH   2   3
HETATM    3  C   UNK N   1      29.187  17.375   7.823  0.00  0.00     0.003 C 
HETATM    4  C   UNK N   1      29.486  17.356   6.329  0.00  0.00     0.014 C 
BRANCH   3   5
HETATM    5  C   UNK N   1      28.490  18.646   8.191  0.00  0.00    -0.033 C 
HETATM    6  C   UNK N   1      27.948  19.435   7.266  0.00  0.00     0.007 C 
ENDBRANCH   3   5
ENDBRANCH   2   3
ENDBRANCH   1   2
BRANCH   1   7
HETATM    7  C   UNK N   1      32.717  18.297   8.528  0.00  0.00     0.037 C 
BRANCH   7   8
HETATM    8  C   UNK N   1      34.168  17.939   8.234  0.00  0.00     0.051 C 
HETATM    9  C   UNK N   1      34.300  17.273   6.877  0.00  0.00     0.045 C 
HETATM   10  C   UNK N   1      34.645  16.976   9.299  0.00  0.00     0.045 C 
BRANCH   8  11
HETATM   11  O   UNK N   1      34.965  19.086   8.273  0.00  0.00    -0.391 OA
HETATM   12  H   UNK N   1      35.366  19.551   9.024  0.00  0.00     0.210 HD
ENDBRANCH   8  11
ENDBRANCH   7   8
ENDBRANCH   1   7
TORSDOF 6
ENDMDL
MODEL 9
REMARK VINA RESULT:      -4.1     24.213     26.301
REMARK  6 active torsions:
REMARK  status: ('A' for Active; 'I' for Inactive)
REMARK    1  A    between atoms: C_2  and  C_3 
REMARK    2  A    between atoms: C_2  and  C_10 
REMARK    3  A    between atoms: C_3  and  C_4 
REMARK    4  A    between atoms: C_4  and  C_5 
REMARK    5  A    between atoms: C_5  and  C_6 
REMARK    6  A    between atoms: C_6  and  O_9 
ROOT
HETATM    1  C   UNK N   1      35.305  11.891  17.897  0.00  0.00     0.004 C 
ENDROOT
BRANCH   1   2
HETATM    2  C   UNK N   1      34.895  13.192  17.230  0.00  0.00     0.008 C 
BRANCH   2   3
HETATM    3  C   UNK N   1      34.952  13.123  15.714  0.00  0.00     0.003 C 
HETATM    4  C   UNK N   1      34.395  11.793  15.222  0.00  0.00     0.014 C 
BRANCH   3   5
HETATM    5  C   UNK N   1      36.384  13.263  15.305  0.00  0.00    -0.033 C 
HETATM    6  C   UNK N   1      37.040  14.412  15.456  0.00  0.00     0.007 C 
ENDBRANCH   3   5
ENDBRANCH   2   3
ENDBRANCH   1   2
BRANCH   1   7
HETATM    7  C   UNK N   1      35.317  12.131  19.399  0.00  0.00     0.037 C 
BRANCH   7   8
HETATM    8  C   UNK N   1      35.229  10.850  20.217  0.00  0.00     0.051 C 
HETATM    9  C   UNK N   1      36.607  10.385  20.652  0.00  0.00     0.045 C 
HETATM   10  C   UNK N   1      34.600   9.777  19.355  0.00  0.00     0.045 C 
BRANCH   8  11
HETATM   11  O   UNK N   1      34.427  11.052  21.344  0.00  0.00    -0.391 OA
HETATM   12  H   UNK N   1      33.551  10.697  21.567  0.00  0.00     0.210 HD
ENDBRANCH   8  11
ENDBRANCH   7   8
ENDBRANCH   1   7
TORSDOF 6
ENDMDL
