MODEL 1
REMARK VINA RESULT:      -6.7      0.000      0.000
REMARK  17 active torsions:
REMARK  status: ('A' for Active; 'I' for Inactive)
REMARK    1  A    between atoms: C_12  and  C_11 
REMARK    2  A    between atoms: C_15  and  C_11 
REMARK    3  A    between atoms: C_17  and  C_12 
REMARK    4  A    between atoms: C_16  and  C_13 
REMARK    5  A    between atoms: C_19  and  C_13 
REMARK    6  A    between atoms: C_18  and  C_14 
REMARK    7  A    between atoms: C_20  and  C_14 
REMARK    8  A    between atoms: C_23  and  C_17 
REMARK    9  A    between atoms: C_17  and  N_26 
REMARK   10  A    between atoms: C_21  and  C_18 
REMARK   11  A    between atoms: C_18  and  N_27 
REMARK   12  A    between atoms: C_22  and  C_19 
REMARK   13  A    between atoms: C_19  and  N_26 
REMARK   14  A    between atoms: O_30  and  C_20 
REMARK   15  A    between atoms: O_31  and  C_21 
REMARK   16  A    between atoms: C_22  and  O_32 
REMARK   17  A    between atoms: O_34  and  C_23 
ROOT
HETATM    1  C   UNK N   1      27.527  24.658  -4.927  0.00  0.00     0.156 C 
ENDROOT
BRANCH   1   2
HETATM    2  C   UNK N   1      26.219  24.066  -5.494  0.00  0.00     0.071 C 
BRANCH   2   3
HETATM    3  C   UNK N   1      26.298  22.956  -6.516  0.00  0.00    -0.056 A 
HETATM    4  C   UNK N   1      27.516  22.503  -7.052  0.00  0.00     0.007 A 
HETATM    5  C   UNK N   1      27.529  21.498  -8.025  0.00  0.00     0.001 A 
HETATM    6  C   UNK N   1      26.328  20.932  -8.463  0.00  0.00     0.000 A 
HETATM    7  C   UNK N   1      25.115  21.371  -7.928  0.00  0.00     0.001 A 
HETATM    8  C   UNK N   1      25.101  22.380  -6.960  0.00  0.00     0.007 A 
ENDBRANCH   2   3
ENDBRANCH   1   2
BRANCH   1   9
HETATM    9  C   UNK N   1      27.911  24.029  -3.584  0.00  0.00     0.135 C 
HETATM   10  N   UNK N   1      29.079  23.526  -3.343  0.00  0.00    -0.360 N 
ATOM     11  HN  UNK N   1      29.224  23.143  -2.408  1.00  0.00     0.162 HD
BRANCH  10  12
HETATM   12  C   UNK N   1      30.209  23.448  -4.257  0.00  0.00     0.167 C 
BRANCH  12  13
HETATM   13  C   UNK N   1      31.036  22.192  -3.937  0.00  0.00     0.143 C 
BRANCH  13  14
HETATM   14  C   UNK N   1      31.500  22.051  -2.513  0.00  0.00     0.141 C 
HETATM   15  O   UNK N   1      30.955  22.661  -1.607  0.00  0.00    -0.650 OA
BRANCH  14  16
HETATM   16  O   UNK N   1      32.552  21.258  -2.241  0.00  0.00    -0.776 OA
HETATM   17  H   UNK N   1      33.044  20.517  -2.534  0.00  0.00     0.167 HD
ENDBRANCH  14  16
ENDBRANCH  13  14
ENDBRANCH  12  13
BRANCH  12  18
HETATM   18  C   UNK N   1      31.055  24.692  -4.077  0.00  0.00     0.133 C 
HETATM   19  N   UNK N   1      31.958  24.994  -4.938  0.00  0.00    -0.382 N 
HETATM   20  H   UNK N   1      32.534  25.786  -4.845  0.00  0.00     0.158 HD
ATOM     21  HN  UNK N   1      32.082  24.389  -5.751  1.00  0.00     0.158 HD
BRANCH  18  22
HETATM   22  O   UNK N   1      30.859  25.504  -3.020  0.00  0.00    -0.348 OA
HETATM   23  H   UNK N   1      30.160  26.127  -3.031  0.00  0.00     0.219 HD
ENDBRANCH  18  22
ENDBRANCH  12  18
ENDBRANCH  10  12
BRANCH   9  24
HETATM   24  O   UNK N   1      26.987  23.970  -2.601  0.00  0.00    -0.348 OA
HETATM   25  H   UNK N   1      26.346  23.287  -2.576  0.00  0.00     0.219 HD
ENDBRANCH   9  24
ENDBRANCH   1   9
BRANCH   1  26
HETATM   26  N   UNK N   1      27.427  26.123  -4.805  0.00  0.00    -0.397 N 
HETATM   27  H   UNK N   1      28.249  26.724  -4.747  0.00  0.00     0.154 HD
BRANCH  26  28
HETATM   28  C   UNK N   1      26.051  26.660  -4.772  0.00  0.00     0.176 C 
BRANCH  28  29
HETATM   29  C   UNK N   1      25.892  27.537  -6.024  0.00  0.00     0.040 C 
BRANCH  29  30
HETATM   30  C   UNK N   1      27.018  27.505  -7.068  0.00  0.00     0.041 C 
BRANCH  30  31
HETATM   31  C   UNK N   1      26.884  26.499  -8.167  0.00  0.00    -0.058 A 
HETATM   32  C   UNK N   1      28.039  25.923  -8.709  0.00  0.00     0.007 A 
HETATM   33  C   UNK N   1      27.938  24.921  -9.680  0.00  0.00     0.001 A 
HETATM   34  C   UNK N   1      26.679  24.490 -10.111  0.00  0.00     0.000 A 
HETATM   35  C   UNK N   1      25.524  25.058  -9.567  0.00  0.00     0.001 A 
HETATM   36  C   UNK N   1      25.626  26.054  -8.589  0.00  0.00     0.007 A 
ENDBRANCH  30  31
ENDBRANCH  29  30
ENDBRANCH  28  29
BRANCH  28  37
HETATM   37  C   UNK N   1      25.828  27.423  -3.481  0.00  0.00     0.163 C 
HETATM   38  O   UNK N   1      26.058  26.886  -2.410  0.00  0.00    -0.648 OA
BRANCH  37  39
HETATM   39  O   UNK N   1      25.360  28.687  -3.493  0.00  0.00    -0.775 OA
HETATM   40  H   UNK N   1      24.912  29.318  -2.965  0.00  0.00     0.167 HD
ENDBRANCH  37  39
ENDBRANCH  28  37
ENDBRANCH  26  28
ENDBRANCH   1  26
TORSDOF 17
ENDMDL
MODEL 2
REMARK VINA RESULT:      -6.5     14.333     17.228
REMARK  17 active torsions:
REMARK  status: ('A' for Active; 'I' for Inactive)
REMARK    1  A    between atoms: C_12  and  C_11 
REMARK    2  A    between atoms: C_15  and  C_11 
REMARK    3  A    between atoms: C_17  and  C_12 
REMARK    4  A    between atoms: C_16  and  C_13 
REMARK    5  A    between atoms: C_19  and  C_13 
REMARK    6  A    between atoms: C_18  and  C_14 
REMARK    7  A    between atoms: C_20  and  C_14 
REMARK    8  A    between atoms: C_23  and  C_17 
REMARK    9  A    between atoms: C_17  and  N_26 
REMARK   10  A    between atoms: C_21  and  C_18 
REMARK   11  A    between atoms: C_18  and  N_27 
REMARK   12  A    between atoms: C_22  and  C_19 
REMARK   13  A    between atoms: C_19  and  N_26 
REMARK   14  A    between atoms: O_30  and  C_20 
REMARK   15  A    between atoms: O_31  and  C_21 
REMARK   16  A    between atoms: C_22  and  O_32 
REMARK   17  A    between atoms: O_34  and  C_23 
ROOT
HETATM    1  C   UNK N   1      21.888  16.468   5.624  0.00  0.00     0.156 C 
ENDROOT
BRANCH   1   2
HETATM    2  C   UNK N   1      23.233  16.094   6.283  0.00  0.00     0.071 C 
BRANCH   2   3
HETATM    3  C   UNK N   1      24.014  14.918   5.743  0.00  0.00    -0.056 A 
HETATM    4  C   UNK N   1      25.171  14.423   6.369  0.00  0.00     0.007 A 
HETATM    5  C   UNK N   1      25.876  13.355   5.805  0.00  0.00     0.001 A 
HETATM    6  C   UNK N   1      25.429  12.770   4.617  0.00  0.00     0.000 A 
HETATM    7  C   UNK N   1      24.275  13.250   3.995  0.00  0.00     0.001 A 
HETATM    8  C   UNK N   1      23.572  14.322   4.555  0.00  0.00     0.007 A 
ENDBRANCH   2   3
ENDBRANCH   1   2
BRANCH   1   9
HETATM    9  C   UNK N   1      21.626  17.977   5.664  0.00  0.00     0.135 C 
HETATM   10  N   UNK N   1      21.241  18.658   4.633  0.00  0.00    -0.360 N 
ATOM     11  HN  UNK N   1      21.088  19.657   4.780  1.00  0.00     0.162 HD
BRANCH  10  12
HETATM   12  C   UNK N   1      21.000  18.158   3.288  0.00  0.00     0.167 C 
BRANCH  12  13
HETATM   13  C   UNK N   1      21.444  19.216   2.264  0.00  0.00     0.143 C 
BRANCH  13  14
HETATM   14  C   UNK N   1      21.673  20.602   2.804  0.00  0.00     0.141 C 
HETATM   15  O   UNK N   1      22.798  21.059   2.916  0.00  0.00    -0.650 OA
BRANCH  14  16
HETATM   16  O   UNK N   1      20.615  21.337   3.193  0.00  0.00    -0.776 OA
HETATM   17  H   UNK N   1      20.353  22.137   3.603  0.00  0.00     0.167 HD
ENDBRANCH  14  16
ENDBRANCH  13  14
ENDBRANCH  12  13
BRANCH  12  18
HETATM   18  C   UNK N   1      19.519  17.877   3.141  0.00  0.00     0.133 C 
HETATM   19  N   UNK N   1      18.792  18.602   2.371  0.00  0.00    -0.382 N 
HETATM   20  H   UNK N   1      17.824  18.456   2.263  0.00  0.00     0.158 HD
ATOM     21  HN  UNK N   1      19.234  19.359   1.849  1.00  0.00     0.158 HD
BRANCH  18  22
HETATM   22  O   UNK N   1      18.950  16.852   3.805  0.00  0.00    -0.348 OA
HETATM   23  H   UNK N   1      18.164  16.991   4.297  0.00  0.00     0.219 HD
ENDBRANCH  18  22
ENDBRANCH  12  18
ENDBRANCH  10  12
BRANCH   9  24
HETATM   24  O   UNK N   1      21.824  18.646   6.820  0.00  0.00    -0.348 OA
HETATM   25  H   UNK N   1      22.239  19.487   6.830  0.00  0.00     0.219 HD
ENDBRANCH   9  24
ENDBRANCH   1   9
BRANCH   1  26
HETATM   26  N   UNK N   1      20.777  15.732   6.252  0.00  0.00    -0.397 N 
HETATM   27  H   UNK N   1      19.869  15.624   5.800  0.00  0.00     0.154 HD
BRANCH  26  28
HETATM   28  C   UNK N   1      21.072  15.159   7.582  0.00  0.00     0.176 C 
BRANCH  28  29
HETATM   29  C   UNK N   1      20.778  13.654   7.487  0.00  0.00     0.040 C 
BRANCH  29  30
HETATM   30  C   UNK N   1      21.970  12.687   7.538  0.00  0.00     0.041 C 
BRANCH  30  31
HETATM   31  C   UNK N   1      22.549  12.408   8.889  0.00  0.00    -0.058 A 
HETATM   32  C   UNK N   1      23.937  12.287   9.025  0.00  0.00     0.007 A 
HETATM   33  C   UNK N   1      24.508  12.108  10.289  0.00  0.00     0.001 A 
HETATM   34  C   UNK N   1      23.692  12.050  11.423  0.00  0.00     0.000 A 
HETATM   35  C   UNK N   1      22.306  12.176  11.292  0.00  0.00     0.001 A 
HETATM   36  C   UNK N   1      21.736  12.364  10.028  0.00  0.00     0.007 A 
ENDBRANCH  30  31
ENDBRANCH  29  30
ENDBRANCH  28  29
BRANCH  28  37
HETATM   37  C   UNK N   1      20.241  15.860   8.639  0.00  0.00     0.163 C 
HETATM   38  O   UNK N   1      20.433  17.041   8.879  0.00  0.00    -0.648 OA
BRANCH  37  39
HETATM   39  O   UNK N   1      19.299  15.195   9.336  0.00  0.00    -0.775 OA
HETATM   40  H   UNK N   1      18.930  15.111  10.193  0.00  0.00     0.167 HD
ENDBRANCH  37  39
ENDBRANCH  28  37
ENDBRANCH  26  28
ENDBRANCH   1  26
TORSDOF 17
ENDMDL
MODEL 3
REMARK VINA RESULT:      -6.4     12.704     14.918
REMARK  17 active torsions:
REMARK  status: ('A' for Active; 'I' for Inactive)
REMARK    1  A    between atoms: C_12  and  C_11 
REMARK    2  A    between atoms: C_15  and  C_11 
REMARK    3  A    between atoms: C_17  and  C_12 
REMARK    4  A    between atoms: C_16  and  C_13 
REMARK    5  A    between atoms: C_19  and  C_13 
REMARK    6  A    between atoms: C_18  and  C_14 
REMARK    7  A    between atoms: C_20  and  C_14 
REMARK    8  A    between atoms: C_23  and  C_17 
REMARK    9  A    between atoms: C_17  and  N_26 
REMARK   10  A    between atoms: C_21  and  C_18 
REMARK   11  A    between atoms: C_18  and  N_27 
REMARK   12  A    between atoms: C_22  and  C_19 
REMARK   13  A    between atoms: C_19  and  N_26 
REMARK   14  A    between atoms: O_30  and  C_20 
REMARK   15  A    between atoms: O_31  and  C_21 
REMARK   16  A    between atoms: C_22  and  O_32 
REMARK   17  A    between atoms: O_34  and  C_23 
ROOT
HETATM    1  C   UNK N   1      19.980  15.002   3.221  0.00  0.00     0.156 C 
ENDROOT
BRANCH   1   2
HETATM    2  C   UNK N   1      20.233  13.633   3.887  0.00  0.00     0.071 C 
BRANCH   2   3
HETATM    3  C   UNK N   1      21.642  13.260   4.285  0.00  0.00    -0.056 A 
HETATM    4  C   UNK N   1      22.557  14.193   4.802  0.00  0.00     0.007 A 
HETATM    5  C   UNK N   1      23.862  13.802   5.119  0.00  0.00     0.001 A 
HETATM    6  C   UNK N   1      24.261  12.476   4.929  0.00  0.00     0.000 A 
HETATM    7  C   UNK N   1      23.355  11.541   4.424  0.00  0.00     0.001 A 
HETATM    8  C   UNK N   1      22.051  11.933   4.101  0.00  0.00     0.007 A 
ENDBRANCH   2   3
ENDBRANCH   1   2
BRANCH   1   9
HETATM    9  C   UNK N   1      19.280  15.983   4.168  0.00  0.00     0.135 C 
HETATM   10  N   UNK N   1      19.685  17.198   4.357  0.00  0.00    -0.360 N 
ATOM     11  HN  UNK N   1      19.135  17.764   5.005  1.00  0.00     0.162 HD
BRANCH  10  12
HETATM   12  C   UNK N   1      20.837  17.847   3.749  0.00  0.00     0.167 C 
BRANCH  12  13
HETATM   13  C   UNK N   1      21.948  18.003   4.800  0.00  0.00     0.143 C 
BRANCH  13  14
HETATM   14  C   UNK N   1      21.514  17.911   6.238  0.00  0.00     0.141 C 
HETATM   15  O   UNK N   1      21.054  18.878   6.824  0.00  0.00    -0.650 OA
BRANCH  14  16
HETATM   16  O   UNK N   1      21.663  16.746   6.894  0.00  0.00    -0.776 OA
HETATM   17  H   UNK N   1      21.818  15.828   6.792  0.00  0.00     0.167 HD
ENDBRANCH  14  16
ENDBRANCH  13  14
ENDBRANCH  12  13
BRANCH  12  18
HETATM   18  C   UNK N   1      20.404  19.206   3.238  0.00  0.00     0.133 C 
HETATM   19  N   UNK N   1      19.849  19.322   2.086  0.00  0.00    -0.382 N 
HETATM   20  H   UNK N   1      19.569  20.191   1.718  0.00  0.00     0.158 HD
ATOM     21  HN  UNK N   1      19.692  18.480   1.531  1.00  0.00     0.158 HD
BRANCH  18  22
HETATM   22  O   UNK N   1      20.583  20.308   3.993  0.00  0.00    -0.348 OA
HETATM   23  H   UNK N   1      21.150  20.278   4.739  0.00  0.00     0.219 HD
ENDBRANCH  18  22
ENDBRANCH  12  18
ENDBRANCH  10  12
BRANCH   9  24
HETATM   24  O   UNK N   1      18.201  15.566   4.863  0.00  0.00    -0.348 OA
HETATM   25  H   UNK N   1      17.339  15.866   4.649  0.00  0.00     0.219 HD
ENDBRANCH   9  24
ENDBRANCH   1   9
BRANCH   1  26
HETATM   26  N   UNK N   1      19.208  14.843   1.976  0.00  0.00    -0.397 N 
HETATM   27  H   UNK N   1      18.231  14.551   1.972  0.00  0.00     0.154 HD
BRANCH  26  28
HETATM   28  C   UNK N   1      19.951  15.138   0.733  0.00  0.00     0.176 C 
BRANCH  28  29
HETATM   29  C   UNK N   1      21.441  14.940   1.056  0.00  0.00     0.040 C 
BRANCH  29  30
HETATM   30  C   UNK N   1      22.114  13.650   0.564  0.00  0.00     0.041 C 
BRANCH  30  31
HETATM   31  C   UNK N   1      23.543  13.448   0.958  0.00  0.00    -0.058 A 
HETATM   32  C   UNK N   1      24.266  14.528   1.478  0.00  0.00     0.007 A 
HETATM   33  C   UNK N   1      25.577  14.347   1.929  0.00  0.00     0.001 A 
HETATM   34  C   UNK N   1      26.170  13.082   1.862  0.00  0.00     0.000 A 
HETATM   35  C   UNK N   1      25.450  12.000   1.348  0.00  0.00     0.001 A 
HETATM   36  C   UNK N   1      24.135  12.181   0.905  0.00  0.00     0.007 A 
ENDBRANCH  30  31
ENDBRANCH  29  30
ENDBRANCH  28  29
BRANCH  28  37
HETATM   37  C   UNK N   1      19.629  16.543   0.262  0.00  0.00     0.163 C 
HETATM   38  O   UNK N   1      20.525  17.273  -0.129  0.00  0.00    -0.648 OA
BRANCH  37  39
HETATM   39  O   UNK N   1      18.366  17.011   0.284  0.00  0.00    -0.775 OA
HETATM   40  H   UNK N   1      17.471  16.735   0.287  0.00  0.00     0.167 HD
ENDBRANCH  37  39
ENDBRANCH  28  37
ENDBRANCH  26  28
ENDBRANCH   1  26
TORSDOF 17
ENDMDL
MODEL 4
REMARK VINA RESULT:      -6.4     13.344     15.872
REMARK  17 active torsions:
REMARK  status: ('A' for Active; 'I' for Inactive)
REMARK    1  A    between atoms: C_12  and  C_11 
REMARK    2  A    between atoms: C_15  and  C_11 
REMARK    3  A    between atoms: C_17  and  C_12 
REMARK    4  A    between atoms: C_16  and  C_13 
REMARK    5  A    between atoms: C_19  and  C_13 
REMARK    6  A    between atoms: C_18  and  C_14 
REMARK    7  A    between atoms: C_20  and  C_14 
REMARK    8  A    between atoms: C_23  and  C_17 
REMARK    9  A    between atoms: C_17  and  N_26 
REMARK   10  A    between atoms: C_21  and  C_18 
REMARK   11  A    between atoms: C_18  and  N_27 
REMARK   12  A    between atoms: C_22  and  C_19 
REMARK   13  A    between atoms: C_19  and  N_26 
REMARK   14  A    between atoms: O_30  and  C_20 
REMARK   15  A    between atoms: O_31  and  C_21 
REMARK   16  A    between atoms: C_22  and  O_32 
REMARK   17  A    between atoms: O_34  and  C_23 
ROOT
HETATM    1  C   UNK N   1      31.869  16.560   8.442  0.00  0.00     0.156 C 
ENDROOT
BRANCH   1   2
HETATM    2  C   UNK N   1      31.412  15.703   7.244  0.00  0.00     0.071 C 
BRANCH   2   3
HETATM    3  C   UNK N   1      31.986  15.987   5.875  0.00  0.00    -0.056 A 
HETATM    4  C   UNK N   1      32.203  17.292   5.400  0.00  0.00     0.007 A 
HETATM    5  C   UNK N   1      32.702  17.499   4.110  0.00  0.00     0.001 A 
HETATM    6  C   UNK N   1      32.994  16.407   3.288  0.00  0.00     0.000 A 
HETATM    7  C   UNK N   1      32.789  15.108   3.757  0.00  0.00     0.001 A 
HETATM    8  C   UNK N   1      32.285  14.900   5.045  0.00  0.00     0.007 A 
ENDBRANCH   2   3
ENDBRANCH   1   2
BRANCH   1   9
HETATM    9  C   UNK N   1      32.253  15.703   9.653  0.00  0.00     0.135 C 
HETATM   10  N   UNK N   1      33.477  15.408   9.954  0.00  0.00    -0.360 N 
ATOM     11  HN  UNK N   1      33.613  14.836  10.789  1.00  0.00     0.162 HD
BRANCH  10  12
HETATM   12  C   UNK N   1      34.679  15.800   9.236  0.00  0.00     0.167 C 
BRANCH  12  13
HETATM   13  C   UNK N   1      35.248  14.582   8.489  0.00  0.00     0.143 C 
BRANCH  13  14
HETATM   14  C   UNK N   1      35.405  14.735   7.000  0.00  0.00     0.141 C 
HETATM   15  O   UNK N   1      35.624  13.771   6.284  0.00  0.00    -0.650 OA
BRANCH  14  16
HETATM   16  O   UNK N   1      35.329  15.963   6.456  0.00  0.00    -0.776 OA
HETATM   17  H   UNK N   1      34.743  16.615   6.125  0.00  0.00     0.167 HD
ENDBRANCH  14  16
ENDBRANCH  13  14
ENDBRANCH  12  13
BRANCH  12  18
HETATM   18  C   UNK N   1      35.689  16.316  10.240  0.00  0.00     0.133 C 
HETATM   19  N   UNK N   1      36.469  15.503  10.855  0.00  0.00    -0.382 N 
HETATM   20  H   UNK N   1      37.127  15.803  11.524  0.00  0.00     0.158 HD
ATOM     21  HN  UNK N   1      36.406  14.507  10.641  1.00  0.00     0.158 HD
BRANCH  18  22
HETATM   22  O   UNK N   1      35.790  17.637  10.490  0.00  0.00    -0.348 OA
HETATM   23  H   UNK N   1      35.532  17.977  11.324  0.00  0.00     0.219 HD
ENDBRANCH  18  22
ENDBRANCH  12  18
ENDBRANCH  10  12
BRANCH   9  24
HETATM   24  O   UNK N   1      31.275  15.205  10.439  0.00  0.00    -0.348 OA
HETATM   25  H   UNK N   1      30.393  15.134  10.132  0.00  0.00     0.219 HD
ENDBRANCH   9  24
ENDBRANCH   1   9
BRANCH   1  26
HETATM   26  N   UNK N   1      30.832  17.541   8.809  0.00  0.00    -0.397 N 
HETATM   27  H   UNK N   1      31.044  18.390   9.334  0.00  0.00     0.154 HD
BRANCH  26  28
HETATM   28  C   UNK N   1      29.464  17.207   8.363  0.00  0.00     0.176 C 
BRANCH  28  29
HETATM   29  C   UNK N   1      29.144  18.143   7.187  0.00  0.00     0.040 C 
BRANCH  29  30
HETATM   30  C   UNK N   1      28.009  17.737   6.236  0.00  0.00     0.041 C 
BRANCH  30  31
HETATM   31  C   UNK N   1      28.354  16.756   5.161  0.00  0.00    -0.058 A 
HETATM   32  C   UNK N   1      28.855  17.229   3.942  0.00  0.00     0.007 A 
HETATM   33  C   UNK N   1      29.262  16.330   2.951  0.00  0.00     0.001 A 
HETATM   34  C   UNK N   1      29.171  14.953   3.177  0.00  0.00     0.000 A 
HETATM   35  C   UNK N   1      28.676  14.477   4.394  0.00  0.00     0.001 A 
HETATM   36  C   UNK N   1      28.278  15.377   5.389  0.00  0.00     0.007 A 
ENDBRANCH  30  31
ENDBRANCH  29  30
ENDBRANCH  28  29
BRANCH  28  37
HETATM   37  C   UNK N   1      28.495  17.357   9.520  0.00  0.00     0.163 C 
HETATM   38  O   UNK N   1      28.637  16.678  10.524  0.00  0.00    -0.648 OA
BRANCH  37  39
HETATM   39  O   UNK N   1      27.461  18.219   9.454  0.00  0.00    -0.775 OA
HETATM   40  H   UNK N   1      26.528  18.255   9.384  0.00  0.00     0.167 HD
ENDBRANCH  37  39
ENDBRANCH  28  37
ENDBRANCH  26  28
ENDBRANCH   1  26
TORSDOF 17
ENDMDL
MODEL 5
REMARK VINA RESULT:      -6.3     11.519     14.653
REMARK  17 active torsions:
REMARK  status: ('A' for Active; 'I' for Inactive)
REMARK    1  A    between atoms: C_12  and  C_11 
REMARK    2  A    between atoms: C_15  and  C_11 
REMARK    3  A    between atoms: C_17  and  C_12 
REMARK    4  A    between atoms: C_16  and  C_13 
REMARK    5  A    between atoms: C_19  and  C_13 
REMARK    6  A    between atoms: C_18  and  C_14 
REMARK    7  A    between atoms: C_20  and  C_14 
REMARK    8  A    between atoms: C_23  and  C_17 
REMARK    9  A    between atoms: C_17  and  N_26 
REMARK   10  A    between atoms: C_21  and  C_18 
REMARK   11  A    between atoms: C_18  and  N_27 
REMARK   12  A    between atoms: C_22  and  C_19 
REMARK   13  A    between atoms: C_19  and  N_26 
REMARK   14  A    between atoms: O_30  and  C_20 
REMARK   15  A    between atoms: O_31  and  C_21 
REMARK   16  A    between atoms: C_22  and  O_32 
REMARK   17  A    between atoms: O_34  and  C_23 
ROOT
HETATM    1  C   UNK N   1      23.347  17.790   4.750  0.00  0.00     0.156 C 
ENDROOT
BRANCH   1   2
HETATM    2  C   UNK N   1      24.179  16.867   3.834  0.00  0.00     0.071 C 
BRANCH   2   3
HETATM    3  C   UNK N   1      25.318  16.074   4.431  0.00  0.00    -0.056 A 
HETATM    4  C   UNK N   1      25.389  15.760   5.799  0.00  0.00     0.007 A 
HETATM    5  C   UNK N   1      26.487  15.056   6.306  0.00  0.00     0.001 A 
HETATM    6  C   UNK N   1      27.516  14.655   5.451  0.00  0.00     0.000 A 
HETATM    7  C   UNK N   1      27.449  14.956   4.089  0.00  0.00     0.001 A 
HETATM    8  C   UNK N   1      26.354  15.665   3.583  0.00  0.00     0.007 A 
ENDBRANCH   2   3
ENDBRANCH   1   2
BRANCH   1   9
HETATM    9  C   UNK N   1      21.886  17.888   4.298  0.00  0.00     0.135 C 
HETATM   10  N   UNK N   1      20.903  17.364   4.957  0.00  0.00    -0.360 N 
ATOM     11  HN  UNK N   1      19.970  17.500   4.564  1.00  0.00     0.162 HD
BRANCH  10  12
HETATM   12  C   UNK N   1      20.979  16.605   6.195  0.00  0.00     0.167 C 
BRANCH  12  13
HETATM   13  C   UNK N   1      20.086  15.357   6.084  0.00  0.00     0.143 C 
BRANCH  13  14
HETATM   14  C   UNK N   1      18.821  15.520   5.286  0.00  0.00     0.141 C 
HETATM   15  O   UNK N   1      17.783  15.887   5.813  0.00  0.00    -0.650 OA
BRANCH  14  16
HETATM   16  O   UNK N   1      18.832  15.228   3.973  0.00  0.00    -0.776 OA
HETATM   17  H   UNK N   1      18.296  15.009   3.236  0.00  0.00     0.167 HD
ENDBRANCH  14  16
ENDBRANCH  13  14
ENDBRANCH  12  13
BRANCH  12  18
HETATM   18  C   UNK N   1      20.502  17.490   7.328  0.00  0.00     0.133 C 
HETATM   19  N   UNK N   1      19.764  17.009   8.263  0.00  0.00    -0.382 N 
HETATM   20  H   UNK N   1      19.425  17.559   9.006  0.00  0.00     0.158 HD
ATOM     21  HN  UNK N   1      19.521  16.019   8.235  1.00  0.00     0.158 HD
BRANCH  18  22
HETATM   22  O   UNK N   1      20.859  18.788   7.377  0.00  0.00    -0.348 OA
HETATM   23  H   UNK N   1      20.273  19.447   7.062  0.00  0.00     0.219 HD
ENDBRANCH  18  22
ENDBRANCH  12  18
ENDBRANCH  10  12
BRANCH   9  24
HETATM   24  O   UNK N   1      21.598  18.528   3.144  0.00  0.00    -0.348 OA
HETATM   25  H   UNK N   1      21.955  19.374   2.956  0.00  0.00     0.219 HD
ENDBRANCH   9  24
ENDBRANCH   1   9
BRANCH   1  26
HETATM   26  N   UNK N   1      23.955  19.130   4.831  0.00  0.00    -0.397 N 
HETATM   27  H   UNK N   1      23.702  19.802   5.556  0.00  0.00     0.154 HD
BRANCH  26  28
HETATM   28  C   UNK N   1      24.958  19.431   3.789  0.00  0.00     0.176 C 
BRANCH  28  29
HETATM   29  C   UNK N   1      26.234  19.873   4.522  0.00  0.00     0.040 C 
BRANCH  29  30
HETATM   30  C   UNK N   1      27.557  19.202   4.124  0.00  0.00     0.041 C 
BRANCH  30  31
HETATM   31  C   UNK N   1      28.286  18.466   5.204  0.00  0.00    -0.058 A 
HETATM   32  C   UNK N   1      29.488  17.819   4.896  0.00  0.00     0.007 A 
HETATM   33  C   UNK N   1      30.230  17.193   5.903  0.00  0.00     0.001 A 
HETATM   34  C   UNK N   1      29.771  17.215   7.224  0.00  0.00     0.000 A 
HETATM   35  C   UNK N   1      28.574  17.864   7.537  0.00  0.00     0.001 A 
HETATM   36  C   UNK N   1      27.837  18.498   6.529  0.00  0.00     0.007 A 
ENDBRANCH  30  31
ENDBRANCH  29  30
ENDBRANCH  28  29
BRANCH  28  37
HETATM   37  C   UNK N   1      24.419  20.490   2.847  0.00  0.00     0.163 C 
HETATM   38  O   UNK N   1      25.108  20.889   1.923  0.00  0.00    -0.648 OA
BRANCH  37  39
HETATM   39  O   UNK N   1      23.191  21.017   3.022  0.00  0.00    -0.775 OA
HETATM   40  H   UNK N   1      22.748  21.770   3.358  0.00  0.00     0.167 HD
ENDBRANCH  37  39
ENDBRANCH  28  37
ENDBRANCH  26  28
ENDBRANCH   1  26
TORSDOF 17
ENDMDL
MODEL 6
REMARK VINA RESULT:      -6.2     11.831     14.264
REMARK  17 active torsions:
REMARK  status: ('A' for Active; 'I' for Inactive)
REMARK    1  A    between atoms: C_12  and  C_11 
REMARK    2  A    between atoms: C_15  and  C_11 
REMARK    3  A    between atoms: C_17  and  C_12 
REMARK    4  A    between atoms: C_16  and  C_13 
REMARK    5  A    between atoms: C_19  and  C_13 
REMARK    6  A    between atoms: C_18  and  C_14 
REMARK    7  A    between atoms: C_20  and  C_14 
REMARK    8  A    between atoms: C_23  and  C_17 
REMARK    9  A    between atoms: C_17  and  N_26 
REMARK   10  A    between atoms: C_21  and  C_18 
REMARK   11  A    between atoms: C_18  and  N_27 
REMARK   12  A    between atoms: C_22  and  C_19 
REMARK   13  A    between atoms: C_19  and  N_26 
REMARK   14  A    between atoms: O_30  and  C_20 
REMARK   15  A    between atoms: O_31  and  C_21 
REMARK   16  A    between atoms: C_22  and  O_32 
REMARK   17  A    between atoms: O_34  and  C_23 
ROOT
HETATM    1  C   UNK N   1      21.914  17.853   4.605  0.00  0.00     0.156 C 
ENDROOT
BRANCH   1   2
HETATM    2  C   UNK N   1      22.841  17.075   3.646  0.00  0.00     0.071 C 
BRANCH   2   3
HETATM    3  C   UNK N   1      24.269  16.808   4.062  0.00  0.00    -0.056 A 
HETATM    4  C   UNK N   1      24.699  16.889   5.397  0.00  0.00     0.007 A 
HETATM    5  C   UNK N   1      26.042  16.670   5.722  0.00  0.00     0.001 A 
HETATM    6  C   UNK N   1      26.963  16.361   4.717  0.00  0.00     0.000 A 
HETATM    7  C   UNK N   1      26.542  16.270   3.389  0.00  0.00     0.001 A 
HETATM    8  C   UNK N   1      25.200  16.495   3.063  0.00  0.00     0.007 A 
ENDBRANCH   2   3
ENDBRANCH   1   2
BRANCH   1   9
HETATM    9  C   UNK N   1      20.566  17.151   4.800  0.00  0.00     0.135 C 
HETATM   10  N   UNK N   1      20.174  16.671   5.937  0.00  0.00    -0.360 N 
ATOM     11  HN  UNK N   1      19.253  16.232   5.950  1.00  0.00     0.162 HD
BRANCH  10  12
HETATM   12  C   UNK N   1      20.901  16.688   7.197  0.00  0.00     0.167 C 
BRANCH  12  13
HETATM   13  C   UNK N   1      21.694  15.378   7.346  0.00  0.00     0.143 C 
BRANCH  13  14
HETATM   14  C   UNK N   1      21.184  14.205   6.554  0.00  0.00     0.141 C 
HETATM   15  O   UNK N   1      20.245  13.534   6.950  0.00  0.00    -0.650 OA
BRANCH  14  16
HETATM   16  O   UNK N   1      21.796  13.877   5.401  0.00  0.00    -0.776 OA
HETATM   17  H   UNK N   1      22.613  13.633   5.014  0.00  0.00     0.167 HD
ENDBRANCH  14  16
ENDBRANCH  13  14
ENDBRANCH  12  13
BRANCH  12  18
HETATM   18  C   UNK N   1      19.899  16.824   8.325  0.00  0.00     0.133 C 
HETATM   19  N   UNK N   1      19.671  17.969   8.858  0.00  0.00    -0.382 N 
HETATM   20  H   UNK N   1      19.037  18.091   9.601  0.00  0.00     0.158 HD
ATOM     21  HN  UNK N   1      20.165  18.785   8.496  1.00  0.00     0.158 HD
BRANCH  18  22
HETATM   22  O   UNK N   1      19.223  15.747   8.771  0.00  0.00    -0.348 OA
HETATM   23  H   UNK N   1      19.674  15.071   9.239  0.00  0.00     0.219 HD
ENDBRANCH  18  22
ENDBRANCH  12  18
ENDBRANCH  10  12
BRANCH   9  24
HETATM   24  O   UNK N   1      19.747  16.999   3.738  0.00  0.00    -0.348 OA
HETATM   25  H   UNK N   1      20.080  16.996   2.863  0.00  0.00     0.219 HD
ENDBRANCH   9  24
ENDBRANCH   1   9
BRANCH   1  26
HETATM   26  N   UNK N   1      21.716  19.235   4.133  0.00  0.00    -0.397 N 
HETATM   27  H   UNK N   1      21.222  19.935   4.685  0.00  0.00     0.154 HD
BRANCH  26  28
HETATM   28  C   UNK N   1      22.285  19.533   2.802  0.00  0.00     0.176 C 
BRANCH  28  29
HETATM   29  C   UNK N   1      23.342  20.629   3.013  0.00  0.00     0.040 C 
BRANCH  29  30
HETATM   30  C   UNK N   1      24.797  20.299   2.648  0.00  0.00     0.041 C 
BRANCH  30  31
HETATM   31  C   UNK N   1      25.766  20.198   3.784  0.00  0.00    -0.058 A 
HETATM   32  C   UNK N   1      27.108  19.908   3.511  0.00  0.00     0.007 A 
HETATM   33  C   UNK N   1      28.049  19.888   4.546  0.00  0.00     0.001 A 
HETATM   34  C   UNK N   1      27.650  20.161   5.858  0.00  0.00     0.000 A 
HETATM   35  C   UNK N   1      26.312  20.456   6.134  0.00  0.00     0.001 A 
HETATM   36  C   UNK N   1      25.373  20.484   5.096  0.00  0.00     0.007 A 
ENDBRANCH  30  31
ENDBRANCH  29  30
ENDBRANCH  28  29
BRANCH  28  37
HETATM   37  C   UNK N   1      21.180  19.952   1.852  0.00  0.00     0.163 C 
HETATM   38  O   UNK N   1      21.445  20.629   0.872  0.00  0.00    -0.648 OA
BRANCH  37  39
HETATM   39  O   UNK N   1      19.898  19.603   2.080  0.00  0.00    -0.775 OA
HETATM   40  H   UNK N   1      19.353  18.868   2.279  0.00  0.00     0.167 HD
ENDBRANCH  37  39
ENDBRANCH  28  37
ENDBRANCH  26  28
ENDBRANCH   1  26
TORSDOF 17
ENDMDL
MODEL 7
REMARK VINA RESULT:      -6.2      1.275      1.791
REMARK  17 active torsions:
REMARK  status: ('A' for Active; 'I' for Inactive)
REMARK    1  A    between atoms: C_12  and  C_11 
REMARK    2  A    between atoms: C_15  and  C_11 
REMARK    3  A    between atoms: C_17  and  C_12 
REMARK    4  A    between atoms: C_16  and  C_13 
REMARK    5  A    between atoms: C_19  and  C_13 
REMARK    6  A    between atoms: C_18  and  C_14 
REMARK    7  A    between atoms: C_20  and  C_14 
REMARK    8  A    between atoms: C_23  and  C_17 
REMARK    9  A    between atoms: C_17  and  N_26 
REMARK   10  A    between atoms: C_21  and  C_18 
REMARK   11  A    between atoms: C_18  and  N_27 
REMARK   12  A    between atoms: C_22  and  C_19 
REMARK   13  A    between atoms: C_19  and  N_26 
REMARK   14  A    between atoms: O_30  and  C_20 
REMARK   15  A    between atoms: O_31  and  C_21 
REMARK   16  A    between atoms: C_22  and  O_32 
REMARK   17  A    between atoms: O_34  and  C_23 
ROOT
HETATM    1  C   UNK N   1      27.520  24.531  -4.822  0.00  0.00     0.156 C 
ENDROOT
BRANCH   1   2
HETATM    2  C   UNK N   1      26.216  23.950  -5.408  0.00  0.00     0.071 C 
BRANCH   2   3
HETATM    3  C   UNK N   1      26.299  22.956  -6.543  0.00  0.00    -0.056 A 
HETATM    4  C   UNK N   1      25.182  22.244  -7.011  0.00  0.00     0.007 A 
HETATM    5  C   UNK N   1      25.323  21.306  -8.040  0.00  0.00     0.001 A 
HETATM    6  C   UNK N   1      26.577  21.078  -8.612  0.00  0.00     0.000 A 
HETATM    7  C   UNK N   1      27.690  21.788  -8.158  0.00  0.00     0.001 A 
HETATM    8  C   UNK N   1      27.551  22.721  -7.125  0.00  0.00     0.007 A 
ENDBRANCH   2   3
ENDBRANCH   1   2
BRANCH   1   9
HETATM    9  C   UNK N   1      27.878  23.901  -3.472  0.00  0.00     0.135 C 
HETATM   10  N   UNK N   1      28.963  23.224  -3.270  0.00  0.00    -0.360 N 
ATOM     11  HN  UNK N   1      29.100  22.859  -2.327  1.00  0.00     0.162 HD
BRANCH  10  12
HETATM   12  C   UNK N   1      30.009  22.930  -4.237  0.00  0.00     0.167 C 
BRANCH  12  13
HETATM   13  C   UNK N   1      29.810  21.507  -4.785  0.00  0.00     0.143 C 
BRANCH  13  14
HETATM   14  C   UNK N   1      30.808  21.050  -5.814  0.00  0.00     0.141 C 
HETATM   15  O   UNK N   1      31.287  19.928  -5.779  0.00  0.00    -0.650 OA
BRANCH  14  16
HETATM   16  O   UNK N   1      31.199  21.908  -6.774  0.00  0.00    -0.776 OA
HETATM   17  H   UNK N   1      31.779  22.616  -6.974  0.00  0.00     0.167 HD
ENDBRANCH  14  16
ENDBRANCH  13  14
ENDBRANCH  12  13
BRANCH  12  18
HETATM   18  C   UNK N   1      31.349  23.038  -3.539  0.00  0.00     0.133 C 
HETATM   19  N   UNK N   1      32.352  23.576  -4.134  0.00  0.00    -0.382 N 
HETATM   20  H   UNK N   1      33.239  23.650  -3.715  0.00  0.00     0.158 HD
ATOM     21  HN  UNK N   1      32.222  23.941  -5.078  1.00  0.00     0.158 HD
BRANCH  18  22
HETATM   22  O   UNK N   1      31.501  22.586  -2.278  0.00  0.00    -0.348 OA
HETATM   23  H   UNK N   1      31.132  23.064  -1.561  0.00  0.00     0.219 HD
ENDBRANCH  18  22
ENDBRANCH  12  18
ENDBRANCH  10  12
BRANCH   9  24
HETATM   24  O   UNK N   1      27.017  24.029  -2.441  0.00  0.00    -0.348 OA
HETATM   25  H   UNK N   1      27.088  24.739  -1.833  0.00  0.00     0.219 HD
ENDBRANCH   9  24
ENDBRANCH   1   9
BRANCH   1  26
HETATM   26  N   UNK N   1      27.432  25.997  -4.703  0.00  0.00    -0.397 N 
HETATM   27  H   UNK N   1      28.259  26.592  -4.652  0.00  0.00     0.154 HD
BRANCH  26  28
HETATM   28  C   UNK N   1      26.060  26.544  -4.662  0.00  0.00     0.176 C 
BRANCH  28  29
HETATM   29  C   UNK N   1      25.888  27.393  -5.931  0.00  0.00     0.040 C 
BRANCH  29  30
HETATM   30  C   UNK N   1      27.035  27.393  -6.953  0.00  0.00     0.041 C 
BRANCH  30  31
HETATM   31  C   UNK N   1      26.881  26.486  -8.132  0.00  0.00    -0.058 A 
HETATM   32  C   UNK N   1      28.025  26.061  -8.819  0.00  0.00     0.007 A 
HETATM   33  C   UNK N   1      27.916  25.149  -9.874  0.00  0.00     0.001 A 
HETATM   34  C   UNK N   1      26.661  24.657 -10.244  0.00  0.00     0.000 A 
HETATM   35  C   UNK N   1      25.517  25.074  -9.558  0.00  0.00     0.001 A 
HETATM   36  C   UNK N   1      25.628  25.980  -8.497  0.00  0.00     0.007 A 
ENDBRANCH  30  31
ENDBRANCH  29  30
ENDBRANCH  28  29
BRANCH  28  37
HETATM   37  C   UNK N   1      25.861  27.339  -3.386  0.00  0.00     0.163 C 
HETATM   38  O   UNK N   1      26.101  26.825  -2.306  0.00  0.00    -0.648 OA
BRANCH  37  39
HETATM   39  O   UNK N   1      25.404  28.606  -3.421  0.00  0.00    -0.775 OA
HETATM   40  H   UNK N   1      25.222  29.314  -4.006  0.00  0.00     0.167 HD
ENDBRANCH  37  39
ENDBRANCH  28  37
ENDBRANCH  26  28
ENDBRANCH   1  26
TORSDOF 17
ENDMDL
MODEL 8
REMARK VINA RESULT:      -6.2     11.990     14.543
REMARK  17 active torsions:
REMARK  status: ('A' for Active; 'I' for Inactive)
REMARK    1  A    between atoms: C_12  and  C_11 
REMARK    2  A    between atoms: C_15  and  C_11 
REMARK    3  A    between atoms: C_17  and  C_12 
REMARK    4  A    between atoms: C_16  and  C_13 
REMARK    5  A    between atoms: C_19  and  C_13 
REMARK    6  A    between atoms: C_18  and  C_14 
REMARK    7  A    between atoms: C_20  and  C_14 
REMARK    8  A    between atoms: C_23  and  C_17 
REMARK    9  A    between atoms: C_17  and  N_26 
REMARK   10  A    between atoms: C_21  and  C_18 
REMARK   11  A    between atoms: C_18  and  N_27 
REMARK   12  A    between atoms: C_22  and  C_19 
REMARK   13  A    between atoms: C_19  and  N_26 
REMARK   14  A    between atoms: O_30  and  C_20 
REMARK   15  A    between atoms: O_31  and  C_21 
REMARK   16  A    between atoms: C_22  and  O_32 
REMARK   17  A    between atoms: O_34  and  C_23 
ROOT
HETATM    1  C   UNK N   1      22.510  17.614   5.206  0.00  0.00     0.156 C 
ENDROOT
BRANCH   1   2
HETATM    2  C   UNK N   1      23.426  16.388   5.405  0.00  0.00     0.071 C 
BRANCH   2   3
HETATM    3  C   UNK N   1      24.816  16.405   4.812  0.00  0.00    -0.056 A 
HETATM    4  C   UNK N   1      25.973  16.562   5.594  0.00  0.00     0.007 A 
HETATM    5  C   UNK N   1      27.233  16.609   4.989  0.00  0.00     0.001 A 
HETATM    6  C   UNK N   1      27.348  16.493   3.601  0.00  0.00     0.000 A 
HETATM    7  C   UNK N   1      26.203  16.329   2.818  0.00  0.00     0.001 A 
HETATM    8  C   UNK N   1      24.942  16.287   3.422  0.00  0.00     0.007 A 
ENDBRANCH   2   3
ENDBRANCH   1   2
BRANCH   1   9
HETATM    9  C   UNK N   1      21.429  17.708   6.288  0.00  0.00     0.135 C 
HETATM   10  N   UNK N   1      20.822  16.674   6.776  0.00  0.00    -0.360 N 
ATOM     11  HN  UNK N   1      20.125  16.858   7.500  1.00  0.00     0.162 HD
BRANCH  10  12
HETATM   12  C   UNK N   1      21.024  15.281   6.411  0.00  0.00     0.167 C 
BRANCH  12  13
HETATM   13  C   UNK N   1      19.856  14.811   5.527  0.00  0.00     0.143 C 
BRANCH  13  14
HETATM   14  C   UNK N   1      18.784  15.831   5.254  0.00  0.00     0.141 C 
HETATM   15  O   UNK N   1      17.808  15.935   5.979  0.00  0.00    -0.650 OA
BRANCH  14  16
HETATM   16  O   UNK N   1      18.894  16.624   4.172  0.00  0.00    -0.776 OA
HETATM   17  H   UNK N   1      18.419  17.040   3.480  0.00  0.00     0.167 HD
ENDBRANCH  14  16
ENDBRANCH  13  14
ENDBRANCH  12  13
BRANCH  12  18
HETATM   18  C   UNK N   1      21.083  14.458   7.681  0.00  0.00     0.133 C 
HETATM   19  N   UNK N   1      22.214  14.141   8.199  0.00  0.00    -0.382 N 
HETATM   20  H   UNK N   1      22.289  13.596   9.016  0.00  0.00     0.158 HD
ATOM     21  HN  UNK N   1      23.069  14.469   7.748  1.00  0.00     0.158 HD
BRANCH  18  22
HETATM   22  O   UNK N   1      19.949  14.060   8.291  0.00  0.00    -0.348 OA
HETATM   23  H   UNK N   1      19.149  14.524   8.141  0.00  0.00     0.219 HD
ENDBRANCH  18  22
ENDBRANCH  12  18
ENDBRANCH  10  12
BRANCH   9  24
HETATM   24  O   UNK N   1      21.064  18.925   6.746  0.00  0.00    -0.348 OA
HETATM   25  H   UNK N   1      21.666  19.467   7.218  0.00  0.00     0.219 HD
ENDBRANCH   9  24
ENDBRANCH   1   9
BRANCH   1  26
HETATM   26  N   UNK N   1      21.902  17.600   3.864  0.00  0.00    -0.397 N 
HETATM   27  H   UNK N   1      21.500  16.757   3.455  0.00  0.00     0.154 HD
BRANCH  26  28
HETATM   28  C   UNK N   1      21.916  18.896   3.153  0.00  0.00     0.176 C 
BRANCH  28  29
HETATM   29  C   UNK N   1      22.994  19.756   3.832  0.00  0.00     0.040 C 
BRANCH  29  30
HETATM   30  C   UNK N   1      24.341  19.916   3.112  0.00  0.00     0.041 C 
BRANCH  30  31
HETATM   31  C   UNK N   1      25.559  19.990   3.977  0.00  0.00    -0.058 A 
HETATM   32  C   UNK N   1      26.822  20.026   3.375  0.00  0.00     0.007 A 
HETATM   33  C   UNK N   1      27.972  20.177   4.158  0.00  0.00     0.001 A 
HETATM   34  C   UNK N   1      27.861  20.294   5.547  0.00  0.00     0.000 A 
HETATM   35  C   UNK N   1      26.601  20.264   6.151  0.00  0.00     0.001 A 
HETATM   36  C   UNK N   1      25.451  20.122   5.367  0.00  0.00     0.007 A 
ENDBRANCH  30  31
ENDBRANCH  29  30
ENDBRANCH  28  29
BRANCH  28  37
HETATM   37  C   UNK N   1      20.538  19.525   3.203  0.00  0.00     0.163 C 
HETATM   38  O   UNK N   1      20.322  20.456   3.963  0.00  0.00    -0.648 OA
BRANCH  37  39
HETATM   39  O   UNK N   1      19.534  19.063   2.433  0.00  0.00    -0.775 OA
HETATM   40  H   UNK N   1      18.698  19.298   2.083  0.00  0.00     0.167 HD
ENDBRANCH  37  39
ENDBRANCH  28  37
ENDBRANCH  26  28
ENDBRANCH   1  26
TORSDOF 17
ENDMDL
MODEL 9
REMARK VINA RESULT:      -6.1     12.428     14.952
REMARK  17 active torsions:
REMARK  status: ('A' for Active; 'I' for Inactive)
REMARK    1  A    between atoms: C_12  and  C_11 
REMARK    2  A    between atoms: C_15  and  C_11 
REMARK    3  A    between atoms: C_17  and  C_12 
REMARK    4  A    between atoms: C_16  and  C_13 
REMARK    5  A    between atoms: C_19  and  C_13 
REMARK    6  A    between atoms: C_18  and  C_14 
REMARK    7  A    between atoms: C_20  and  C_14 
REMARK    8  A    between atoms: C_23  and  C_17 
REMARK    9  A    between atoms: C_17  and  N_26 
REMARK   10  A    between atoms: C_21  and  C_18 
REMARK   11  A    between atoms: C_18  and  N_27 
REMARK   12  A    between atoms: C_22  and  C_19 
REMARK   13  A    between atoms: C_19  and  N_26 
REMARK   14  A    between atoms: O_30  and  C_20 
REMARK   15  A    between atoms: O_31  and  C_21 
REMARK   16  A    between atoms: C_22  and  O_32 
REMARK   17  A    between atoms: O_34  and  C_23 
ROOT
HETATM    1  C   UNK N   1      22.682  16.685   5.476  0.00  0.00     0.156 C 
ENDROOT
BRANCH   1   2
HETATM    2  C   UNK N   1      24.165  17.027   5.216  0.00  0.00     0.071 C 
BRANCH   2   3
HETATM    3  C   UNK N   1      24.998  16.087   4.375  0.00  0.00    -0.056 A 
HETATM    4  C   UNK N   1      25.597  14.929   4.899  0.00  0.00     0.007 A 
HETATM    5  C   UNK N   1      26.390  14.115   4.084  0.00  0.00     0.001 A 
HETATM    6  C   UNK N   1      26.584  14.446   2.740  0.00  0.00     0.000 A 
HETATM    7  C   UNK N   1      25.985  15.590   2.211  0.00  0.00     0.001 A 
HETATM    8  C   UNK N   1      25.196  16.408   3.027  0.00  0.00     0.007 A 
ENDBRANCH   2   3
ENDBRANCH   1   2
BRANCH   1   9
HETATM    9  C   UNK N   1      21.830  17.940   5.692  0.00  0.00     0.135 C 
HETATM   10  N   UNK N   1      21.140  18.500   4.750  0.00  0.00    -0.360 N 
ATOM     11  HN  UNK N   1      20.602  19.327   5.012  1.00  0.00     0.162 HD
BRANCH  10  12
HETATM   12  C   UNK N   1      21.044  18.080   3.360  0.00  0.00     0.167 C 
BRANCH  12  13
HETATM   13  C   UNK N   1      21.372  19.271   2.445  0.00  0.00     0.143 C 
BRANCH  13  14
HETATM   14  C   UNK N   1      21.170  20.638   3.041  0.00  0.00     0.141 C 
HETATM   15  O   UNK N   1      20.174  20.903   3.693  0.00  0.00    -0.650 OA
BRANCH  14  16
HETATM   16  O   UNK N   1      22.096  21.590   2.827  0.00  0.00    -0.776 OA
HETATM   17  H   UNK N   1      22.231  22.510   2.708  0.00  0.00     0.167 HD
ENDBRANCH  14  16
ENDBRANCH  13  14
ENDBRANCH  12  13
BRANCH  12  18
HETATM   18  C   UNK N   1      19.632  17.596   3.104  0.00  0.00     0.133 C 
HETATM   19  N   UNK N   1      18.818  18.304   2.408  0.00  0.00    -0.382 N 
HETATM   20  H   UNK N   1      17.890  18.026   2.234  0.00  0.00     0.158 HD
ATOM     21  HN  UNK N   1      19.146  19.189   2.020  1.00  0.00     0.158 HD
BRANCH  18  22
HETATM   22  O   UNK N   1      19.219  16.409   3.589  0.00  0.00    -0.348 OA
HETATM   23  H   UNK N   1      18.466  16.367   4.146  0.00  0.00     0.219 HD
ENDBRANCH  18  22
ENDBRANCH  12  18
ENDBRANCH  10  12
BRANCH   9  24
HETATM   24  O   UNK N   1      21.806  18.514   6.913  0.00  0.00    -0.348 OA
HETATM   25  H   UNK N   1      21.120  19.103   7.161  0.00  0.00     0.219 HD
ENDBRANCH   9  24
ENDBRANCH   1   9
BRANCH   1  26
HETATM   26  N   UNK N   1      22.550  15.766   6.621  0.00  0.00    -0.397 N 
HETATM   27  H   UNK N   1      23.008  15.938   7.516  0.00  0.00     0.154 HD
BRANCH  26  28
HETATM   28  C   UNK N   1      21.708  14.576   6.379  0.00  0.00     0.176 C 
BRANCH  28  29
HETATM   29  C   UNK N   1      21.707  14.341   4.860  0.00  0.00     0.040 C 
BRANCH  29  30
HETATM   30  C   UNK N   1      22.460  13.114   4.325  0.00  0.00     0.041 C 
BRANCH  30  31
HETATM   31  C   UNK N   1      22.921  13.177   2.904  0.00  0.00    -0.058 A 
HETATM   32  C   UNK N   1      23.717  12.142   2.398  0.00  0.00     0.007 A 
HETATM   33  C   UNK N   1      24.093  12.136   1.051  0.00  0.00     0.001 A 
HETATM   34  C   UNK N   1      23.674  13.167   0.204  0.00  0.00     0.000 A 
HETATM   35  C   UNK N   1      22.875  14.199   0.704  0.00  0.00     0.001 A 
HETATM   36  C   UNK N   1      22.491  14.199   2.050  0.00  0.00     0.007 A 
ENDBRANCH  30  31
ENDBRANCH  29  30
ENDBRANCH  28  29
BRANCH  28  37
HETATM   37  C   UNK N   1      20.319  14.806   6.942  0.00  0.00     0.163 C 
HETATM   38  O   UNK N   1      19.414  15.160   6.204  0.00  0.00    -0.648 OA
BRANCH  37  39
HETATM   39  O   UNK N   1      20.066  14.644   8.256  0.00  0.00    -0.775 OA
HETATM   40  H   UNK N   1      19.700  15.079   9.001  0.00  0.00     0.167 HD
ENDBRANCH  37  39
ENDBRANCH  28  37
ENDBRANCH  26  28
ENDBRANCH   1  26
TORSDOF 17
ENDMDL
