REMARK  6 active torsions:
REMARK  status: ('A' for Active; 'I' for Inactive)
REMARK       I    between atoms: N_1  and  C_2 
REMARK    1  A    between atoms: C_9  and  C_16 
REMARK    2  A    between atoms: C_16  and  O_17 
REMARK    3  A    between atoms: C_16  and  C_18 
REMARK    4  A    between atoms: C_18  and  O_19 
REMARK    5  A    between atoms: C_18  and  C_20 
REMARK    6  A    between atoms: C_20  and  O_21 
ROOT
HETATM    1  N   UNK N   1      -2.129   0.535  -0.173  0.00  0.00    -0.234 N 
HETATM    2  C   UNK N   1      -0.868  -0.090  -0.115  0.00  0.00     0.680 A 
HETATM    3  N   UNK N   1       0.256   0.665   0.013  0.00  0.00    -0.174 N 
ATOM      4  HN  UNK N   1       0.178   1.681   0.056  1.00  0.00     0.186 HD
HETATM    5  C   UNK N   1       1.481   0.082   0.084  0.00  0.00     0.153 A 
HETATM    6  N   UNK N   1       2.593   0.843   0.237  0.00  0.00    -0.348 N 
ATOM      7  HN  UNK N   1       2.508   1.859   0.270  1.00  0.00     0.167 HD
HETATM    8  C   UNK N   1       3.820   0.268   0.347  0.00  0.00     0.117 A 
HETATM    9  C   UNK N   1       3.951  -1.126   0.273  0.00  0.00     0.057 A 
HETATM   10  N   UNK N   1       2.832  -1.890   0.110  0.00  0.00    -0.349 N 
ATOM     11  HN  UNK N   1       2.919  -2.905   0.054  1.00  0.00     0.166 HD
HETATM   12  C   UNK N   1       1.600  -1.315   0.021  0.00  0.00     0.147 A 
HETATM   13  C   UNK N   1       0.436  -2.078  -0.112  0.00  0.00     0.290 A 
HETATM   14  O   UNK N   1       0.492  -3.294  -0.161  0.00  0.00    -0.265 OA
HETATM   15  N   UNK N   1      -0.780  -1.447  -0.176  0.00  0.00    -0.154 N 
HETATM   16  H   UNK N   1      -2.192   1.517  -0.213  0.00  0.00     0.174 HD
HETATM   17  H   UNK N   1      -2.949  -0.010  -0.173  0.00  0.00     0.174 HD
HETATM   18  H   UNK N   1      -1.601  -1.983  -0.267  0.00  0.00     0.187 HD
ENDROOT
BRANCH   9  19
HETATM   19  C   UNK N   1       5.302  -1.776   0.478  0.00  0.00     0.200 C 
BRANCH  19  20
HETATM   20  O   UNK N   1       5.183  -3.166   0.372  0.00  0.00    -0.387 OA
HETATM   21  H   UNK N   1       4.308  -3.577   0.299  0.00  0.00     0.210 HD
ENDBRANCH  19  20
BRANCH  19  22
HETATM   22  C   UNK N   1       6.418  -1.269  -0.453  0.00  0.00     0.176 C 
BRANCH  22  23
HETATM   23  O   UNK N   1       6.524   0.120  -0.371  0.00  0.00    -0.390 OA
HETATM   24  H   UNK N   1       7.397   0.539  -0.314  0.00  0.00     0.210 HD
ENDBRANCH  22  23
BRANCH  22  25
HETATM   25  C   UNK N   1       7.769  -1.849  -0.044  0.00  0.00     0.198 C 
BRANCH  25  26
HETATM   26  O   UNK N   1       7.840  -3.211  -0.333  0.00  0.00    -0.398 OA
HETATM   27  H   UNK N   1       7.044  -3.728  -0.533  0.00  0.00     0.209 HD
ENDBRANCH  25  26
ENDBRANCH  22  25
ENDBRANCH  19  22
ENDBRANCH   9  19
TORSDOF 6
