REMARK  3 active torsions:
REMARK  status: ('A' for Active; 'I' for Inactive)
REMARK    1  A    between atoms: C_4  and  O_11 
REMARK    2  A    between atoms: C_5  and  O_12 
REMARK    3  A    between atoms: C_6  and  O_13 
ROOT
HETATM    1  C   UNK N   1      -1.804   1.550   0.296  0.00  0.00     0.106 A 
HETATM    2  C   UNK N   1      -1.036   0.408   0.472  0.00  0.00     0.109 A 
HETATM    3  C   UNK N   1       1.422  -0.093   0.427  0.00  0.00     0.164 C 
HETATM    4  C   UNK N   1       2.564   0.545  -0.376  0.00  0.00     0.168 C 
HETATM    5  C   UNK N   1       2.788   1.994   0.106  0.00  0.00     0.184 C 
HETATM    6  C   UNK N   1       1.526   2.875  -0.095  0.00  0.00     0.217 C 
HETATM    7  C   UNK N   1       0.263   2.093   0.153  0.00  0.00     0.115 A 
HETATM    8  N   UNK N   1      -0.978   2.604   0.089  0.00  0.00    -0.352 N 
ATOM      9  HN  UNK N   1      -1.241   3.575  -0.079  1.00  0.00     0.166 HD
HETATM   10  N   UNK N   1       0.253   0.772   0.379  0.00  0.00    -0.341 N 
ENDROOT
BRANCH   4  11
HETATM   11  O   UNK N   1       3.725  -0.209  -0.200  0.00  0.00    -0.391 OA
HETATM   12  H   UNK N   1       3.675  -1.170  -0.077  0.00  0.00     0.210 HD
ENDBRANCH   4  11
BRANCH   5  13
HETATM   13  O   UNK N   1       3.130   1.970   1.462  0.00  0.00    -0.390 OA
HETATM   14  H   UNK N   1       3.233   1.756   2.403  0.00  0.00     0.210 HD
ENDBRANCH   5  13
BRANCH   6  15
HETATM   15  O   UNK N   1       1.484   3.348  -1.407  0.00  0.00    -0.385 OA
HETATM   16  H   UNK N   1       1.754   3.538  -2.319  0.00  0.00     0.210 HD
ENDBRANCH   6  15
TORSDOF 3
