MODEL 1
REMARK VINA RESULT:      -8.2      0.000      0.000
REMARK  28 active torsions:
REMARK  status: ('A' for Active; 'I' for Inactive)
REMARK    1  A    between atoms: C_1  and  O_4 
REMARK    2  A    between atoms: C_2  and  N_6 
REMARK    3  A    between atoms: O_4  and  P_8 
REMARK    4  A    between atoms: C_5  and  O_10 
REMARK       I    between atoms: N_6  and  C_11 
REMARK    5  A    between atoms: C_7  and  C_12 
REMARK    6  A    between atoms: P_8  and  O_13 
REMARK    7  A    between atoms: P_8  and  O_14 
REMARK    8  A    between atoms: C_9  and  O_16 
REMARK    9  A    between atoms: O_10  and  C_17 
REMARK   10  A    between atoms: C_12  and  O_20 
REMARK   11  A    between atoms: O_13  and  P_21 
REMARK   12  A    between atoms: C_17  and  C_22 
REMARK   13  A    between atoms: P_21  and  O_24 
REMARK   14  A    between atoms: P_21  and  O_25 
REMARK       I    between atoms: C_22  and  N_27 
REMARK   15  A    between atoms: O_24  and  C_29 
REMARK   16  A    between atoms: C_30  and  N_27 
REMARK   17  A    between atoms: C_31  and  C_29 
REMARK   18  A    between atoms: C_30  and  C_32 
REMARK       I    between atoms: C_32  and  N_36 
REMARK   19  A    between atoms: C_35  and  O_40 
REMARK   20  A    between atoms: C_41  and  N_36 
REMARK   21  A    between atoms: C_38  and  N_42 
REMARK   22  A    between atoms: C_39  and  O_43 
REMARK   23  A    between atoms: C_41  and  C_44 
REMARK   24  A    between atoms: C_41  and  C_45 
REMARK   25  A    between atoms: C_44  and  C_48 
REMARK   26  A    between atoms: C_45  and  O_49 
REMARK   27  A    between atoms: C_48  and  C_54 
REMARK   28  A    between atoms: C_54  and  O_56 
ROOT
HETATM    1  C   UNK N   1      31.453  16.566   7.518  0.00  0.00     0.297 C 
HETATM    2  C   UNK N   1      30.819  16.383   6.126  0.00  0.00     0.171 C 
HETATM    3  O   UNK N   1      30.421  16.432   8.488  0.00  0.00    -0.348 OA
HETATM    4  C   UNK N   1      29.725  17.413   5.722  0.00  0.00     0.181 C 
HETATM    5  C   UNK N   1      29.251  17.219   8.210  0.00  0.00     0.179 C 
HETATM    6  C   UNK N   1      29.369  18.189   7.005  0.00  0.00     0.180 C 
ENDROOT
BRANCH   1   7
HETATM    7  O   UNK N   1      32.142  17.788   7.744  0.00  0.00    -0.263 OA
BRANCH   7   8
HETATM    8  P   UNK N   1      33.846  17.500   8.010  0.00  0.00     0.404 P 
HETATM    9  O   UNK N   1      33.595  18.996   8.349  0.00  0.00    -0.631 OA
BRANCH   8  10
HETATM   10  O   UNK N   1      34.663  17.701   9.537  0.00  0.00    -0.195 OA
BRANCH  10  11
HETATM   11  P   UNK N   1      35.178  16.113  10.095  0.00  0.00     0.401 P 
HETATM   12  O   UNK N   1      36.534  16.369  10.801  0.00  0.00    -0.631 OA
BRANCH  11  13
HETATM   13  O   UNK N   1      35.550  14.913   8.878  0.00  0.00    -0.294 OA
BRANCH  13  14
HETATM   14  C   UNK N   1      36.538  14.081   9.409  0.00  0.00     0.215 C 
BRANCH  14  15
HETATM   15  C   UNK N   1      36.161  12.610   9.287  0.00  0.00     0.180 C 
HETATM   16  O   UNK N   1      36.641  11.896  10.407  0.00  0.00    -0.353 OA
HETATM   17  C   UNK N   1      35.534  11.218  10.962  0.00  0.00     0.263 C 
HETATM   18  C   UNK N   1      34.365  11.243  10.005  0.00  0.00     0.198 C 
HETATM   19  C   UNK N   1      34.651  12.510   9.264  0.00  0.00     0.182 C 
BRANCH  17  20
HETATM   20  N   UNK N   1      35.219  11.661  12.329  0.00  0.00    -0.280 N 
HETATM   21  C   UNK N   1      34.320  11.022  13.170  0.00  0.00     0.331 A 
HETATM   22  N   UNK N   1      34.048  11.541  14.406  0.00  0.00    -0.275 N 
HETATM   23  O   UNK N   1      33.750  10.005  12.821  0.00  0.00    -0.246 OA
HETATM   24  C   UNK N   1      34.662  12.685  14.835  0.00  0.00     0.250 A 
HETATM   25  H   UNK N   1      33.403  11.086  14.994  0.00  0.00     0.173 HD
HETATM   26  O   UNK N   1      34.405  13.138  15.934  0.00  0.00    -0.268 OA
HETATM   27  C   UNK N   1      35.575  13.329  14.011  0.00  0.00     0.092 A 
HETATM   28  C   UNK N   1      35.833  12.800  12.751  0.00  0.00     0.104 A 
ENDBRANCH  17  20
BRANCH  18  29
HETATM   29  O   UNK N   1      34.489  10.144   9.150  0.00  0.00    -0.388 OA
HETATM   30  H   UNK N   1      33.842   9.894   8.472  0.00  0.00     0.210 HD
ENDBRANCH  18  29
BRANCH  19  31
HETATM   31  O   UNK N   1      34.163  12.463   7.955  0.00  0.00    -0.390 OA
HETATM   32  H   UNK N   1      34.024  11.637   7.465  0.00  0.00     0.210 HD
ENDBRANCH  19  31
ENDBRANCH  14  15
ENDBRANCH  13  14
ENDBRANCH  11  13
BRANCH  11  33
HETATM   33  O   UNK N   1      34.153  15.495  11.351  0.00  0.00    -0.307 OA
HETATM   34  H   UNK N   1      34.148  15.894  12.235  0.00  0.00     0.222 HD
ENDBRANCH  11  33
ENDBRANCH  10  11
ENDBRANCH   8  10
BRANCH   8  35
HETATM   35  O   UNK N   1      32.971  16.545   9.168  0.00  0.00    -0.307 OA
HETATM   36  H   UNK N   1      33.059  16.675  10.125  0.00  0.00     0.222 HD
ENDBRANCH   8  35
ENDBRANCH   7   8
ENDBRANCH   1   7
BRANCH   2  37
HETATM   37  N   UNK N   1      31.654  15.754   5.110  0.00  0.00    -0.349 N 
HETATM   38  C   UNK N   1      32.540  16.378   4.292  0.00  0.00     0.214 C 
HETATM   39  C   UNK N   1      33.191  15.600   3.206  0.00  0.00     0.117 C 
HETATM   40  O   UNK N   1      32.786  17.570   4.405  0.00  0.00    -0.274 OA
HETATM   41  H   UNK N   1      31.566  14.780   5.006  0.00  0.00     0.163 HD
ENDBRANCH   2  37
BRANCH   4  42
HETATM   42  O   UNK N   1      28.536  16.821   5.209  0.00  0.00    -0.367 OA
BRANCH  42  43
HETATM   43  C   UNK N   1      28.308  17.222   3.880  0.00  0.00     0.209 C 
HETATM   44  C   UNK N   1      28.342  15.988   2.987  0.00  0.00     0.050 C 
BRANCH  43  45
HETATM   45  C   UNK N   1      26.990  17.877   3.686  0.00  0.00     0.247 C 
HETATM   46  N   UNK N   1      26.858  19.205   3.925  0.00  0.00    -0.346 N 
HETATM   47  H   UNK N   1      27.660  19.775   3.869  0.00  0.00     0.163 HD
HETATM   48  O   UNK N   1      26.007  17.177   3.483  0.00  0.00    -0.271 OA
BRANCH  46  49
HETATM   49  C   UNK N   1      25.594  19.819   4.256  0.00  0.00     0.172 C 
HETATM   50  C   UNK N   1      25.771  20.846   5.372  0.00  0.00     0.042 C 
BRANCH  49  51
HETATM   51  C   UNK N   1      25.042  20.419   2.974  0.00  0.00     0.240 C 
HETATM   52  N   UNK N   1      23.732  20.296   2.612  0.00  0.00    -0.345 N 
HETATM   53  H   UNK N   1      23.517  20.566   1.691  0.00  0.00     0.163 HD
HETATM   54  O   UNK N   1      25.809  20.965   2.196  0.00  0.00    -0.271 OA
BRANCH  52  55
HETATM   55  C   UNK N   1      22.609  19.816   3.408  0.00  0.00     0.182 C 
BRANCH  55  56
HETATM   56  C   UNK N   1      22.740  18.352   3.809  0.00  0.00     0.046 C 
BRANCH  56  57
HETATM   57  C   UNK N   1      22.850  18.175   5.323  0.00  0.00     0.112 C 
BRANCH  57  58
HETATM   58  C   UNK N   1      21.514  17.969   5.972  0.00  0.00     0.139 C 
HETATM   59  O   UNK N   1      21.122  18.759   6.814  0.00  0.00    -0.650 OA
BRANCH  58  60
HETATM   60  O   UNK N   1      20.750  16.915   5.632  0.00  0.00    -0.776 OA
HETATM   61  H   UNK N   1      19.913  16.731   5.252  0.00  0.00     0.167 HD
ENDBRANCH  58  60
ENDBRANCH  57  58
ENDBRANCH  56  57
ENDBRANCH  55  56
BRANCH  55  62
HETATM   62  C   UNK N   1      21.217  20.290   3.087  0.00  0.00     0.163 C 
HETATM   63  O   UNK N   1      20.435  20.528   3.992  0.00  0.00    -0.648 OA
BRANCH  62  64
HETATM   64  O   UNK N   1      20.775  20.280   1.813  0.00  0.00    -0.775 OA
HETATM   65  H   UNK N   1      20.719  20.291   0.878  0.00  0.00     0.167 HD
ENDBRANCH  62  64
ENDBRANCH  55  62
ENDBRANCH  52  55
ENDBRANCH  49  51
ENDBRANCH  46  49
ENDBRANCH  43  45
ENDBRANCH  42  43
ENDBRANCH   4  42
BRANCH   5  66
HETATM   66  C   UNK N   1      28.801  17.928   9.480  0.00  0.00     0.198 C 
BRANCH  66  67
HETATM   67  O   UNK N   1      27.437  18.215   9.424  0.00  0.00    -0.398 OA
HETATM   68  H   UNK N   1      26.965  18.315   8.584  0.00  0.00     0.209 HD
ENDBRANCH  66  67
ENDBRANCH   5  66
BRANCH   6  69
HETATM   69  O   UNK N   1      28.212  18.951   6.826  0.00  0.00    -0.390 OA
HETATM   70  H   UNK N   1      27.317  18.895   6.454  0.00  0.00     0.210 HD
ENDBRANCH   6  69
TORSDOF 28
ENDMDL
MODEL 2
REMARK VINA RESULT:      -8.2      1.786      2.400
REMARK  28 active torsions:
REMARK  status: ('A' for Active; 'I' for Inactive)
REMARK    1  A    between atoms: C_1  and  O_4 
REMARK    2  A    between atoms: C_2  and  N_6 
REMARK    3  A    between atoms: O_4  and  P_8 
REMARK    4  A    between atoms: C_5  and  O_10 
REMARK       I    between atoms: N_6  and  C_11 
REMARK    5  A    between atoms: C_7  and  C_12 
REMARK    6  A    between atoms: P_8  and  O_13 
REMARK    7  A    between atoms: P_8  and  O_14 
REMARK    8  A    between atoms: C_9  and  O_16 
REMARK    9  A    between atoms: O_10  and  C_17 
REMARK   10  A    between atoms: C_12  and  O_20 
REMARK   11  A    between atoms: O_13  and  P_21 
REMARK   12  A    between atoms: C_17  and  C_22 
REMARK   13  A    between atoms: P_21  and  O_24 
REMARK   14  A    between atoms: P_21  and  O_25 
REMARK       I    between atoms: C_22  and  N_27 
REMARK   15  A    between atoms: O_24  and  C_29 
REMARK   16  A    between atoms: C_30  and  N_27 
REMARK   17  A    between atoms: C_31  and  C_29 
REMARK   18  A    between atoms: C_30  and  C_32 
REMARK       I    between atoms: C_32  and  N_36 
REMARK   19  A    between atoms: C_35  and  O_40 
REMARK   20  A    between atoms: C_41  and  N_36 
REMARK   21  A    between atoms: C_38  and  N_42 
REMARK   22  A    between atoms: C_39  and  O_43 
REMARK   23  A    between atoms: C_41  and  C_44 
REMARK   24  A    between atoms: C_41  and  C_45 
REMARK   25  A    between atoms: C_44  and  C_48 
REMARK   26  A    between atoms: C_45  and  O_49 
REMARK   27  A    between atoms: C_48  and  C_54 
REMARK   28  A    between atoms: C_54  and  O_56 
ROOT
HETATM    1  C   UNK N   1      31.556  16.265   7.942  0.00  0.00     0.297 C 
HETATM    2  C   UNK N   1      30.938  16.110   6.541  0.00  0.00     0.171 C 
HETATM    3  O   UNK N   1      30.496  16.250   8.891  0.00  0.00    -0.348 OA
HETATM    4  C   UNK N   1      29.955  17.228   6.090  0.00  0.00     0.181 C 
HETATM    5  C   UNK N   1      29.411  17.135   8.570  0.00  0.00     0.179 C 
HETATM    6  C   UNK N   1      29.646  18.063   7.348  0.00  0.00     0.180 C 
ENDROOT
BRANCH   1   7
HETATM    7  O   UNK N   1      32.353  17.421   8.160  0.00  0.00    -0.263 OA
BRANCH   7   8
HETATM    8  P   UNK N   1      34.020  16.982   8.451  0.00  0.00     0.404 P 
HETATM    9  O   UNK N   1      33.937  18.526   8.616  0.00  0.00    -0.631 OA
BRANCH   8  10
HETATM   10  O   UNK N   1      34.878  17.267   9.942  0.00  0.00    -0.195 OA
BRANCH  10  11
HETATM   11  P   UNK N   1      35.552  15.735  10.487  0.00  0.00     0.401 P 
HETATM   12  O   UNK N   1      35.457  14.805   9.250  0.00  0.00    -0.631 OA
BRANCH  11  13
HETATM   13  O   UNK N   1      34.684  14.872  11.737  0.00  0.00    -0.294 OA
BRANCH  13  14
HETATM   14  C   UNK N   1      35.600  14.590  12.753  0.00  0.00     0.215 C 
BRANCH  14  15
HETATM   15  C   UNK N   1      36.023  13.126  12.738  0.00  0.00     0.180 C 
HETATM   16  O   UNK N   1      36.911  12.871  13.805  0.00  0.00    -0.353 OA
HETATM   17  C   UNK N   1      36.372  11.787  14.533  0.00  0.00     0.263 C 
HETATM   18  C   UNK N   1      35.267  11.120  13.747  0.00  0.00     0.198 C 
HETATM   19  C   UNK N   1      34.786  12.275  12.928  0.00  0.00     0.182 C 
BRANCH  17  20
HETATM   20  N   UNK N   1      36.013  12.147  15.913  0.00  0.00    -0.280 N 
HETATM   21  C   UNK N   1      35.817  11.229  16.934  0.00  0.00     0.331 A 
HETATM   22  N   UNK N   1      35.428  11.655  18.175  0.00  0.00    -0.275 N 
HETATM   23  O   UNK N   1      35.971  10.038  16.744  0.00  0.00    -0.246 OA
HETATM   24  C   UNK N   1      35.238  12.985  18.430  0.00  0.00     0.250 A 
HETATM   25  H   UNK N   1      35.283  10.997  18.892  0.00  0.00     0.173 HD
HETATM   26  O   UNK N   1      34.886  13.348  19.536  0.00  0.00    -0.268 OA
HETATM   27  C   UNK N   1      35.444  13.918  17.423  0.00  0.00     0.092 A 
HETATM   28  C   UNK N   1      35.826  13.472  16.162  0.00  0.00     0.104 A 
ENDBRANCH  17  20
BRANCH  18  29
HETATM   29  O   UNK N   1      35.852  10.154  12.923  0.00  0.00    -0.388 OA
HETATM   30  H   UNK N   1      35.742   9.196  13.028  0.00  0.00     0.210 HD
ENDBRANCH  18  29
BRANCH  19  31
HETATM   31  O   UNK N   1      34.263  11.854  11.701  0.00  0.00    -0.390 OA
HETATM   32  H   UNK N   1      33.697  12.409  11.142  0.00  0.00     0.210 HD
ENDBRANCH  19  31
ENDBRANCH  14  15
ENDBRANCH  13  14
ENDBRANCH  11  13
BRANCH  11  33
HETATM   33  O   UNK N   1      37.253  15.844  10.808  0.00  0.00    -0.307 OA
HETATM   34  H   UNK N   1      37.609  15.662  11.691  0.00  0.00     0.222 HD
ENDBRANCH  11  33
ENDBRANCH  10  11
ENDBRANCH   8  10
BRANCH   8  35
HETATM   35  O   UNK N   1      33.066  16.268   9.716  0.00  0.00    -0.307 OA
HETATM   36  H   UNK N   1      32.506  16.793  10.308  0.00  0.00     0.222 HD
ENDBRANCH   8  35
ENDBRANCH   7   8
ENDBRANCH   1   7
BRANCH   2  37
HETATM   37  N   UNK N   1      31.732  15.383   5.558  0.00  0.00    -0.349 N 
HETATM   38  C   UNK N   1      31.479  14.139   5.074  0.00  0.00     0.214 C 
HETATM   39  C   UNK N   1      32.484  13.490   4.193  0.00  0.00     0.117 C 
HETATM   40  O   UNK N   1      30.464  13.530   5.375  0.00  0.00    -0.274 OA
HETATM   41  H   UNK N   1      32.532  15.839   5.211  0.00  0.00     0.163 HD
ENDBRANCH   2  37
BRANCH   4  42
HETATM   42  O   UNK N   1      28.727  16.739   5.562  0.00  0.00    -0.367 OA
BRANCH  42  43
HETATM   43  C   UNK N   1      28.572  17.118   4.216  0.00  0.00     0.209 C 
HETATM   44  C   UNK N   1      28.566  15.861   3.354  0.00  0.00     0.050 C 
BRANCH  43  45
HETATM   45  C   UNK N   1      27.302  17.843   3.956  0.00  0.00     0.247 C 
HETATM   46  N   UNK N   1      27.220  19.169   4.226  0.00  0.00    -0.346 N 
HETATM   47  H   UNK N   1      28.049  19.699   4.240  0.00  0.00     0.163 HD
HETATM   48  O   UNK N   1      26.302  17.199   3.669  0.00  0.00    -0.271 OA
BRANCH  46  49
HETATM   49  C   UNK N   1      25.967  19.837   4.493  0.00  0.00     0.172 C 
HETATM   50  C   UNK N   1      26.132  20.863   5.612  0.00  0.00     0.042 C 
BRANCH  49  51
HETATM   51  C   UNK N   1      25.503  20.450   3.183  0.00  0.00     0.240 C 
HETATM   52  N   UNK N   1      24.226  20.312   2.721  0.00  0.00    -0.345 N 
HETATM   53  H   UNK N   1      24.077  20.595   1.790  0.00  0.00     0.163 HD
HETATM   54  O   UNK N   1      26.317  21.023   2.474  0.00  0.00    -0.271 OA
BRANCH  52  55
HETATM   55  C   UNK N   1      23.055  19.800   3.421  0.00  0.00     0.182 C 
BRANCH  55  56
HETATM   56  C   UNK N   1      23.163  18.321   3.769  0.00  0.00     0.046 C 
BRANCH  56  57
HETATM   57  C   UNK N   1      22.852  18.048   5.240  0.00  0.00     0.112 C 
BRANCH  57  58
HETATM   58  C   UNK N   1      23.173  16.640   5.639  0.00  0.00     0.139 C 
HETATM   59  O   UNK N   1      22.529  16.098   6.522  0.00  0.00    -0.650 OA
BRANCH  58  60
HETATM   60  O   UNK N   1      24.171  15.973   5.030  0.00  0.00    -0.776 OA
HETATM   61  H   UNK N   1      24.595  15.137   5.058  0.00  0.00     0.167 HD
ENDBRANCH  58  60
ENDBRANCH  57  58
ENDBRANCH  56  57
ENDBRANCH  55  56
BRANCH  55  62
HETATM   62  C   UNK N   1      21.686  20.287   3.029  0.00  0.00     0.163 C 
HETATM   63  O   UNK N   1      20.780  19.485   2.876  0.00  0.00    -0.648 OA
BRANCH  62  64
HETATM   64  O   UNK N   1      21.501  21.574   2.673  0.00  0.00    -0.775 OA
HETATM   65  H   UNK N   1      21.610  22.441   2.334  0.00  0.00     0.167 HD
ENDBRANCH  62  64
ENDBRANCH  55  62
ENDBRANCH  52  55
ENDBRANCH  49  51
ENDBRANCH  46  49
ENDBRANCH  43  45
ENDBRANCH  42  43
ENDBRANCH   4  42
BRANCH   5  66
HETATM   66  C   UNK N   1      29.003  17.913   9.814  0.00  0.00     0.198 C 
BRANCH  66  67
HETATM   67  O   UNK N   1      29.922  18.927  10.081  0.00  0.00    -0.398 OA
HETATM   68  H   UNK N   1      30.142  19.610   9.429  0.00  0.00     0.209 HD
ENDBRANCH  66  67
ENDBRANCH   5  66
BRANCH   6  69
HETATM   69  O   UNK N   1      28.570  18.926   7.127  0.00  0.00    -0.390 OA
HETATM   70  H   UNK N   1      27.855  19.382   7.599  0.00  0.00     0.210 HD
ENDBRANCH   6  69
TORSDOF 28
ENDMDL
MODEL 3
REMARK VINA RESULT:      -8.2      3.152     13.028
REMARK  28 active torsions:
REMARK  status: ('A' for Active; 'I' for Inactive)
REMARK    1  A    between atoms: C_1  and  O_4 
REMARK    2  A    between atoms: C_2  and  N_6 
REMARK    3  A    between atoms: O_4  and  P_8 
REMARK    4  A    between atoms: C_5  and  O_10 
REMARK       I    between atoms: N_6  and  C_11 
REMARK    5  A    between atoms: C_7  and  C_12 
REMARK    6  A    between atoms: P_8  and  O_13 
REMARK    7  A    between atoms: P_8  and  O_14 
REMARK    8  A    between atoms: C_9  and  O_16 
REMARK    9  A    between atoms: O_10  and  C_17 
REMARK   10  A    between atoms: C_12  and  O_20 
REMARK   11  A    between atoms: O_13  and  P_21 
REMARK   12  A    between atoms: C_17  and  C_22 
REMARK   13  A    between atoms: P_21  and  O_24 
REMARK   14  A    between atoms: P_21  and  O_25 
REMARK       I    between atoms: C_22  and  N_27 
REMARK   15  A    between atoms: O_24  and  C_29 
REMARK   16  A    between atoms: C_30  and  N_27 
REMARK   17  A    between atoms: C_31  and  C_29 
REMARK   18  A    between atoms: C_30  and  C_32 
REMARK       I    between atoms: C_32  and  N_36 
REMARK   19  A    between atoms: C_35  and  O_40 
REMARK   20  A    between atoms: C_41  and  N_36 
REMARK   21  A    between atoms: C_38  and  N_42 
REMARK   22  A    between atoms: C_39  and  O_43 
REMARK   23  A    between atoms: C_41  and  C_44 
REMARK   24  A    between atoms: C_41  and  C_45 
REMARK   25  A    between atoms: C_44  and  C_48 
REMARK   26  A    between atoms: C_45  and  O_49 
REMARK   27  A    between atoms: C_48  and  C_54 
REMARK   28  A    between atoms: C_54  and  O_56 
ROOT
HETATM    1  C   UNK N   1      27.545  16.504   3.492  0.00  0.00     0.297 C 
HETATM    2  C   UNK N   1      28.990  16.028   3.256  0.00  0.00     0.171 C 
HETATM    3  O   UNK N   1      27.596  17.857   3.926  0.00  0.00    -0.348 OA
HETATM    4  C   UNK N   1      29.933  16.038   4.493  0.00  0.00     0.181 C 
HETATM    5  C   UNK N   1      28.529  18.095   4.993  0.00  0.00     0.179 C 
HETATM    6  C   UNK N   1      29.195  16.827   5.592  0.00  0.00     0.180 C 
ENDROOT
BRANCH   1   7
HETATM    7  O   UNK N   1      26.773  15.752   4.419  0.00  0.00    -0.263 OA
BRANCH   7   8
HETATM    8  P   UNK N   1      25.464  14.922   3.610  0.00  0.00     0.404 P 
HETATM    9  O   UNK N   1      24.829  15.682   4.807  0.00  0.00    -0.631 OA
BRANCH   8  10
HETATM   10  O   UNK N   1      24.083  15.706   2.891  0.00  0.00    -0.195 OA
BRANCH  10  11
HETATM   11  P   UNK N   1      23.003  14.458   2.279  0.00  0.00     0.401 P 
HETATM   12  O   UNK N   1      23.111  14.570   0.736  0.00  0.00    -0.631 OA
BRANCH  11  13
HETATM   13  O   UNK N   1      21.294  14.643   2.601  0.00  0.00    -0.294 OA
BRANCH  13  14
HETATM   14  C   UNK N   1      21.174  15.408   3.763  0.00  0.00     0.215 C 
BRANCH  14  15
HETATM   15  C   UNK N   1      20.188  16.555   3.582  0.00  0.00     0.180 C 
HETATM   16  O   UNK N   1      20.561  17.643   4.402  0.00  0.00    -0.353 OA
HETATM   17  C   UNK N   1      20.662  18.772   3.559  0.00  0.00     0.263 C 
HETATM   18  C   UNK N   1      20.043  18.482   2.211  0.00  0.00     0.198 C 
HETATM   19  C   UNK N   1      20.242  17.001   2.137  0.00  0.00     0.182 C 
BRANCH  17  20
HETATM   20  N   UNK N   1      22.024  19.324   3.503  0.00  0.00    -0.280 N 
HETATM   21  C   UNK N   1      22.381  20.450   2.776  0.00  0.00     0.331 A 
HETATM   22  N   UNK N   1      23.687  20.856   2.738  0.00  0.00    -0.275 N 
HETATM   23  O   UNK N   1      21.551  21.083   2.152  0.00  0.00    -0.246 OA
HETATM   24  C   UNK N   1      24.654  20.170   3.419  0.00  0.00     0.250 A 
HETATM   25  H   UNK N   1      23.935  21.652   2.214  0.00  0.00     0.173 HD
HETATM   26  O   UNK N   1      25.812  20.540   3.371  0.00  0.00    -0.268 OA
HETATM   27  C   UNK N   1      24.310  19.050   4.163  0.00  0.00     0.092 A 
HETATM   28  C   UNK N   1      22.982  18.637   4.184  0.00  0.00     0.104 A 
ENDBRANCH  17  20
BRANCH  18  29
HETATM   29  O   UNK N   1      18.680  18.782   2.293  0.00  0.00    -0.388 OA
HETATM   30  H   UNK N   1      18.155  19.176   1.579  0.00  0.00     0.210 HD
ENDBRANCH  18  29
BRANCH  19  31
HETATM   31  O   UNK N   1      19.244  16.384   1.376  0.00  0.00    -0.390 OA
HETATM   32  H   UNK N   1      18.315  16.337   1.649  0.00  0.00     0.210 HD
ENDBRANCH  19  31
ENDBRANCH  14  15
ENDBRANCH  13  14
ENDBRANCH  11  13
BRANCH  11  33
HETATM   33  O   UNK N   1      23.580  12.861   2.631  0.00  0.00    -0.307 OA
HETATM   34  H   UNK N   1      23.958  12.299   1.936  0.00  0.00     0.222 HD
ENDBRANCH  11  33
ENDBRANCH  10  11
ENDBRANCH   8  10
BRANCH   8  35
HETATM   35  O   UNK N   1      26.088  16.110   2.505  0.00  0.00    -0.307 OA
HETATM   36  H   UNK N   1      25.532  16.798   2.109  0.00  0.00     0.222 HD
ENDBRANCH   8  35
ENDBRANCH   7   8
ENDBRANCH   1   7
BRANCH   2  37
HETATM   37  N   UNK N   1      29.188  15.063   2.182  0.00  0.00    -0.349 N 
HETATM   38  C   UNK N   1      29.070  13.713   2.275  0.00  0.00     0.214 C 
HETATM   39  C   UNK N   1      29.464  12.873   1.115  0.00  0.00     0.117 C 
HETATM   40  O   UNK N   1      28.682  13.175   3.301  0.00  0.00    -0.274 OA
HETATM   41  H   UNK N   1      29.434  15.426   1.301  0.00  0.00     0.163 HD
ENDBRANCH   2  37
BRANCH   4  42
HETATM   42  O   UNK N   1      31.190  16.662   4.257  0.00  0.00    -0.367 OA
BRANCH  42  43
HETATM   43  C   UNK N   1      32.216  15.706   4.156  0.00  0.00     0.209 C 
HETATM   44  C   UNK N   1      33.015  15.980   2.888  0.00  0.00     0.050 C 
BRANCH  43  45
HETATM   45  C   UNK N   1      33.164  15.745   5.298  0.00  0.00     0.247 C 
HETATM   46  N   UNK N   1      32.693  15.933   6.555  0.00  0.00    -0.346 N 
HETATM   47  H   UNK N   1      31.759  15.687   6.750  0.00  0.00     0.163 HD
HETATM   48  O   UNK N   1      34.365  15.781   5.068  0.00  0.00    -0.271 OA
BRANCH  46  49
HETATM   49  C   UNK N   1      33.502  16.477   7.621  0.00  0.00     0.172 C 
HETATM   50  C   UNK N   1      33.642  17.990   7.472  0.00  0.00     0.042 C 
BRANCH  49  51
HETATM   51  C   UNK N   1      32.849  16.063   8.929  0.00  0.00     0.240 C 
HETATM   52  N   UNK N   1      33.537  15.429   9.923  0.00  0.00    -0.345 N 
HETATM   53  H   UNK N   1      32.988  15.053  10.648  0.00  0.00     0.163 HD
HETATM   54  O   UNK N   1      31.648  16.232   9.073  0.00  0.00    -0.271 OA
BRANCH  52  55
HETATM   55  C   UNK N   1      34.975  15.232  10.052  0.00  0.00     0.182 C 
BRANCH  55  56
HETATM   56  C   UNK N   1      35.348  13.848  10.566  0.00  0.00     0.046 C 
BRANCH  56  57
HETATM   57  C   UNK N   1      34.765  13.568  11.951  0.00  0.00     0.112 C 
BRANCH  57  58
HETATM   58  C   UNK N   1      35.829  13.410  12.996  0.00  0.00     0.139 C 
HETATM   59  O   UNK N   1      35.697  12.572  13.872  0.00  0.00    -0.650 OA
BRANCH  58  60
HETATM   60  O   UNK N   1      36.924  14.192  12.972  0.00  0.00    -0.776 OA
HETATM   61  H   UNK N   1      37.278  14.912  12.487  0.00  0.00     0.167 HD
ENDBRANCH  58  60
ENDBRANCH  57  58
ENDBRANCH  56  57
ENDBRANCH  55  56
BRANCH  55  62
HETATM   62  C   UNK N   1      35.838  16.368  10.533  0.00  0.00     0.163 C 
HETATM   63  O   UNK N   1      35.421  17.512  10.471  0.00  0.00    -0.648 OA
BRANCH  62  64
HETATM   64  O   UNK N   1      37.127  16.147  10.863  0.00  0.00    -0.775 OA
HETATM   65  H   UNK N   1      38.062  16.089  10.857  0.00  0.00     0.167 HD
ENDBRANCH  62  64
ENDBRANCH  55  62
ENDBRANCH  52  55
ENDBRANCH  49  51
ENDBRANCH  46  49
ENDBRANCH  43  45
ENDBRANCH  42  43
ENDBRANCH   4  42
BRANCH   5  66
HETATM   66  C   UNK N   1      27.873  18.959   6.061  0.00  0.00     0.198 C 
BRANCH  66  67
HETATM   67  O   UNK N   1      27.431  18.174   7.125  0.00  0.00    -0.398 OA
HETATM   68  H   UNK N   1      27.713  18.336   8.038  0.00  0.00     0.209 HD
ENDBRANCH  66  67
ENDBRANCH   5  66
BRANCH   6  69
HETATM   69  O   UNK N   1      30.051  17.133   6.653  0.00  0.00    -0.390 OA
HETATM   70  H   UNK N   1      30.537  17.876   7.044  0.00  0.00     0.210 HD
ENDBRANCH   6  69
TORSDOF 28
ENDMDL
MODEL 4
REMARK VINA RESULT:      -8.0      2.027      3.200
REMARK  28 active torsions:
REMARK  status: ('A' for Active; 'I' for Inactive)
REMARK    1  A    between atoms: C_1  and  O_4 
REMARK    2  A    between atoms: C_2  and  N_6 
REMARK    3  A    between atoms: O_4  and  P_8 
REMARK    4  A    between atoms: C_5  and  O_10 
REMARK       I    between atoms: N_6  and  C_11 
REMARK    5  A    between atoms: C_7  and  C_12 
REMARK    6  A    between atoms: P_8  and  O_13 
REMARK    7  A    between atoms: P_8  and  O_14 
REMARK    8  A    between atoms: C_9  and  O_16 
REMARK    9  A    between atoms: O_10  and  C_17 
REMARK   10  A    between atoms: C_12  and  O_20 
REMARK   11  A    between atoms: O_13  and  P_21 
REMARK   12  A    between atoms: C_17  and  C_22 
REMARK   13  A    between atoms: P_21  and  O_24 
REMARK   14  A    between atoms: P_21  and  O_25 
REMARK       I    between atoms: C_22  and  N_27 
REMARK   15  A    between atoms: O_24  and  C_29 
REMARK   16  A    between atoms: C_30  and  N_27 
REMARK   17  A    between atoms: C_31  and  C_29 
REMARK   18  A    between atoms: C_30  and  C_32 
REMARK       I    between atoms: C_32  and  N_36 
REMARK   19  A    between atoms: C_35  and  O_40 
REMARK   20  A    between atoms: C_41  and  N_36 
REMARK   21  A    between atoms: C_38  and  N_42 
REMARK   22  A    between atoms: C_39  and  O_43 
REMARK   23  A    between atoms: C_41  and  C_44 
REMARK   24  A    between atoms: C_41  and  C_45 
REMARK   25  A    between atoms: C_44  and  C_48 
REMARK   26  A    between atoms: C_45  and  O_49 
REMARK   27  A    between atoms: C_48  and  C_54 
REMARK   28  A    between atoms: C_54  and  O_56 
ROOT
HETATM    1  C   UNK N   1      31.770  16.134   8.233  0.00  0.00     0.297 C 
HETATM    2  C   UNK N   1      31.124  15.660   6.918  0.00  0.00     0.171 C 
HETATM    3  O   UNK N   1      30.729  16.361   9.174  0.00  0.00    -0.348 OA
HETATM    4  C   UNK N   1      30.145  16.655   6.230  0.00  0.00     0.181 C 
HETATM    5  C   UNK N   1      29.648  17.162   8.669  0.00  0.00     0.179 C 
HETATM    6  C   UNK N   1      29.870  17.769   7.258  0.00  0.00     0.180 C 
ENDROOT
BRANCH   1   7
HETATM    7  O   UNK N   1      32.584  17.296   8.157  0.00  0.00    -0.263 OA
BRANCH   7   8
HETATM    8  P   UNK N   1      34.264  16.898   8.432  0.00  0.00     0.404 P 
HETATM    9  O   UNK N   1      34.160  18.446   8.518  0.00  0.00    -0.631 OA
BRANCH   8  10
HETATM   10  O   UNK N   1      35.150  17.273   9.885  0.00  0.00    -0.195 OA
BRANCH  10  11
HETATM   11  P   UNK N   1      35.808  15.772  10.527  0.00  0.00     0.401 P 
HETATM   12  O   UNK N   1      35.567  14.728   9.406  0.00  0.00    -0.631 OA
BRANCH  11  13
HETATM   13  O   UNK N   1      35.021  15.081  11.929  0.00  0.00    -0.294 OA
BRANCH  13  14
HETATM   14  C   UNK N   1      36.028  14.661  12.801  0.00  0.00     0.215 C 
BRANCH  14  15
HETATM   15  C   UNK N   1      36.213  13.149  12.758  0.00  0.00     0.180 C 
HETATM   16  O   UNK N   1      37.020  12.733  13.840  0.00  0.00    -0.353 OA
HETATM   17  C   UNK N   1      36.297  11.734  14.527  0.00  0.00     0.263 C 
HETATM   18  C   UNK N   1      35.122  11.268  13.698  0.00  0.00     0.198 C 
HETATM   19  C   UNK N   1      34.852  12.502  12.897  0.00  0.00     0.182 C 
BRANCH  17  20
HETATM   20  N   UNK N   1      35.961  12.116  15.906  0.00  0.00    -0.280 N 
HETATM   21  C   UNK N   1      35.773  11.215  16.944  0.00  0.00     0.331 A 
HETATM   22  N   UNK N   1      35.407  11.662  18.184  0.00  0.00    -0.275 N 
HETATM   23  O   UNK N   1      35.915  10.020  16.768  0.00  0.00    -0.246 OA
HETATM   24  C   UNK N   1      35.231  12.997  18.422  0.00  0.00     0.250 A 
HETATM   25  H   UNK N   1      35.267  11.016  18.912  0.00  0.00     0.173 HD
HETATM   26  O   UNK N   1      34.898  13.379  19.528  0.00  0.00    -0.268 OA
HETATM   27  C   UNK N   1      35.429  13.913  17.399  0.00  0.00     0.092 A 
HETATM   28  C   UNK N   1      35.788  13.446  16.139  0.00  0.00     0.104 A 
ENDBRANCH  17  20
BRANCH  18  29
HETATM   29  O   UNK N   1      35.569  10.239  12.863  0.00  0.00    -0.388 OA
HETATM   30  H   UNK N   1      35.223  10.055  11.976  0.00  0.00     0.210 HD
ENDBRANCH  18  29
BRANCH  19  31
HETATM   31  O   UNK N   1      34.303  12.196  11.648  0.00  0.00    -0.390 OA
HETATM   32  H   UNK N   1      34.296  11.303  11.270  0.00  0.00     0.210 HD
ENDBRANCH  19  31
ENDBRANCH  14  15
ENDBRANCH  13  14
ENDBRANCH  11  13
BRANCH  11  33
HETATM   33  O   UNK N   1      37.534  15.830  10.692  0.00  0.00    -0.307 OA
HETATM   34  H   UNK N   1      38.102  15.178  10.251  0.00  0.00     0.222 HD
ENDBRANCH  11  33
ENDBRANCH  10  11
ENDBRANCH   8  10
BRANCH   8  35
HETATM   35  O   UNK N   1      33.350  16.236   9.753  0.00  0.00    -0.307 OA
HETATM   36  H   UNK N   1      33.742  16.061  10.623  0.00  0.00     0.222 HD
ENDBRANCH   8  35
ENDBRANCH   7   8
ENDBRANCH   1   7
BRANCH   2  37
HETATM   37  N   UNK N   1      31.890  14.709   6.123  0.00  0.00    -0.349 N 
HETATM   38  C   UNK N   1      32.812  15.007   5.171  0.00  0.00     0.214 C 
HETATM   39  C   UNK N   1      33.381  13.907   4.350  0.00  0.00     0.117 C 
HETATM   40  O   UNK N   1      33.154  16.158   4.951  0.00  0.00    -0.274 OA
HETATM   41  H   UNK N   1      31.722  13.754   6.293  0.00  0.00     0.163 HD
ENDBRANCH   2  37
BRANCH   4  42
HETATM   42  O   UNK N   1      28.902  16.074   5.852  0.00  0.00    -0.367 OA
BRANCH  42  43
HETATM   43  C   UNK N   1      28.687  16.201   4.468  0.00  0.00     0.209 C 
HETATM   44  C   UNK N   1      29.021  14.874   3.799  0.00  0.00     0.050 C 
BRANCH  43  45
HETATM   45  C   UNK N   1      27.281  16.532   4.124  0.00  0.00     0.247 C 
HETATM   46  N   UNK N   1      26.275  16.096   4.921  0.00  0.00    -0.346 N 
HETATM   47  H   UNK N   1      26.475  15.893   5.864  0.00  0.00     0.163 HD
HETATM   48  O   UNK N   1      27.042  17.043   3.038  0.00  0.00    -0.271 OA
BRANCH  46  49
HETATM   49  C   UNK N   1      24.922  15.916   4.446  0.00  0.00     0.172 C 
HETATM   50  C   UNK N   1      24.721  14.498   3.916  0.00  0.00     0.042 C 
BRANCH  49  51
HETATM   51  C   UNK N   1      23.997  16.259   5.601  0.00  0.00     0.240 C 
HETATM   52  N   UNK N   1      23.440  17.496   5.752  0.00  0.00    -0.345 N 
HETATM   53  H   UNK N   1      23.002  17.664   6.617  0.00  0.00     0.163 HD
HETATM   54  O   UNK N   1      23.803  15.426   6.474  0.00  0.00    -0.271 OA
BRANCH  52  55
HETATM   55  C   UNK N   1      23.408  18.602   4.802  0.00  0.00     0.182 C 
BRANCH  55  56
HETATM   56  C   UNK N   1      22.398  18.400   3.681  0.00  0.00     0.046 C 
BRANCH  56  57
HETATM   57  C   UNK N   1      21.207  19.352   3.796  0.00  0.00     0.112 C 
BRANCH  57  58
HETATM   58  C   UNK N   1      21.238  20.433   2.759  0.00  0.00     0.139 C 
HETATM   59  O   UNK N   1      20.437  20.412   1.839  0.00  0.00    -0.650 OA
BRANCH  58  60
HETATM   60  O   UNK N   1      22.148  21.422   2.836  0.00  0.00    -0.776 OA
HETATM   61  H   UNK N   1      23.076  21.545   2.788  0.00  0.00     0.167 HD
ENDBRANCH  58  60
ENDBRANCH  57  58
ENDBRANCH  56  57
ENDBRANCH  55  56
BRANCH  55  62
HETATM   62  C   UNK N   1      24.692  19.285   4.418  0.00  0.00     0.163 C 
HETATM   63  O   UNK N   1      25.616  19.329   5.214  0.00  0.00    -0.648 OA
BRANCH  62  64
HETATM   64  O   UNK N   1      24.763  20.001   3.277  0.00  0.00    -0.775 OA
HETATM   65  H   UNK N   1      24.558  20.480   2.499  0.00  0.00     0.167 HD
ENDBRANCH  62  64
ENDBRANCH  55  62
ENDBRANCH  52  55
ENDBRANCH  49  51
ENDBRANCH  46  49
ENDBRANCH  43  45
ENDBRANCH  42  43
ENDBRANCH   4  42
BRANCH   5  66
HETATM   66  C   UNK N   1      29.273  18.219   9.699  0.00  0.00     0.198 C 
BRANCH  66  67
HETATM   67  O   UNK N   1      27.907  18.497   9.641  0.00  0.00    -0.398 OA
HETATM   68  H   UNK N   1      27.340  18.463  10.426  0.00  0.00     0.209 HD
ENDBRANCH  66  67
ENDBRANCH   5  66
BRANCH   6  69
HETATM   69  O   UNK N   1      28.800  18.572   6.856  0.00  0.00    -0.390 OA
HETATM   70  H   UNK N   1      27.987  18.978   7.197  0.00  0.00     0.210 HD
ENDBRANCH   6  69
TORSDOF 28
ENDMDL
MODEL 5
REMARK VINA RESULT:      -8.0      1.579      2.607
REMARK  28 active torsions:
REMARK  status: ('A' for Active; 'I' for Inactive)
REMARK    1  A    between atoms: C_1  and  O_4 
REMARK    2  A    between atoms: C_2  and  N_6 
REMARK    3  A    between atoms: O_4  and  P_8 
REMARK    4  A    between atoms: C_5  and  O_10 
REMARK       I    between atoms: N_6  and  C_11 
REMARK    5  A    between atoms: C_7  and  C_12 
REMARK    6  A    between atoms: P_8  and  O_13 
REMARK    7  A    between atoms: P_8  and  O_14 
REMARK    8  A    between atoms: C_9  and  O_16 
REMARK    9  A    between atoms: O_10  and  C_17 
REMARK   10  A    between atoms: C_12  and  O_20 
REMARK   11  A    between atoms: O_13  and  P_21 
REMARK   12  A    between atoms: C_17  and  C_22 
REMARK   13  A    between atoms: P_21  and  O_24 
REMARK   14  A    between atoms: P_21  and  O_25 
REMARK       I    between atoms: C_22  and  N_27 
REMARK   15  A    between atoms: O_24  and  C_29 
REMARK   16  A    between atoms: C_30  and  N_27 
REMARK   17  A    between atoms: C_31  and  C_29 
REMARK   18  A    between atoms: C_30  and  C_32 
REMARK       I    between atoms: C_32  and  N_36 
REMARK   19  A    between atoms: C_35  and  O_40 
REMARK   20  A    between atoms: C_41  and  N_36 
REMARK   21  A    between atoms: C_38  and  N_42 
REMARK   22  A    between atoms: C_39  and  O_43 
REMARK   23  A    between atoms: C_41  and  C_44 
REMARK   24  A    between atoms: C_41  and  C_45 
REMARK   25  A    between atoms: C_44  and  C_48 
REMARK   26  A    between atoms: C_45  and  O_49 
REMARK   27  A    between atoms: C_48  and  C_54 
REMARK   28  A    between atoms: C_54  and  O_56 
ROOT
HETATM    1  C   UNK N   1      31.128  16.159   6.782  0.00  0.00     0.297 C 
HETATM    2  C   UNK N   1      30.232  15.844   5.570  0.00  0.00     0.171 C 
HETATM    3  O   UNK N   1      30.286  16.311   7.919  0.00  0.00    -0.348 OA
HETATM    4  C   UNK N   1      29.189  16.930   5.179  0.00  0.00     0.181 C 
HETATM    5  C   UNK N   1      29.168  17.189   7.706  0.00  0.00     0.179 C 
HETATM    6  C   UNK N   1      29.156  17.936   6.346  0.00  0.00     0.180 C 
ENDROOT
BRANCH   1   7
HETATM    7  O   UNK N   1      31.964  17.302   6.672  0.00  0.00    -0.263 OA
BRANCH   7   8
HETATM    8  P   UNK N   1      33.588  16.842   6.214  0.00  0.00     0.404 P 
HETATM    9  O   UNK N   1      33.689  18.274   6.811  0.00  0.00    -0.631 OA
BRANCH   8  10
HETATM   10  O   UNK N   1      34.934  16.717   7.314  0.00  0.00    -0.195 OA
BRANCH  10  11
HETATM   11  P   UNK N   1      34.302  16.723   8.957  0.00  0.00     0.401 P 
HETATM   12  O   UNK N   1      35.373  17.481   9.784  0.00  0.00    -0.631 OA
BRANCH  11  13
HETATM   13  O   UNK N   1      34.151  15.181   9.767  0.00  0.00    -0.294 OA
BRANCH  13  14
HETATM   14  C   UNK N   1      34.221  15.428  11.140  0.00  0.00     0.215 C 
BRANCH  14  15
HETATM   15  C   UNK N   1      35.375  14.675  11.789  0.00  0.00     0.180 C 
HETATM   16  O   UNK N   1      34.891  13.517  12.435  0.00  0.00    -0.353 OA
HETATM   17  C   UNK N   1      35.633  12.427  11.928  0.00  0.00     0.263 C 
HETATM   18  C   UNK N   1      36.837  12.920  11.159  0.00  0.00     0.198 C 
HETATM   19  C   UNK N   1      36.336  14.251  10.698  0.00  0.00     0.182 C 
BRANCH  17  20
HETATM   20  N   UNK N   1      34.799  11.455  11.205  0.00  0.00    -0.280 N 
HETATM   21  C   UNK N   1      33.982  10.517  11.819  0.00  0.00     0.331 A 
HETATM   22  N   UNK N   1      33.286   9.614  11.063  0.00  0.00    -0.275 N 
HETATM   23  O   UNK N   1      33.882  10.471  13.030  0.00  0.00    -0.246 OA
HETATM   24  C   UNK N   1      33.374   9.627   9.699  0.00  0.00     0.250 A 
HETATM   25  H   UNK N   1      32.714   8.947  11.506  0.00  0.00     0.173 HD
HETATM   26  O   UNK N   1      32.754   8.814   9.041  0.00  0.00    -0.268 OA
HETATM   27  C   UNK N   1      34.176  10.569   9.068  0.00  0.00     0.092 A 
HETATM   28  C   UNK N   1      34.891  11.473   9.847  0.00  0.00     0.104 A 
ENDBRANCH  17  20
BRANCH  18  29
HETATM   29  O   UNK N   1      37.886  13.088  12.070  0.00  0.00    -0.388 OA
HETATM   30  H   UNK N   1      38.553  13.790  12.022  0.00  0.00     0.210 HD
ENDBRANCH  18  29
BRANCH  19  31
HETATM   31  O   UNK N   1      37.378  15.172  10.549  0.00  0.00    -0.390 OA
HETATM   32  H   UNK N   1      37.453  15.778   9.795  0.00  0.00     0.210 HD
ENDBRANCH  19  31
ENDBRANCH  14  15
ENDBRANCH  13  14
ENDBRANCH  11  13
BRANCH  11  33
HETATM   33  O   UNK N   1      32.877  17.700   9.107  0.00  0.00    -0.307 OA
HETATM   34  H   UNK N   1      32.851  18.459   9.710  0.00  0.00     0.222 HD
ENDBRANCH  11  33
ENDBRANCH  10  11
ENDBRANCH   8  10
BRANCH   8  35
HETATM   35  O   UNK N   1      33.086  15.776   7.491  0.00  0.00    -0.307 OA
HETATM   36  H   UNK N   1      33.560  14.957   7.704  0.00  0.00     0.222 HD
ENDBRANCH   8  35
ENDBRANCH   7   8
ENDBRANCH   1   7
BRANCH   2  37
HETATM   37  N   UNK N   1      30.797  14.962   4.557  0.00  0.00    -0.349 N 
HETATM   38  C   UNK N   1      30.473  13.661   4.344  0.00  0.00     0.214 C 
HETATM   39  C   UNK N   1      31.266  12.870   3.368  0.00  0.00     0.117 C 
HETATM   40  O   UNK N   1      29.570  13.118   4.963  0.00  0.00    -0.274 OA
HETATM   41  H   UNK N   1      31.484  15.349   3.968  0.00  0.00     0.163 HD
ENDBRANCH   2  37
BRANCH   4  42
HETATM   42  O   UNK N   1      27.873  16.423   4.984  0.00  0.00    -0.367 OA
BRANCH  42  43
HETATM   43  C   UNK N   1      27.415  16.701   3.683  0.00  0.00     0.209 C 
HETATM   44  C   UNK N   1      27.211  15.383   2.947  0.00  0.00     0.050 C 
BRANCH  43  45
HETATM   45  C   UNK N   1      26.121  17.428   3.663  0.00  0.00     0.247 C 
HETATM   46  N   UNK N   1      26.113  18.783   3.608  0.00  0.00    -0.346 N 
HETATM   47  H   UNK N   1      26.897  19.244   3.230  0.00  0.00     0.163 HD
HETATM   48  O   UNK N   1      25.089  16.805   3.871  0.00  0.00    -0.271 OA
BRANCH  46  49
HETATM   49  C   UNK N   1      25.003  19.579   4.080  0.00  0.00     0.172 C 
HETATM   50  C   UNK N   1      25.450  20.514   5.202  0.00  0.00     0.042 C 
BRANCH  49  51
HETATM   51  C   UNK N   1      24.442  20.316   2.876  0.00  0.00     0.240 C 
HETATM   52  N   UNK N   1      23.130  20.229   2.510  0.00  0.00    -0.345 N 
HETATM   53  H   UNK N   1      22.909  20.600   1.626  0.00  0.00     0.163 HD
HETATM   54  O   UNK N   1      25.203  20.948   2.158  0.00  0.00    -0.271 OA
BRANCH  52  55
HETATM   55  C   UNK N   1      22.013  19.661   3.254  0.00  0.00     0.182 C 
BRANCH  55  56
HETATM   56  C   UNK N   1      22.054  18.140   3.326  0.00  0.00     0.046 C 
BRANCH  56  57
HETATM   57  C   UNK N   1      21.279  17.597   4.528  0.00  0.00     0.112 C 
BRANCH  57  58
HETATM   58  C   UNK N   1      21.988  17.850   5.824  0.00  0.00     0.139 C 
HETATM   59  O   UNK N   1      21.481  18.581   6.658  0.00  0.00    -0.650 OA
BRANCH  58  60
HETATM   60  O   UNK N   1      23.181  17.278   6.068  0.00  0.00    -0.776 OA
HETATM   61  H   UNK N   1      24.026  17.501   6.409  0.00  0.00     0.167 HD
ENDBRANCH  58  60
ENDBRANCH  57  58
ENDBRANCH  56  57
ENDBRANCH  55  56
BRANCH  55  62
HETATM   62  C   UNK N   1      20.647  20.278   3.127  0.00  0.00     0.163 C 
HETATM   63  O   UNK N   1      20.182  20.914   4.058  0.00  0.00    -0.648 OA
BRANCH  62  64
HETATM   64  O   UNK N   1      19.867  19.985   2.067  0.00  0.00    -0.775 OA
HETATM   65  H   UNK N   1      19.480  19.577   1.317  0.00  0.00     0.167 HD
ENDBRANCH  62  64
ENDBRANCH  55  62
ENDBRANCH  52  55
ENDBRANCH  49  51
ENDBRANCH  46  49
ENDBRANCH  43  45
ENDBRANCH  42  43
ENDBRANCH   4  42
BRANCH   5  66
HETATM   66  C   UNK N   1      29.034  18.140   8.887  0.00  0.00     0.198 C 
BRANCH  66  67
HETATM   67  O   UNK N   1      27.694  18.308   9.232  0.00  0.00    -0.398 OA
HETATM   68  H   UNK N   1      26.993  18.365   8.565  0.00  0.00     0.209 HD
ENDBRANCH  66  67
ENDBRANCH   5  66
BRANCH   6  69
HETATM   69  O   UNK N   1      28.067  18.803   6.231  0.00  0.00    -0.390 OA
HETATM   70  H   UNK N   1      27.842  19.705   5.951  0.00  0.00     0.210 HD
ENDBRANCH   6  69
TORSDOF 28
ENDMDL
MODEL 6
REMARK VINA RESULT:      -8.0      3.299     12.582
REMARK  28 active torsions:
REMARK  status: ('A' for Active; 'I' for Inactive)
REMARK    1  A    between atoms: C_1  and  O_4 
REMARK    2  A    between atoms: C_2  and  N_6 
REMARK    3  A    between atoms: O_4  and  P_8 
REMARK    4  A    between atoms: C_5  and  O_10 
REMARK       I    between atoms: N_6  and  C_11 
REMARK    5  A    between atoms: C_7  and  C_12 
REMARK    6  A    between atoms: P_8  and  O_13 
REMARK    7  A    between atoms: P_8  and  O_14 
REMARK    8  A    between atoms: C_9  and  O_16 
REMARK    9  A    between atoms: O_10  and  C_17 
REMARK   10  A    between atoms: C_12  and  O_20 
REMARK   11  A    between atoms: O_13  and  P_21 
REMARK   12  A    between atoms: C_17  and  C_22 
REMARK   13  A    between atoms: P_21  and  O_24 
REMARK   14  A    between atoms: P_21  and  O_25 
REMARK       I    between atoms: C_22  and  N_27 
REMARK   15  A    between atoms: O_24  and  C_29 
REMARK   16  A    between atoms: C_30  and  N_27 
REMARK   17  A    between atoms: C_31  and  C_29 
REMARK   18  A    between atoms: C_30  and  C_32 
REMARK       I    between atoms: C_32  and  N_36 
REMARK   19  A    between atoms: C_35  and  O_40 
REMARK   20  A    between atoms: C_41  and  N_36 
REMARK   21  A    between atoms: C_38  and  N_42 
REMARK   22  A    between atoms: C_39  and  O_43 
REMARK   23  A    between atoms: C_41  and  C_44 
REMARK   24  A    between atoms: C_41  and  C_45 
REMARK   25  A    between atoms: C_44  and  C_48 
REMARK   26  A    between atoms: C_45  and  O_49 
REMARK   27  A    between atoms: C_48  and  C_54 
REMARK   28  A    between atoms: C_54  and  O_56 
ROOT
HETATM    1  C   UNK N   1      26.692  16.292   5.735  0.00  0.00     0.297 C 
HETATM    2  C   UNK N   1      27.890  15.720   4.955  0.00  0.00     0.171 C 
HETATM    3  O   UNK N   1      26.948  17.670   5.979  0.00  0.00    -0.348 OA
HETATM    4  C   UNK N   1      29.270  15.771   5.672  0.00  0.00     0.181 C 
HETATM    5  C   UNK N   1      28.250  17.935   6.525  0.00  0.00     0.179 C 
HETATM    6  C   UNK N   1      29.084  16.681   6.901  0.00  0.00     0.180 C 
ENDROOT
BRANCH   1   7
HETATM    7  O   UNK N   1      26.375  15.658   6.966  0.00  0.00    -0.263 OA
BRANCH   7   8
HETATM    8  P   UNK N   1      25.155  14.427   6.735  0.00  0.00     0.404 P 
HETATM    9  O   UNK N   1      25.583  14.345   8.226  0.00  0.00    -0.631 OA
BRANCH   8  10
HETATM   10  O   UNK N   1      23.631  14.364   7.579  0.00  0.00    -0.195 OA
BRANCH  10  11
HETATM   11  P   UNK N   1      22.348  14.217   6.383  0.00  0.00     0.401 P 
HETATM   12  O   UNK N   1      23.051  13.647   5.124  0.00  0.00    -0.631 OA
BRANCH  11  13
HETATM   13  O   UNK N   1      21.597  15.693   5.821  0.00  0.00    -0.294 OA
BRANCH  13  14
HETATM   14  C   UNK N   1      21.158  15.460   4.517  0.00  0.00     0.215 C 
BRANCH  14  15
HETATM   15  C   UNK N   1      20.214  16.556   4.038  0.00  0.00     0.180 C 
HETATM   16  O   UNK N   1      20.554  17.784   4.646  0.00  0.00    -0.353 OA
HETATM   17  C   UNK N   1      20.740  18.718   3.602  0.00  0.00     0.263 C 
HETATM   18  C   UNK N   1      20.209  18.166   2.299  0.00  0.00     0.198 C 
HETATM   19  C   UNK N   1      20.378  16.700   2.540  0.00  0.00     0.182 C 
BRANCH  17  20
HETATM   20  N   UNK N   1      22.114  19.235   3.536  0.00  0.00    -0.280 N 
HETATM   21  C   UNK N   1      22.496  20.347   2.800  0.00  0.00     0.331 A 
HETATM   22  N   UNK N   1      23.812  20.720   2.752  0.00  0.00    -0.275 N 
HETATM   23  O   UNK N   1      21.679  20.996   2.176  0.00  0.00    -0.246 OA
HETATM   24  C   UNK N   1      24.764  20.014   3.433  0.00  0.00     0.250 A 
HETATM   25  H   UNK N   1      24.076  21.505   2.221  0.00  0.00     0.173 HD
HETATM   26  O   UNK N   1      25.931  20.354   3.377  0.00  0.00    -0.268 OA
HETATM   27  C   UNK N   1      24.397  18.908   4.187  0.00  0.00     0.092 A 
HETATM   28  C   UNK N   1      23.059  18.529   4.217  0.00  0.00     0.104 A 
ENDBRANCH  17  20
BRANCH  18  29
HETATM   29  O   UNK N   1      18.851  18.489   2.220  0.00  0.00    -0.388 OA
HETATM   30  H   UNK N   1      18.357  18.978   2.898  0.00  0.00     0.210 HD
ENDBRANCH  18  29
BRANCH  19  31
HETATM   31  O   UNK N   1      19.421  15.950   1.847  0.00  0.00    -0.390 OA
HETATM   32  H   UNK N   1      19.188  15.037   2.077  0.00  0.00     0.210 HD
ENDBRANCH  19  31
ENDBRANCH  14  15
ENDBRANCH  13  14
ENDBRANCH  11  13
BRANCH  11  33
HETATM   33  O   UNK N   1      21.189  12.999   6.812  0.00  0.00    -0.307 OA
HETATM   34  H   UNK N   1      21.052  12.741   7.737  0.00  0.00     0.222 HD
ENDBRANCH  11  33
ENDBRANCH  10  11
ENDBRANCH   8  10
BRANCH   8  35
HETATM   35  O   UNK N   1      24.390  15.968   6.491  0.00  0.00    -0.307 OA
HETATM   36  H   UNK N   1      24.804  16.682   5.982  0.00  0.00     0.222 HD
ENDBRANCH   8  35
ENDBRANCH   7   8
ENDBRANCH   1   7
BRANCH   2  37
HETATM   37  N   UNK N   1      27.594  14.666   3.993  0.00  0.00    -0.349 N 
HETATM   38  C   UNK N   1      26.993  14.819   2.785  0.00  0.00     0.214 C 
HETATM   39  C   UNK N   1      26.629  13.610   2.002  0.00  0.00     0.117 C 
HETATM   40  O   UNK N   1      26.713  15.924   2.346  0.00  0.00    -0.274 OA
HETATM   41  H   UNK N   1      27.856  13.751   4.244  0.00  0.00     0.163 HD
ENDBRANCH   2  37
BRANCH   4  42
HETATM   42  O   UNK N   1      30.318  16.304   4.870  0.00  0.00    -0.367 OA
BRANCH  42  43
HETATM   43  C   UNK N   1      31.179  15.285   4.425  0.00  0.00     0.209 C 
HETATM   44  C   UNK N   1      31.104  15.213   2.905  0.00  0.00     0.050 C 
BRANCH  43  45
HETATM   45  C   UNK N   1      32.599  15.520   4.790  0.00  0.00     0.247 C 
HETATM   46  N   UNK N   1      32.905  15.990   6.024  0.00  0.00    -0.346 N 
HETATM   47  H   UNK N   1      32.268  15.834   6.759  0.00  0.00     0.163 HD
HETATM   48  O   UNK N   1      33.453  15.452   3.917  0.00  0.00    -0.271 OA
BRANCH  46  49
HETATM   49  C   UNK N   1      34.126  16.709   6.308  0.00  0.00     0.172 C 
HETATM   50  C   UNK N   1      33.846  17.911   7.207  0.00  0.00     0.042 C 
BRANCH  49  51
HETATM   51  C   UNK N   1      35.094  15.714   6.924  0.00  0.00     0.240 C 
HETATM   52  N   UNK N   1      35.187  15.521   8.272  0.00  0.00    -0.345 N 
HETATM   53  H   UNK N   1      35.958  14.988   8.573  0.00  0.00     0.163 HD
HETATM   54  O   UNK N   1      35.876  15.119   6.198  0.00  0.00    -0.271 OA
BRANCH  52  55
HETATM   55  C   UNK N   1      34.299  15.998   9.323  0.00  0.00     0.182 C 
BRANCH  55  56
HETATM   56  C   UNK N   1      35.042  16.507  10.551  0.00  0.00     0.046 C 
BRANCH  56  57
HETATM   57  C   UNK N   1      36.128  15.536  11.014  0.00  0.00     0.112 C 
BRANCH  57  58
HETATM   58  C   UNK N   1      35.793  14.888  12.324  0.00  0.00     0.139 C 
HETATM   59  O   UNK N   1      34.879  14.084  12.385  0.00  0.00    -0.650 OA
BRANCH  58  60
HETATM   60  O   UNK N   1      36.495  15.194  13.431  0.00  0.00    -0.776 OA
HETATM   61  H   UNK N   1      36.409  15.701  14.215  0.00  0.00     0.167 HD
ENDBRANCH  58  60
ENDBRANCH  57  58
ENDBRANCH  56  57
ENDBRANCH  55  56
BRANCH  55  62
HETATM   62  C   UNK N   1      33.007  15.273   9.588  0.00  0.00     0.163 C 
HETATM   63  O   UNK N   1      32.220  15.087   8.676  0.00  0.00    -0.648 OA
BRANCH  62  64
HETATM   64  O   UNK N   1      32.637  14.989  10.854  0.00  0.00    -0.775 OA
HETATM   65  H   UNK N   1      32.190  14.955  11.676  0.00  0.00     0.167 HD
ENDBRANCH  62  64
ENDBRANCH  55  62
ENDBRANCH  52  55
ENDBRANCH  49  51
ENDBRANCH  46  49
ENDBRANCH  43  45
ENDBRANCH  42  43
ENDBRANCH   4  42
BRANCH   5  66
HETATM   66  C   UNK N   1      28.127  18.914   7.684  0.00  0.00     0.198 C 
BRANCH  66  67
HETATM   67  O   UNK N   1      27.072  19.800   7.468  0.00  0.00    -0.398 OA
HETATM   68  H   UNK N   1      26.846  20.497   8.102  0.00  0.00     0.209 HD
ENDBRANCH  66  67
ENDBRANCH   5  66
BRANCH   6  69
HETATM   69  O   UNK N   1      30.316  17.019   7.467  0.00  0.00    -0.390 OA
HETATM   70  H   UNK N   1      31.245  17.168   7.228  0.00  0.00     0.210 HD
ENDBRANCH   6  69
TORSDOF 28
ENDMDL
MODEL 7
REMARK VINA RESULT:      -7.9      2.454      4.496
REMARK  28 active torsions:
REMARK  status: ('A' for Active; 'I' for Inactive)
REMARK    1  A    between atoms: C_1  and  O_4 
REMARK    2  A    between atoms: C_2  and  N_6 
REMARK    3  A    between atoms: O_4  and  P_8 
REMARK    4  A    between atoms: C_5  and  O_10 
REMARK       I    between atoms: N_6  and  C_11 
REMARK    5  A    between atoms: C_7  and  C_12 
REMARK    6  A    between atoms: P_8  and  O_13 
REMARK    7  A    between atoms: P_8  and  O_14 
REMARK    8  A    between atoms: C_9  and  O_16 
REMARK    9  A    between atoms: O_10  and  C_17 
REMARK   10  A    between atoms: C_12  and  O_20 
REMARK   11  A    between atoms: O_13  and  P_21 
REMARK   12  A    between atoms: C_17  and  C_22 
REMARK   13  A    between atoms: P_21  and  O_24 
REMARK   14  A    between atoms: P_21  and  O_25 
REMARK       I    between atoms: C_22  and  N_27 
REMARK   15  A    between atoms: O_24  and  C_29 
REMARK   16  A    between atoms: C_30  and  N_27 
REMARK   17  A    between atoms: C_31  and  C_29 
REMARK   18  A    between atoms: C_30  and  C_32 
REMARK       I    between atoms: C_32  and  N_36 
REMARK   19  A    between atoms: C_35  and  O_40 
REMARK   20  A    between atoms: C_41  and  N_36 
REMARK   21  A    between atoms: C_38  and  N_42 
REMARK   22  A    between atoms: C_39  and  O_43 
REMARK   23  A    between atoms: C_41  and  C_44 
REMARK   24  A    between atoms: C_41  and  C_45 
REMARK   25  A    between atoms: C_44  and  C_48 
REMARK   26  A    between atoms: C_45  and  O_49 
REMARK   27  A    between atoms: C_48  and  C_54 
REMARK   28  A    between atoms: C_54  and  O_56 
ROOT
HETATM    1  C   UNK N   1      29.975  17.528   5.973  0.00  0.00     0.297 C 
HETATM    2  C   UNK N   1      28.473  17.484   5.640  0.00  0.00     0.171 C 
HETATM    3  O   UNK N   1      30.678  16.905   4.905  0.00  0.00    -0.348 OA
HETATM    4  C   UNK N   1      27.839  16.071   5.487  0.00  0.00     0.181 C 
HETATM    5  C   UNK N   1      30.146  15.626   4.522  0.00  0.00     0.179 C 
HETATM    6  C   UNK N   1      29.013  15.075   5.430  0.00  0.00     0.180 C 
ENDROOT
BRANCH   1   7
HETATM    7  O   UNK N   1      30.371  16.926   7.198  0.00  0.00    -0.263 OA
BRANCH   7   8
HETATM    8  P   UNK N   1      31.973  17.453   7.660  0.00  0.00     0.404 P 
HETATM    9  O   UNK N   1      31.023  17.871   8.816  0.00  0.00    -0.631 OA
BRANCH   8  10
HETATM   10  O   UNK N   1      32.825  16.918   9.083  0.00  0.00    -0.195 OA
BRANCH  10  11
HETATM   11  P   UNK N   1      34.547  17.176   8.820  0.00  0.00     0.401 P 
HETATM   12  O   UNK N   1      34.978  16.014   7.889  0.00  0.00    -0.631 OA
BRANCH  11  13
HETATM   13  O   UNK N   1      35.604  17.027  10.206  0.00  0.00    -0.294 OA
BRANCH  13  14
HETATM   14  C   UNK N   1      35.027  16.090  11.065  0.00  0.00     0.215 C 
BRANCH  14  15
HETATM   15  C   UNK N   1      36.060  15.105  11.599  0.00  0.00     0.180 C 
HETATM   16  O   UNK N   1      35.413  14.057  12.289  0.00  0.00    -0.353 OA
HETATM   17  C   UNK N   1      35.865  12.850  11.712  0.00  0.00     0.263 C 
HETATM   18  C   UNK N   1      37.066  13.103  10.830  0.00  0.00     0.198 C 
HETATM   19  C   UNK N   1      36.805  14.517  10.420  0.00  0.00     0.182 C 
BRANCH  17  20
HETATM   20  N   UNK N   1      34.786  12.082  11.073  0.00  0.00    -0.280 N 
HETATM   21  C   UNK N   1      34.196  10.955  11.626  0.00  0.00     0.331 A 
HETATM   22  N   UNK N   1      33.236  10.271  10.930  0.00  0.00    -0.275 N 
HETATM   23  O   UNK N   1      34.529  10.548  12.722  0.00  0.00    -0.246 OA
HETATM   24  C   UNK N   1      32.838  10.690   9.691  0.00  0.00     0.250 A 
HETATM   25  H   UNK N   1      32.828   9.467  11.325  0.00  0.00     0.173 HD
HETATM   26  O   UNK N   1      31.988  10.069   9.082  0.00  0.00    -0.268 OA
HETATM   27  C   UNK N   1      33.408  11.825   9.130  0.00  0.00     0.092 A 
HETATM   28  C   UNK N   1      34.392  12.504   9.840  0.00  0.00     0.104 A 
ENDBRANCH  17  20
BRANCH  18  29
HETATM   29  O   UNK N   1      38.208  13.036  11.635  0.00  0.00    -0.388 OA
HETATM   30  H   UNK N   1      38.220  12.732  12.556  0.00  0.00     0.210 HD
ENDBRANCH  18  29
BRANCH  19  31
HETATM   31  O   UNK N   1      37.994  15.210  10.171  0.00  0.00    -0.390 OA
HETATM   32  H   UNK N   1      38.858  14.930  10.513  0.00  0.00     0.210 HD
ENDBRANCH  19  31
ENDBRANCH  14  15
ENDBRANCH  13  14
ENDBRANCH  11  13
BRANCH  11  33
HETATM   33  O   UNK N   1      34.861  18.606   7.891  0.00  0.00    -0.307 OA
HETATM   34  H   UNK N   1      34.233  19.346   7.881  0.00  0.00     0.222 HD
ENDBRANCH  11  33
ENDBRANCH  10  11
ENDBRANCH   8  10
BRANCH   8  35
HETATM   35  O   UNK N   1      31.995  15.716   7.600  0.00  0.00    -0.307 OA
HETATM   36  H   UNK N   1      32.734  15.191   7.944  0.00  0.00     0.222 HD
ENDBRANCH   8  35
ENDBRANCH   7   8
ENDBRANCH   1   7
BRANCH   2  37
HETATM   37  N   UNK N   1      27.671  18.607   6.107  0.00  0.00    -0.349 N 
HETATM   38  C   UNK N   1      27.579  19.832   5.526  0.00  0.00     0.214 C 
HETATM   39  C   UNK N   1      26.835  20.909   6.229  0.00  0.00     0.117 C 
HETATM   40  O   UNK N   1      28.123  20.076   4.460  0.00  0.00    -0.274 OA
HETATM   41  H   UNK N   1      27.144  18.465   6.926  0.00  0.00     0.163 HD
ENDBRANCH   2  37
BRANCH   4  42
HETATM   42  O   UNK N   1      27.056  15.913   4.309  0.00  0.00    -0.367 OA
BRANCH  42  43
HETATM   43  C   UNK N   1      25.789  15.384   4.614  0.00  0.00     0.209 C 
HETATM   44  C   UNK N   1      25.371  15.886   5.991  0.00  0.00     0.050 C 
BRANCH  43  45
HETATM   45  C   UNK N   1      24.737  15.798   3.651  0.00  0.00     0.247 C 
HETATM   46  N   UNK N   1      23.444  15.463   3.884  0.00  0.00    -0.346 N 
HETATM   47  H   UNK N   1      23.164  15.283   4.812  0.00  0.00     0.163 HD
HETATM   48  O   UNK N   1      25.074  16.281   2.579  0.00  0.00    -0.271 OA
BRANCH  46  49
HETATM   49  C   UNK N   1      22.460  15.358   2.832  0.00  0.00     0.172 C 
HETATM   50  C   UNK N   1      22.655  14.067   2.040  0.00  0.00     0.042 C 
BRANCH  49  51
HETATM   51  C   UNK N   1      21.094  15.455   3.490  0.00  0.00     0.240 C 
HETATM   52  N   UNK N   1      20.242  16.495   3.258  0.00  0.00    -0.345 N 
HETATM   53  H   UNK N   1      19.465  16.552   3.860  0.00  0.00     0.163 HD
HETATM   54  O   UNK N   1      20.773  14.616   4.318  0.00  0.00    -0.271 OA
BRANCH  52  55
HETATM   55  C   UNK N   1      20.328  17.533   2.239  0.00  0.00     0.182 C 
BRANCH  55  56
HETATM   56  C   UNK N   1      19.810  18.884   2.714  0.00  0.00     0.046 C 
BRANCH  56  57
HETATM   57  C   UNK N   1      20.914  19.744   3.330  0.00  0.00     0.112 C 
BRANCH  57  58
HETATM   58  C   UNK N   1      21.435  20.773   2.373  0.00  0.00     0.139 C 
HETATM   59  O   UNK N   1      21.215  20.658   1.180  0.00  0.00    -0.650 OA
BRANCH  58  60
HETATM   60  O   UNK N   1      22.149  21.820   2.827  0.00  0.00    -0.776 OA
HETATM   61  H   UNK N   1      22.977  22.237   2.685  0.00  0.00     0.167 HD
ENDBRANCH  58  60
ENDBRANCH  57  58
ENDBRANCH  56  57
ENDBRANCH  55  56
BRANCH  55  62
HETATM   62  C   UNK N   1      20.046  17.187   0.802  0.00  0.00     0.163 C 
HETATM   63  O   UNK N   1      19.668  16.063   0.514  0.00  0.00    -0.648 OA
BRANCH  62  64
HETATM   64  O   UNK N   1      20.377  18.049  -0.181  0.00  0.00    -0.775 OA
HETATM   65  H   UNK N   1      20.536  18.452  -1.011  0.00  0.00     0.167 HD
ENDBRANCH  62  64
ENDBRANCH  55  62
ENDBRANCH  52  55
ENDBRANCH  49  51
ENDBRANCH  46  49
ENDBRANCH  43  45
ENDBRANCH  42  43
ENDBRANCH   4  42
BRANCH   5  66
HETATM   66  C   UNK N   1      31.285  14.630   4.354  0.00  0.00     0.198 C 
BRANCH  66  67
HETATM   67  O   UNK N   1      31.453  13.876   5.515  0.00  0.00    -0.398 OA
HETATM   68  H   UNK N   1      32.278  13.407   5.711  0.00  0.00     0.209 HD
ENDBRANCH  66  67
ENDBRANCH   5  66
BRANCH   6  69
HETATM   69  O   UNK N   1      28.581  13.810   5.024  0.00  0.00    -0.390 OA
HETATM   70  H   UNK N   1      27.775  13.325   4.786  0.00  0.00     0.210 HD
ENDBRANCH   6  69
TORSDOF 28
ENDMDL
MODEL 8
REMARK VINA RESULT:      -7.9      2.426      4.971
REMARK  28 active torsions:
REMARK  status: ('A' for Active; 'I' for Inactive)
REMARK    1  A    between atoms: C_1  and  O_4 
REMARK    2  A    between atoms: C_2  and  N_6 
REMARK    3  A    between atoms: O_4  and  P_8 
REMARK    4  A    between atoms: C_5  and  O_10 
REMARK       I    between atoms: N_6  and  C_11 
REMARK    5  A    between atoms: C_7  and  C_12 
REMARK    6  A    between atoms: P_8  and  O_13 
REMARK    7  A    between atoms: P_8  and  O_14 
REMARK    8  A    between atoms: C_9  and  O_16 
REMARK    9  A    between atoms: O_10  and  C_17 
REMARK   10  A    between atoms: C_12  and  O_20 
REMARK   11  A    between atoms: O_13  and  P_21 
REMARK   12  A    between atoms: C_17  and  C_22 
REMARK   13  A    between atoms: P_21  and  O_24 
REMARK   14  A    between atoms: P_21  and  O_25 
REMARK       I    between atoms: C_22  and  N_27 
REMARK   15  A    between atoms: O_24  and  C_29 
REMARK   16  A    between atoms: C_30  and  N_27 
REMARK   17  A    between atoms: C_31  and  C_29 
REMARK   18  A    between atoms: C_30  and  C_32 
REMARK       I    between atoms: C_32  and  N_36 
REMARK   19  A    between atoms: C_35  and  O_40 
REMARK   20  A    between atoms: C_41  and  N_36 
REMARK   21  A    between atoms: C_38  and  N_42 
REMARK   22  A    between atoms: C_39  and  O_43 
REMARK   23  A    between atoms: C_41  and  C_44 
REMARK   24  A    between atoms: C_41  and  C_45 
REMARK   25  A    between atoms: C_44  and  C_48 
REMARK   26  A    between atoms: C_45  and  O_49 
REMARK   27  A    between atoms: C_48  and  C_54 
REMARK   28  A    between atoms: C_54  and  O_56 
ROOT
HETATM    1  C   UNK N   1      28.983  17.828   5.387  0.00  0.00     0.297 C 
HETATM    2  C   UNK N   1      27.476  18.135   5.459  0.00  0.00     0.171 C 
HETATM    3  O   UNK N   1      29.278  17.399   4.063  0.00  0.00    -0.348 OA
HETATM    4  C   UNK N   1      26.513  16.946   5.177  0.00  0.00     0.181 C 
HETATM    5  C   UNK N   1      28.395  16.380   3.567  0.00  0.00     0.179 C 
HETATM    6  C   UNK N   1      27.384  15.813   4.600  0.00  0.00     0.180 C 
ENDROOT
BRANCH   1   7
HETATM    7  O   UNK N   1      29.479  16.863   6.305  0.00  0.00    -0.263 OA
BRANCH   7   8
HETATM    8  P   UNK N   1      31.226  16.896   6.359  0.00  0.00     0.404 P 
HETATM    9  O   UNK N   1      30.736  17.179   7.807  0.00  0.00    -0.631 OA
BRANCH   8  10
HETATM   10  O   UNK N   1      32.212  15.832   7.324  0.00  0.00    -0.195 OA
BRANCH  10  11
HETATM   11  P   UNK N   1      33.649  16.718   7.823  0.00  0.00     0.401 P 
HETATM   12  O   UNK N   1      34.039  17.559   6.580  0.00  0.00    -0.631 OA
BRANCH  11  13
HETATM   13  O   UNK N   1      35.087  15.787   8.176  0.00  0.00    -0.294 OA
BRANCH  13  14
HETATM   14  C   UNK N   1      34.718  14.784   9.074  0.00  0.00     0.215 C 
BRANCH  14  15
HETATM   15  C   UNK N   1      35.023  15.179  10.514  0.00  0.00     0.180 C 
HETATM   16  O   UNK N   1      34.131  14.523  11.391  0.00  0.00    -0.353 OA
HETATM   17  C   UNK N   1      34.923  13.846  12.345  0.00  0.00     0.263 C 
HETATM   18  C   UNK N   1      36.356  14.321  12.274  0.00  0.00     0.198 C 
HETATM   19  C   UNK N   1      36.432  14.733  10.838  0.00  0.00     0.182 C 
BRANCH  17  20
HETATM   20  N   UNK N   1      34.756  12.386  12.295  0.00  0.00    -0.280 N 
HETATM   21  C   UNK N   1      34.606  11.578  13.412  0.00  0.00     0.331 A 
HETATM   22  N   UNK N   1      34.514  10.220  13.270  0.00  0.00    -0.275 N 
HETATM   23  O   UNK N   1      34.568  12.056  14.530  0.00  0.00    -0.246 OA
HETATM   24  C   UNK N   1      34.559   9.642  12.032  0.00  0.00     0.250 A 
HETATM   25  H   UNK N   1      34.415   9.653  14.068  0.00  0.00     0.173 HD
HETATM   26  O   UNK N   1      34.483   8.433  11.922  0.00  0.00    -0.268 OA
HETATM   27  C   UNK N   1      34.695  10.438  10.903  0.00  0.00     0.092 A 
HETATM   28  C   UNK N   1      34.801  11.816  11.060  0.00  0.00     0.104 A 
ENDBRANCH  17  20
BRANCH  18  29
HETATM   29  O   UNK N   1      36.478  15.439  13.105  0.00  0.00    -0.388 OA
HETATM   30  H   UNK N   1      36.629  15.404  14.062  0.00  0.00     0.210 HD
ENDBRANCH  18  29
BRANCH  19  31
HETATM   31  O   UNK N   1      37.352  15.768  10.647  0.00  0.00    -0.390 OA
HETATM   32  H   UNK N   1      37.784  15.950   9.798  0.00  0.00     0.210 HD
ENDBRANCH  19  31
ENDBRANCH  14  15
ENDBRANCH  13  14
ENDBRANCH  11  13
BRANCH  11  33
HETATM   33  O   UNK N   1      33.301  17.898   9.045  0.00  0.00    -0.307 OA
HETATM   34  H   UNK N   1      32.557  18.513   8.950  0.00  0.00     0.222 HD
ENDBRANCH  11  33
ENDBRANCH  10  11
ENDBRANCH   8  10
BRANCH   8  35
HETATM   35  O   UNK N   1      30.750  15.276   5.951  0.00  0.00    -0.307 OA
HETATM   36  H   UNK N   1      31.388  14.597   5.680  0.00  0.00     0.222 HD
ENDBRANCH   8  35
ENDBRANCH   7   8
ENDBRANCH   1   7
BRANCH   2  37
HETATM   37  N   UNK N   1      27.076  19.216   6.351  0.00  0.00    -0.349 N 
HETATM   38  C   UNK N   1      26.753  20.484   5.991  0.00  0.00     0.214 C 
HETATM   39  C   UNK N   1      26.521  21.499   7.051  0.00  0.00     0.117 C 
HETATM   40  O   UNK N   1      26.686  20.818   4.817  0.00  0.00    -0.274 OA
HETATM   41  H   UNK N   1      27.036  19.005   7.312  0.00  0.00     0.163 HD
ENDBRANCH   2  37
BRANCH   4  42
HETATM   42  O   UNK N   1      25.484  17.246   4.241  0.00  0.00    -0.367 OA
BRANCH  42  43
HETATM   43  C   UNK N   1      24.236  17.347   4.881  0.00  0.00     0.209 C 
HETATM   44  C   UNK N   1      23.783  18.801   4.838  0.00  0.00     0.050 C 
BRANCH  43  45
HETATM   45  C   UNK N   1      23.178  16.532   4.231  0.00  0.00     0.247 C 
HETATM   46  N   UNK N   1      21.880  16.720   4.573  0.00  0.00    -0.346 N 
HETATM   47  H   UNK N   1      21.614  17.591   4.949  0.00  0.00     0.163 HD
HETATM   48  O   UNK N   1      23.509  15.587   3.528  0.00  0.00    -0.271 OA
BRANCH  46  49
HETATM   49  C   UNK N   1      20.871  15.700   4.409  0.00  0.00     0.172 C 
HETATM   50  C   UNK N   1      20.841  14.773   5.622  0.00  0.00     0.042 C 
BRANCH  49  51
HETATM   51  C   UNK N   1      19.552  16.414   4.169  0.00  0.00     0.240 C 
HETATM   52  N   UNK N   1      19.376  17.306   3.151  0.00  0.00    -0.345 N 
HETATM   53  H   UNK N   1      18.549  17.837   3.188  0.00  0.00     0.163 HD
HETATM   54  O   UNK N   1      18.635  16.248   4.959  0.00  0.00    -0.271 OA
BRANCH  52  55
HETATM   55  C   UNK N   1      20.251  17.577   2.017  0.00  0.00     0.182 C 
BRANCH  55  56
HETATM   56  C   UNK N   1      21.043  18.869   2.166  0.00  0.00     0.046 C 
BRANCH  56  57
HETATM   57  C   UNK N   1      20.156  20.109   2.046  0.00  0.00     0.112 C 
BRANCH  57  58
HETATM   58  C   UNK N   1      20.627  21.045   0.974  0.00  0.00     0.139 C 
HETATM   59  O   UNK N   1      21.287  20.616   0.043  0.00  0.00    -0.650 OA
BRANCH  58  60
HETATM   60  O   UNK N   1      20.328  22.356   1.039  0.00  0.00    -0.776 OA
HETATM   61  H   UNK N   1      20.628  23.138   1.460  0.00  0.00     0.167 HD
ENDBRANCH  58  60
ENDBRANCH  57  58
ENDBRANCH  56  57
ENDBRANCH  55  56
BRANCH  55  62
HETATM   62  C   UNK N   1      19.783  17.247   0.625  0.00  0.00     0.163 C 
HETATM   63  O   UNK N   1      20.544  17.386  -0.317  0.00  0.00    -0.648 OA
BRANCH  62  64
HETATM   64  O   UNK N   1      18.483  16.973   0.395  0.00  0.00    -0.775 OA
HETATM   65  H   UNK N   1      17.564  17.037   0.223  0.00  0.00     0.167 HD
ENDBRANCH  62  64
ENDBRANCH  55  62
ENDBRANCH  52  55
ENDBRANCH  49  51
ENDBRANCH  46  49
ENDBRANCH  43  45
ENDBRANCH  42  43
ENDBRANCH   4  42
BRANCH   5  66
HETATM   66  C   UNK N   1      29.209  15.283   2.895  0.00  0.00     0.198 C 
BRANCH  66  67
HETATM   67  O   UNK N   1      28.461  14.659   1.897  0.00  0.00    -0.398 OA
HETATM   68  H   UNK N   1      27.788  13.991   2.099  0.00  0.00     0.209 HD
ENDBRANCH  66  67
ENDBRANCH   5  66
BRANCH   6  69
HETATM   69  O   UNK N   1      26.593  14.797   4.059  0.00  0.00    -0.390 OA
HETATM   70  H   UNK N   1      25.667  14.579   3.865  0.00  0.00     0.210 HD
ENDBRANCH   6  69
TORSDOF 28
ENDMDL
MODEL 9
REMARK VINA RESULT:      -7.9      2.511     13.265
REMARK  28 active torsions:
REMARK  status: ('A' for Active; 'I' for Inactive)
REMARK    1  A    between atoms: C_1  and  O_4 
REMARK    2  A    between atoms: C_2  and  N_6 
REMARK    3  A    between atoms: O_4  and  P_8 
REMARK    4  A    between atoms: C_5  and  O_10 
REMARK       I    between atoms: N_6  and  C_11 
REMARK    5  A    between atoms: C_7  and  C_12 
REMARK    6  A    between atoms: P_8  and  O_13 
REMARK    7  A    between atoms: P_8  and  O_14 
REMARK    8  A    between atoms: C_9  and  O_16 
REMARK    9  A    between atoms: O_10  and  C_17 
REMARK   10  A    between atoms: C_12  and  O_20 
REMARK   11  A    between atoms: O_13  and  P_21 
REMARK   12  A    between atoms: C_17  and  C_22 
REMARK   13  A    between atoms: P_21  and  O_24 
REMARK   14  A    between atoms: P_21  and  O_25 
REMARK       I    between atoms: C_22  and  N_27 
REMARK   15  A    between atoms: O_24  and  C_29 
REMARK   16  A    between atoms: C_30  and  N_27 
REMARK   17  A    between atoms: C_31  and  C_29 
REMARK   18  A    between atoms: C_30  and  C_32 
REMARK       I    between atoms: C_32  and  N_36 
REMARK   19  A    between atoms: C_35  and  O_40 
REMARK   20  A    between atoms: C_41  and  N_36 
REMARK   21  A    between atoms: C_38  and  N_42 
REMARK   22  A    between atoms: C_39  and  O_43 
REMARK   23  A    between atoms: C_41  and  C_44 
REMARK   24  A    between atoms: C_41  and  C_45 
REMARK   25  A    between atoms: C_44  and  C_48 
REMARK   26  A    between atoms: C_45  and  O_49 
REMARK   27  A    between atoms: C_48  and  C_54 
REMARK   28  A    between atoms: C_54  and  O_56 
ROOT
HETATM    1  C   UNK N   1      34.098  15.573   5.860  0.00  0.00     0.297 C 
HETATM    2  C   UNK N   1      34.422  14.349   6.736  0.00  0.00     0.171 C 
HETATM    3  O   UNK N   1      34.793  16.691   6.398  0.00  0.00    -0.348 OA
HETATM    4  C   UNK N   1      33.991  14.433   8.229  0.00  0.00     0.181 C 
HETATM    5  C   UNK N   1      34.624  16.858   7.815  0.00  0.00     0.179 C 
HETATM    6  C   UNK N   1      33.600  15.902   8.483  0.00  0.00     0.180 C 
ENDROOT
BRANCH   1   7
HETATM    7  O   UNK N   1      32.724  15.908   5.721  0.00  0.00    -0.263 OA
BRANCH   7   8
HETATM    8  P   UNK N   1      32.441  16.760   4.220  0.00  0.00     0.404 P 
HETATM    9  O   UNK N   1      32.431  15.245   3.874  0.00  0.00    -0.631 OA
BRANCH   8  10
HETATM   10  O   UNK N   1      31.014  16.590   3.234  0.00  0.00    -0.195 OA
BRANCH  10  11
HETATM   11  P   UNK N   1      29.833  15.647   4.137  0.00  0.00     0.401 P 
HETATM   12  O   UNK N   1      29.185  14.717   3.079  0.00  0.00    -0.631 OA
BRANCH  11  13
HETATM   13  O   UNK N   1      28.479  16.507   4.834  0.00  0.00    -0.294 OA
BRANCH  13  14
HETATM   14  C   UNK N   1      28.000  17.384   3.857  0.00  0.00     0.215 C 
BRANCH  14  15
HETATM   15  C   UNK N   1      27.957  18.820   4.363  0.00  0.00     0.180 C 
HETATM   16  O   UNK N   1      27.116  19.596   3.536  0.00  0.00    -0.353 OA
HETATM   17  C   UNK N   1      26.164  20.207   4.382  0.00  0.00     0.263 C 
HETATM   18  C   UNK N   1      26.580  20.073   5.828  0.00  0.00     0.198 C 
HETATM   19  C   UNK N   1      27.379  18.811   5.762  0.00  0.00     0.182 C 
BRANCH  17  20
HETATM   20  N   UNK N   1      24.787  19.779   4.096  0.00  0.00    -0.280 N 
HETATM   21  C   UNK N   1      23.979  20.345   3.121  0.00  0.00     0.331 A 
HETATM   22  N   UNK N   1      22.688  19.919   2.966  0.00  0.00    -0.275 N 
HETATM   23  O   UNK N   1      24.394  21.234   2.402  0.00  0.00    -0.246 OA
HETATM   24  C   UNK N   1      22.179  18.926   3.757  0.00  0.00     0.250 A 
HETATM   25  H   UNK N   1      22.118  20.330   2.278  0.00  0.00     0.173 HD
HETATM   26  O   UNK N   1      21.028  18.562   3.613  0.00  0.00    -0.268 OA
HETATM   27  C   UNK N   1      22.979  18.339   4.728  0.00  0.00     0.092 A 
HETATM   28  C   UNK N   1      24.286  18.790   4.886  0.00  0.00     0.104 A 
ENDBRANCH  17  20
BRANCH  18  29
HETATM   29  O   UNK N   1      27.410  21.155   6.137  0.00  0.00    -0.388 OA
HETATM   30  H   UNK N   1      27.121  22.081   6.177  0.00  0.00     0.210 HD
ENDBRANCH  18  29
BRANCH  19  31
HETATM   31  O   UNK N   1      28.388  18.788   6.731  0.00  0.00    -0.390 OA
HETATM   32  H   UNK N   1      28.217  18.859   7.683  0.00  0.00     0.210 HD
ENDBRANCH  19  31
ENDBRANCH  14  15
ENDBRANCH  13  14
ENDBRANCH  11  13
BRANCH  11  33
HETATM   33  O   UNK N   1      30.582  14.559   5.260  0.00  0.00    -0.307 OA
HETATM   34  H   UNK N   1      30.051  14.002   5.849  0.00  0.00     0.222 HD
ENDBRANCH  11  33
ENDBRANCH  10  11
ENDBRANCH   8  10
BRANCH   8  35
HETATM   35  O   UNK N   1      31.082  17.070   5.258  0.00  0.00    -0.307 OA
HETATM   36  H   UNK N   1      31.052  17.824   5.867  0.00  0.00     0.222 HD
ENDBRANCH   8  35
ENDBRANCH   7   8
ENDBRANCH   1   7
BRANCH   2  37
HETATM   37  N   UNK N   1      34.484  13.062   6.055  0.00  0.00    -0.349 N 
HETATM   38  C   UNK N   1      33.448  12.212   5.836  0.00  0.00     0.214 C 
HETATM   39  C   UNK N   1      33.727  10.868   5.265  0.00  0.00     0.117 C 
HETATM   40  O   UNK N   1      32.302  12.511   6.132  0.00  0.00    -0.274 OA
HETATM   41  H   UNK N   1      35.366  12.780   5.722  0.00  0.00     0.163 HD
ENDBRANCH   2  37
BRANCH   4  42
HETATM   42  O   UNK N   1      35.018  14.075   9.147  0.00  0.00    -0.367 OA
BRANCH  42  43
HETATM   43  C   UNK N   1      34.699  12.880   9.817  0.00  0.00     0.209 C 
HETATM   44  C   UNK N   1      35.642  11.784   9.335  0.00  0.00     0.050 C 
BRANCH  43  45
HETATM   45  C   UNK N   1      34.849  12.980  11.291  0.00  0.00     0.247 C 
HETATM   46  N   UNK N   1      35.303  11.913  11.993  0.00  0.00    -0.346 N 
HETATM   47  H   UNK N   1      35.852  11.241  11.526  0.00  0.00     0.163 HD
HETATM   48  O   UNK N   1      34.398  13.961  11.866  0.00  0.00    -0.271 OA
BRANCH  46  49
HETATM   49  C   UNK N   1      35.018  11.719  13.396  0.00  0.00     0.172 C 
HETATM   50  C   UNK N   1      33.832  10.775  13.579  0.00  0.00     0.042 C 
BRANCH  49  51
HETATM   51  C   UNK N   1      36.294  11.209  14.042  0.00  0.00     0.240 C 
HETATM   52  N   UNK N   1      36.974  11.922  14.986  0.00  0.00    -0.345 N 
HETATM   53  H   UNK N   1      37.871  11.586  15.211  0.00  0.00     0.163 HD
HETATM   54  O   UNK N   1      36.778  10.157  13.652  0.00  0.00    -0.271 OA
BRANCH  52  55
HETATM   55  C   UNK N   1      36.550  13.117  15.705  0.00  0.00     0.182 C 
BRANCH  55  56
HETATM   56  C   UNK N   1      35.168  12.981  16.332  0.00  0.00     0.046 C 
BRANCH  56  57
HETATM   57  C   UNK N   1      35.223  12.341  17.719  0.00  0.00     0.112 C 
BRANCH  57  58
HETATM   58  C   UNK N   1      35.246  13.361  18.817  0.00  0.00     0.139 C 
HETATM   59  O   UNK N   1      35.265  14.549  18.540  0.00  0.00    -0.650 OA
BRANCH  58  60
HETATM   60  O   UNK N   1      35.249  12.971  20.105  0.00  0.00    -0.776 OA
HETATM   61  H   UNK N   1      35.856  12.773  20.791  0.00  0.00     0.167 HD
ENDBRANCH  58  60
ENDBRANCH  57  58
ENDBRANCH  56  57
ENDBRANCH  55  56
BRANCH  55  62
HETATM   62  C   UNK N   1      36.892  14.475  15.153  0.00  0.00     0.163 C 
HETATM   63  O   UNK N   1      36.546  14.772  14.022  0.00  0.00    -0.648 OA
BRANCH  62  64
HETATM   64  O   UNK N   1      37.727  15.290  15.829  0.00  0.00    -0.775 OA
HETATM   65  H   UNK N   1      38.454  15.819  16.091  0.00  0.00     0.167 HD
ENDBRANCH  62  64
ENDBRANCH  55  62
ENDBRANCH  52  55
ENDBRANCH  49  51
ENDBRANCH  46  49
ENDBRANCH  43  45
ENDBRANCH  42  43
ENDBRANCH   4  42
BRANCH   5  66
HETATM   66  C   UNK N   1      34.334  18.320   8.126  0.00  0.00     0.198 C 
BRANCH  66  67
HETATM   67  O   UNK N   1      32.961  18.534   8.243  0.00  0.00    -0.398 OA
HETATM   68  H   UNK N   1      32.572  19.420   8.205  0.00  0.00     0.209 HD
ENDBRANCH  66  67
ENDBRANCH   5  66
BRANCH   6  69
HETATM   69  O   UNK N   1      33.456  16.154   9.849  0.00  0.00    -0.390 OA
HETATM   70  H   UNK N   1      33.851  15.930  10.707  0.00  0.00     0.210 HD
ENDBRANCH   6  69
TORSDOF 28
ENDMDL
