MODEL 1
REMARK VINA RESULT:      -7.2      0.000      0.000
REMARK  17 active torsions:
REMARK  status: ('A' for Active; 'I' for Inactive)
REMARK    1  A    between atoms: C_23  and  C_19 
REMARK    2  A    between atoms: C_29  and  C_19 
REMARK    3  A    between atoms: C_22  and  C_20 
REMARK    4  A    between atoms: N_41  and  C_20 
REMARK    5  A    between atoms: O_42  and  C_21 
REMARK    6  A    between atoms: C_25  and  C_24 
REMARK    7  A    between atoms: C_32  and  C_26 
REMARK    8  A    between atoms: C_35  and  C_27 
REMARK    9  A    between atoms: C_28  and  N_39 
REMARK   10  A    between atoms: C_30  and  C_29 
REMARK   11  A    between atoms: C_29  and  N_37 
REMARK   12  A    between atoms: C_30  and  O_43 
REMARK   13  A    between atoms: O_50  and  C_32 
REMARK   14  A    between atoms: C_35  and  C_33 
REMARK   15  A    between atoms: O_47  and  C_33 
REMARK   16  A    between atoms: C_35  and  C_34 
REMARK   17  A    between atoms: O_49  and  C_34 
ROOT
HETATM    1  C   UNK N   1      30.550  16.685   8.389  0.00  0.00     0.162 C 
ENDROOT
BRANCH   1   2
HETATM    2  C   UNK N   1      30.797  16.136   6.979  0.00  0.00     0.072 C 
BRANCH   2   3
HETATM    3  C   UNK N   1      29.824  16.453   5.887  0.00  0.00    -0.055 C 
HETATM    4  C   UNK N   1      30.085  17.533   5.067  0.00  0.00     0.008 C 
HETATM    5  C   UNK N   1      29.059  18.314   4.608  0.00  0.00     0.013 C 
HETATM    6  C   UNK N   1      27.730  18.042   4.950  0.00  0.00     0.019 C 
HETATM    7  C   UNK N   1      27.430  16.774   5.576  0.00  0.00     0.050 C 
HETATM    8  C   UNK N   1      28.511  16.036   6.077  0.00  0.00     0.025 C 
BRANCH   6   9
HETATM    9  C   UNK N   1      26.829  19.280   4.862  0.00  0.00     0.299 C 
HETATM   10  F   UNK N   1      27.522  20.164   4.042  0.00  0.00    -0.214 F 
BRANCH   9  11
HETATM   11  C   UNK N   1      26.716  20.054   6.159  0.00  0.00     0.198 C 
HETATM   12  O   UNK N   1      25.950  21.006   6.221  0.00  0.00    -0.647 OA
BRANCH  11  13
HETATM   13  O   UNK N   1      27.410  19.699   7.255  0.00  0.00    -0.773 OA
HETATM   14  H   UNK N   1      27.624  18.808   7.451  0.00  0.00     0.167 HD
ENDBRANCH  11  13
ENDBRANCH   9  11
BRANCH   9  15
HETATM   15  C   UNK N   1      25.535  18.997   4.121  0.00  0.00     0.198 C 
HETATM   16  O   UNK N   1      25.537  18.691   2.941  0.00  0.00    -0.647 OA
BRANCH  15  17
HETATM   17  O   UNK N   1      24.371  18.977   4.802  0.00  0.00    -0.773 OA
HETATM   18  H   UNK N   1      23.531  18.735   4.463  0.00  0.00     0.167 HD
ENDBRANCH  15  17
ENDBRANCH   9  15
ENDBRANCH   6   9
BRANCH   7  19
HETATM   19  C   UNK N   1      26.082  16.200   5.863  0.00  0.00     0.293 C 
HETATM   20  O   UNK N   1      25.233  16.115   4.989  0.00  0.00    -0.259 OA
BRANCH  19  21
HETATM   21  O   UNK N   1      25.844  15.665   7.090  0.00  0.00    -0.323 OA
HETATM   22  C   UNK N   1      25.216  14.454   7.270  0.00  0.00     0.213 C 
ENDBRANCH  19  21
ENDBRANCH   7  19
ENDBRANCH   2   3
ENDBRANCH   1   2
BRANCH   1  23
HETATM   23  C   UNK N   1      31.781  17.449   8.663  0.00  0.00     0.135 C 
HETATM   24  N   UNK N   1      32.864  16.780   8.565  0.00  0.00    -0.359 N 
ATOM     25  HN  UNK N   1      32.801  15.763   8.626  1.00  0.00     0.162 HD
BRANCH  24  26
HETATM   26  C   UNK N   1      34.153  17.357   8.375  0.00  0.00     0.175 C 
HETATM   27  C   UNK N   1      34.846  16.965   9.690  0.00  0.00     0.035 C 
HETATM   28  C   UNK N   1      34.791  15.468  10.050  0.00  0.00     0.004 C 
HETATM   29  C   UNK N   1      35.297  14.570   8.926  0.00  0.00     0.020 C 
HETATM   30  C   UNK N   1      34.265  14.449   7.803  0.00  0.00     0.126 C 
HETATM   31  N   UNK N   1      34.485  15.437   6.749  0.00  0.00    -0.346 N 
HETATM   32  C   UNK N   1      34.436  16.789   6.998  0.00  0.00     0.242 C 
HETATM   33  O   UNK N   1      34.636  17.577   6.071  0.00  0.00    -0.271 OA
BRANCH  31  34
HETATM   34  C   UNK N   1      34.960  14.975   5.461  0.00  0.00     0.164 C 
BRANCH  34  35
HETATM   35  C   UNK N   1      33.743  14.661   4.650  0.00  0.00    -0.040 A 
HETATM   36  C   UNK N   1      32.948  13.586   5.059  0.00  0.00     0.009 A 
HETATM   37  C   UNK N   1      31.680  13.415   4.548  0.00  0.00     0.013 A 
HETATM   38  C   UNK N   1      31.189  14.290   3.581  0.00  0.00    -0.026 A 
HETATM   39  C   UNK N   1      32.017  15.319   3.090  0.00  0.00     0.013 A 
HETATM   40  C   UNK N   1      33.289  15.520   3.645  0.00  0.00     0.009 A 
BRANCH  38  41
HETATM   41  C   UNK N   1      29.765  14.212   3.213  0.00  0.00    -0.026 A 
HETATM   42  C   UNK N   1      29.174  15.184   2.397  0.00  0.00     0.012 A 
HETATM   43  C   UNK N   1      27.799  15.145   2.147  0.00  0.00     0.001 A 
HETATM   44  C   UNK N   1      27.005  14.157   2.737  0.00  0.00     0.000 A 
HETATM   45  C   UNK N   1      27.585  13.191   3.560  0.00  0.00     0.001 A 
HETATM   46  C   UNK N   1      28.959  13.215   3.790  0.00  0.00     0.012 A 
ENDBRANCH  38  41
ENDBRANCH  34  35
ENDBRANCH  31  34
ENDBRANCH  24  26
BRANCH  23  47
HETATM   47  O   UNK N   1      31.788  18.799   8.637  0.00  0.00    -0.348 OA
HETATM   48  H   UNK N   1      31.823  19.661   8.269  0.00  0.00     0.219 HD
ENDBRANCH  23  47
ENDBRANCH   1  23
BRANCH   1  49
HETATM   49  N   UNK N   1      29.324  17.450   8.509  0.00  0.00    -0.362 N 
HETATM   50  C   UNK N   1      28.509  17.377   9.505  0.00  0.00     0.107 C 
HETATM   51  C   UNK N   1      28.758  16.457  10.659  0.00  0.00     0.097 C 
ATOM     52  HN  UNK N   1      29.088  18.091   7.751  1.00  0.00     0.162 HD
BRANCH  50  53
HETATM   53  O   UNK N   1      27.398  18.136   9.500  0.00  0.00    -0.350 OA
HETATM   54  H   UNK N   1      26.650  17.877  10.000  0.00  0.00     0.219 HD
ENDBRANCH  50  53
ENDBRANCH   1  49
TORSDOF 17
ENDMDL
MODEL 2
REMARK VINA RESULT:      -6.9      5.103     10.158
REMARK  17 active torsions:
REMARK  status: ('A' for Active; 'I' for Inactive)
REMARK    1  A    between atoms: C_23  and  C_19 
REMARK    2  A    between atoms: C_29  and  C_19 
REMARK    3  A    between atoms: C_22  and  C_20 
REMARK    4  A    between atoms: N_41  and  C_20 
REMARK    5  A    between atoms: O_42  and  C_21 
REMARK    6  A    between atoms: C_25  and  C_24 
REMARK    7  A    between atoms: C_32  and  C_26 
REMARK    8  A    between atoms: C_35  and  C_27 
REMARK    9  A    between atoms: C_28  and  N_39 
REMARK   10  A    between atoms: C_30  and  C_29 
REMARK   11  A    between atoms: C_29  and  N_37 
REMARK   12  A    between atoms: C_30  and  O_43 
REMARK   13  A    between atoms: O_50  and  C_32 
REMARK   14  A    between atoms: C_35  and  C_33 
REMARK   15  A    between atoms: O_47  and  C_33 
REMARK   16  A    between atoms: C_35  and  C_34 
REMARK   17  A    between atoms: O_49  and  C_34 
ROOT
HETATM    1  C   UNK N   1      23.261  17.976   4.248  0.00  0.00     0.162 C 
ENDROOT
BRANCH   1   2
HETATM    2  C   UNK N   1      22.995  16.843   5.247  0.00  0.00     0.072 C 
BRANCH   2   3
HETATM    3  C   UNK N   1      23.790  15.578   5.148  0.00  0.00    -0.055 C 
HETATM    4  C   UNK N   1      24.660  15.267   6.175  0.00  0.00     0.008 C 
HETATM    5  C   UNK N   1      25.854  14.656   5.904  0.00  0.00     0.013 C 
HETATM    6  C   UNK N   1      26.224  14.331   4.595  0.00  0.00     0.019 C 
HETATM    7  C   UNK N   1      25.216  14.406   3.561  0.00  0.00     0.050 C 
HETATM    8  C   UNK N   1      24.031  15.087   3.870  0.00  0.00     0.025 C 
BRANCH   6   9
HETATM    9  C   UNK N   1      27.743  14.219   4.416  0.00  0.00     0.299 C 
HETATM   10  F   UNK N   1      28.268  14.513   5.670  0.00  0.00    -0.214 F 
BRANCH   9  11
HETATM   11  C   UNK N   1      28.343  15.303   3.546  0.00  0.00     0.198 C 
HETATM   12  O   UNK N   1      28.883  16.265   4.076  0.00  0.00    -0.647 OA
BRANCH  11  13
HETATM   13  O   UNK N   1      28.331  15.218   2.203  0.00  0.00    -0.773 OA
HETATM   14  H   UNK N   1      27.831  14.572   1.742  0.00  0.00     0.167 HD
ENDBRANCH  11  13
ENDBRANCH   9  11
BRANCH   9  15
HETATM   15  C   UNK N   1      28.185  12.795   4.134  0.00  0.00     0.198 C 
HETATM   16  O   UNK N   1      27.907  11.885   4.896  0.00  0.00    -0.647 OA
BRANCH  15  17
HETATM   17  O   UNK N   1      28.801  12.509   2.969  0.00  0.00    -0.773 OA
HETATM   18  H   UNK N   1      29.072  11.662   2.675  0.00  0.00     0.167 HD
ENDBRANCH  15  17
ENDBRANCH   9  15
ENDBRANCH   6   9
BRANCH   7  19
HETATM   19  C   UNK N   1      25.331  13.942   2.146  0.00  0.00     0.293 C 
HETATM   20  O   UNK N   1      26.024  12.981   1.851  0.00  0.00    -0.259 OA
BRANCH  19  21
HETATM   21  O   UNK N   1      24.561  14.537   1.196  0.00  0.00    -0.323 OA
HETATM   22  C   UNK N   1      23.685  13.838   0.397  0.00  0.00     0.213 C 
ENDBRANCH  19  21
ENDBRANCH   7  19
ENDBRANCH   2   3
ENDBRANCH   1   2
BRANCH   1  23
HETATM   23  C   UNK N   1      21.902  18.371   3.832  0.00  0.00     0.135 C 
HETATM   24  N   UNK N   1      21.262  17.484   3.173  0.00  0.00    -0.359 N 
ATOM     25  HN  UNK N   1      21.802  16.745   2.722  1.00  0.00     0.162 HD
BRANCH  24  26
HETATM   26  C   UNK N   1      19.844  17.457   3.026  0.00  0.00     0.175 C 
HETATM   27  C   UNK N   1      19.710  17.327   1.500  0.00  0.00     0.035 C 
HETATM   28  C   UNK N   1      20.506  16.175   0.858  0.00  0.00     0.004 C 
HETATM   29  C   UNK N   1      20.220  14.825   1.506  0.00  0.00     0.020 C 
HETATM   30  C   UNK N   1      20.919  14.698   2.861  0.00  0.00     0.126 C 
HETATM   31  N   UNK N   1      20.054  15.108   3.964  0.00  0.00    -0.346 N 
HETATM   32  C   UNK N   1      19.548  16.384   4.055  0.00  0.00     0.242 C 
HETATM   33  O   UNK N   1      18.817  16.672   5.006  0.00  0.00    -0.271 OA
BRANCH  31  34
HETATM   34  C   UNK N   1      19.563  14.089   4.870  0.00  0.00     0.164 C 
BRANCH  34  35
HETATM   35  C   UNK N   1      20.625  13.898   5.905  0.00  0.00    -0.040 A 
HETATM   36  C   UNK N   1      20.603  14.739   7.022  0.00  0.00     0.009 A 
HETATM   37  C   UNK N   1      21.356  14.445   8.138  0.00  0.00     0.013 A 
HETATM   38  C   UNK N   1      22.185  13.325   8.151  0.00  0.00    -0.026 A 
HETATM   39  C   UNK N   1      22.289  12.524   6.996  0.00  0.00     0.013 A 
HETATM   40  C   UNK N   1      21.487  12.798   5.879  0.00  0.00     0.009 A 
BRANCH  38  41
HETATM   41  C   UNK N   1      22.808  12.919   9.422  0.00  0.00    -0.026 A 
HETATM   42  C   UNK N   1      24.196  12.770   9.534  0.00  0.00     0.012 A 
HETATM   43  C   UNK N   1      24.753  12.284  10.719  0.00  0.00     0.001 A 
HETATM   44  C   UNK N   1      23.928  11.913  11.785  0.00  0.00     0.000 A 
HETATM   45  C   UNK N   1      22.543  12.048  11.678  0.00  0.00     0.001 A 
HETATM   46  C   UNK N   1      21.987  12.555  10.505  0.00  0.00     0.012 A 
ENDBRANCH  38  41
ENDBRANCH  34  35
ENDBRANCH  31  34
ENDBRANCH  24  26
BRANCH  23  47
HETATM   47  O   UNK N   1      21.262  19.405   4.419  0.00  0.00    -0.348 OA
HETATM   48  H   UNK N   1      20.945  19.948   5.114  0.00  0.00     0.219 HD
ENDBRANCH  23  47
ENDBRANCH   1  23
BRANCH   1  49
HETATM   49  N   UNK N   1      24.064  19.055   4.791  0.00  0.00    -0.362 N 
HETATM   50  C   UNK N   1      25.319  19.225   4.553  0.00  0.00     0.107 C 
HETATM   51  C   UNK N   1      26.088  18.287   3.676  0.00  0.00     0.097 C 
ATOM     52  HN  UNK N   1      23.604  19.726   5.405  1.00  0.00     0.162 HD
BRANCH  50  53
HETATM   53  O   UNK N   1      25.959  20.264   5.120  0.00  0.00    -0.350 OA
HETATM   54  H   UNK N   1      25.584  21.122   5.085  0.00  0.00     0.219 HD
ENDBRANCH  50  53
ENDBRANCH   1  49
TORSDOF 17
ENDMDL
MODEL 3
REMARK VINA RESULT:      -6.8     12.244     15.678
REMARK  17 active torsions:
REMARK  status: ('A' for Active; 'I' for Inactive)
REMARK    1  A    between atoms: C_23  and  C_19 
REMARK    2  A    between atoms: C_29  and  C_19 
REMARK    3  A    between atoms: C_22  and  C_20 
REMARK    4  A    between atoms: N_41  and  C_20 
REMARK    5  A    between atoms: O_42  and  C_21 
REMARK    6  A    between atoms: C_25  and  C_24 
REMARK    7  A    between atoms: C_32  and  C_26 
REMARK    8  A    between atoms: C_35  and  C_27 
REMARK    9  A    between atoms: C_28  and  N_39 
REMARK   10  A    between atoms: C_30  and  C_29 
REMARK   11  A    between atoms: C_29  and  N_37 
REMARK   12  A    between atoms: C_30  and  O_43 
REMARK   13  A    between atoms: O_50  and  C_32 
REMARK   14  A    between atoms: C_35  and  C_33 
REMARK   15  A    between atoms: O_47  and  C_33 
REMARK   16  A    between atoms: C_35  and  C_34 
REMARK   17  A    between atoms: O_49  and  C_34 
ROOT
HETATM    1  C   UNK N   1      28.980  23.657  -4.774  0.00  0.00     0.162 C 
ENDROOT
BRANCH   1   2
HETATM    2  C   UNK N   1      28.912  22.668  -5.943  0.00  0.00     0.072 C 
BRANCH   2   3
HETATM    3  C   UNK N   1      30.141  21.907  -6.332  0.00  0.00    -0.055 C 
HETATM    4  C   UNK N   1      30.168  20.544  -6.112  0.00  0.00     0.008 C 
HETATM    5  C   UNK N   1      31.331  19.931  -5.731  0.00  0.00     0.013 C 
HETATM    6  C   UNK N   1      32.513  20.658  -5.559  0.00  0.00     0.019 C 
HETATM    7  C   UNK N   1      32.556  22.019  -6.044  0.00  0.00     0.050 C 
HETATM    8  C   UNK N   1      31.333  22.621  -6.371  0.00  0.00     0.025 C 
BRANCH   6   9
HETATM    9  C   UNK N   1      33.501  19.971  -4.608  0.00  0.00     0.299 C 
HETATM   10  F   UNK N   1      32.800  18.884  -4.096  0.00  0.00    -0.214 F 
BRANCH   9  11
HETATM   11  C   UNK N   1      33.818  20.773  -3.363  0.00  0.00     0.198 C 
HETATM   12  O   UNK N   1      34.893  21.351  -3.281  0.00  0.00    -0.647 OA
BRANCH  11  13
HETATM   13  O   UNK N   1      32.931  20.895  -2.358  0.00  0.00    -0.773 OA
HETATM   14  H   UNK N   1      32.007  20.798  -2.485  0.00  0.00     0.167 HD
ENDBRANCH  11  13
ENDBRANCH   9  11
BRANCH   9  15
HETATM   15  C   UNK N   1      34.679  19.361  -5.344  0.00  0.00     0.198 C 
HETATM   16  O   UNK N   1      34.614  18.241  -5.821  0.00  0.00    -0.647 OA
BRANCH  15  17
HETATM   17  O   UNK N   1      35.778  20.108  -5.573  0.00  0.00    -0.773 OA
HETATM   18  H   UNK N   1      36.037  20.878  -5.105  0.00  0.00     0.167 HD
ENDBRANCH  15  17
ENDBRANCH   9  15
ENDBRANCH   6   9
BRANCH   7  19
HETATM   19  C   UNK N   1      33.748  22.915  -6.130  0.00  0.00     0.293 C 
HETATM   20  O   UNK N   1      34.718  22.611  -6.806  0.00  0.00    -0.259 OA
BRANCH  19  21
HETATM   21  O   UNK N   1      33.696  24.135  -5.531  0.00  0.00    -0.323 OA
HETATM   22  C   UNK N   1      34.805  24.934  -5.364  0.00  0.00     0.213 C 
ENDBRANCH  19  21
ENDBRANCH   7  19
ENDBRANCH   2   3
ENDBRANCH   1   2
BRANCH   1  23
HETATM   23  C   UNK N   1      27.618  24.225  -4.747  0.00  0.00     0.135 C 
HETATM   24  N   UNK N   1      27.151  24.561  -5.887  0.00  0.00    -0.359 N 
ATOM     25  HN  UNK N   1      27.816  24.715  -6.646  1.00  0.00     0.162 HD
BRANCH  24  26
HETATM   26  C   UNK N   1      25.766  24.733  -6.171  0.00  0.00     0.175 C 
HETATM   27  C   UNK N   1      25.646  26.264  -6.132  0.00  0.00     0.035 C 
HETATM   28  C   UNK N   1      26.646  27.032  -7.018  0.00  0.00     0.004 C 
HETATM   29  C   UNK N   1      26.634  26.561  -8.469  0.00  0.00     0.020 C 
HETATM   30  C   UNK N   1      27.355  25.221  -8.625  0.00  0.00     0.126 C 
HETATM   31  N   UNK N   1      26.436  24.090  -8.532  0.00  0.00    -0.346 N 
HETATM   32  C   UNK N   1      25.692  23.849  -7.400  0.00  0.00     0.242 C 
HETATM   33  O   UNK N   1      24.927  22.882  -7.380  0.00  0.00    -0.271 OA
BRANCH  31  34
HETATM   34  C   UNK N   1      26.161  23.326  -9.732  0.00  0.00     0.164 C 
BRANCH  34  35
HETATM   35  C   UNK N   1      27.306  22.380  -9.902  0.00  0.00    -0.040 A 
HETATM   36  C   UNK N   1      28.431  22.839 -10.594  0.00  0.00     0.009 A 
HETATM   37  C   UNK N   1      29.620  22.143 -10.545  0.00  0.00     0.013 A 
HETATM   38  C   UNK N   1      29.703  20.946  -9.837  0.00  0.00    -0.026 A 
HETATM   39  C   UNK N   1      28.551  20.424  -9.216  0.00  0.00     0.013 A 
HETATM   40  C   UNK N   1      27.355  21.157  -9.228  0.00  0.00     0.009 A 
BRANCH  38  41
HETATM   41  C   UNK N   1      31.028  20.339  -9.624  0.00  0.00    -0.026 A 
HETATM   42  C   UNK N   1      31.158  18.998  -9.244  0.00  0.00     0.012 A 
HETATM   43  C   UNK N   1      32.420  18.475  -8.947  0.00  0.00     0.001 A 
HETATM   44  C   UNK N   1      33.551  19.295  -8.996  0.00  0.00     0.000 A 
HETATM   45  C   UNK N   1      33.428  20.636  -9.363  0.00  0.00     0.001 A 
HETATM   46  C   UNK N   1      32.174  21.152  -9.683  0.00  0.00     0.012 A 
ENDBRANCH  38  41
ENDBRANCH  34  35
ENDBRANCH  31  34
ENDBRANCH  24  26
BRANCH  23  47
HETATM   47  O   UNK N   1      26.807  24.047  -3.683  0.00  0.00    -0.348 OA
HETATM   48  H   UNK N   1      26.053  24.159  -3.137  0.00  0.00     0.219 HD
ENDBRANCH  23  47
ENDBRANCH   1  23
BRANCH   1  49
HETATM   49  N   UNK N   1      29.410  23.057  -3.526  0.00  0.00    -0.362 N 
HETATM   50  C   UNK N   1      30.395  23.480  -2.811  0.00  0.00     0.107 C 
HETATM   51  C   UNK N   1      31.218  24.660  -3.224  0.00  0.00     0.097 C 
ATOM     52  HN  UNK N   1      28.897  22.242  -3.191  1.00  0.00     0.162 HD
BRANCH  50  53
HETATM   53  O   UNK N   1      30.702  22.834  -1.671  0.00  0.00    -0.350 OA
HETATM   54  H   UNK N   1      31.505  22.358  -1.603  0.00  0.00     0.219 HD
ENDBRANCH  50  53
ENDBRANCH   1  49
TORSDOF 17
ENDMDL
MODEL 4
REMARK VINA RESULT:      -6.8      4.236      7.586
REMARK  17 active torsions:
REMARK  status: ('A' for Active; 'I' for Inactive)
REMARK    1  A    between atoms: C_23  and  C_19 
REMARK    2  A    between atoms: C_29  and  C_19 
REMARK    3  A    between atoms: C_22  and  C_20 
REMARK    4  A    between atoms: N_41  and  C_20 
REMARK    5  A    between atoms: O_42  and  C_21 
REMARK    6  A    between atoms: C_25  and  C_24 
REMARK    7  A    between atoms: C_32  and  C_26 
REMARK    8  A    between atoms: C_35  and  C_27 
REMARK    9  A    between atoms: C_28  and  N_39 
REMARK   10  A    between atoms: C_30  and  C_29 
REMARK   11  A    between atoms: C_29  and  N_37 
REMARK   12  A    between atoms: C_30  and  O_43 
REMARK   13  A    between atoms: O_50  and  C_32 
REMARK   14  A    between atoms: C_35  and  C_33 
REMARK   15  A    between atoms: O_47  and  C_33 
REMARK   16  A    between atoms: C_35  and  C_34 
REMARK   17  A    between atoms: O_49  and  C_34 
ROOT
HETATM    1  C   UNK N   1      26.421  15.147   5.590  0.00  0.00     0.162 C 
ENDROOT
BRANCH   1   2
HETATM    2  C   UNK N   1      24.967  15.344   6.034  0.00  0.00     0.072 C 
BRANCH   2   3
HETATM    3  C   UNK N   1      23.874  14.630   5.301  0.00  0.00    -0.055 C 
HETATM    4  C   UNK N   1      23.438  15.151   4.099  0.00  0.00     0.008 C 
HETATM    5  C   UNK N   1      22.115  15.079   3.756  0.00  0.00     0.013 C 
HETATM    6  C   UNK N   1      21.177  14.480   4.603  0.00  0.00     0.019 C 
HETATM    7  C   UNK N   1      21.662  13.703   5.721  0.00  0.00     0.050 C 
HETATM    8  C   UNK N   1      23.013  13.851   6.065  0.00  0.00     0.025 C 
BRANCH   6   9
HETATM    9  C   UNK N   1      19.750  14.992   4.366  0.00  0.00     0.299 C 
HETATM   10  F   UNK N   1      19.873  15.914   3.332  0.00  0.00    -0.214 F 
BRANCH   9  11
HETATM   11  C   UNK N   1      19.202  15.837   5.497  0.00  0.00     0.198 C 
HETATM   12  O   UNK N   1      17.994  15.877   5.682  0.00  0.00    -0.647 OA
BRANCH  11  13
HETATM   13  O   UNK N   1      20.014  16.517   6.327  0.00  0.00    -0.773 OA
HETATM   14  H   UNK N   1      20.073  17.453   6.321  0.00  0.00     0.167 HD
ENDBRANCH  11  13
ENDBRANCH   9  11
BRANCH   9  15
HETATM   15  C   UNK N   1      18.836  13.912   3.816  0.00  0.00     0.198 C 
HETATM   16  O   UNK N   1      18.854  13.610   2.635  0.00  0.00    -0.647 OA
BRANCH  15  17
HETATM   17  O   UNK N   1      18.068  13.197   4.664  0.00  0.00    -0.773 OA
HETATM   18  H   UNK N   1      17.181  12.932   4.523  0.00  0.00     0.167 HD
ENDBRANCH  15  17
ENDBRANCH   9  15
ENDBRANCH   6   9
BRANCH   7  19
HETATM   19  C   UNK N   1      20.863  12.838   6.640  0.00  0.00     0.293 C 
HETATM   20  O   UNK N   1      20.696  13.146   7.810  0.00  0.00    -0.259 OA
BRANCH  19  21
HETATM   21  O   UNK N   1      20.226  11.751   6.129  0.00  0.00    -0.323 OA
HETATM   22  C   UNK N   1      20.895  10.663   5.618  0.00  0.00     0.213 C 
ENDBRANCH  19  21
ENDBRANCH   7  19
ENDBRANCH   2   3
ENDBRANCH   1   2
BRANCH   1  23
HETATM   23  C   UNK N   1      27.185  15.768   6.689  0.00  0.00     0.135 C 
HETATM   24  N   UNK N   1      28.386  16.088   6.396  0.00  0.00    -0.359 N 
ATOM     25  HN  UNK N   1      28.817  15.630   5.592  1.00  0.00     0.162 HD
BRANCH  24  26
HETATM   26  C   UNK N   1      29.164  17.041   7.115  0.00  0.00     0.175 C 
HETATM   27  C   UNK N   1      30.586  16.524   6.842  0.00  0.00     0.035 C 
HETATM   28  C   UNK N   1      30.940  16.304   5.359  0.00  0.00     0.004 C 
HETATM   29  C   UNK N   1      30.676  17.534   4.498  0.00  0.00     0.020 C 
HETATM   30  C   UNK N   1      29.180  17.714   4.228  0.00  0.00     0.126 C 
HETATM   31  N   UNK N   1      28.549  18.596   5.207  0.00  0.00    -0.346 N 
HETATM   32  C   UNK N   1      28.533  18.297   6.550  0.00  0.00     0.242 C 
HETATM   33  O   UNK N   1      27.991  19.082   7.331  0.00  0.00    -0.271 OA
BRANCH  31  34
HETATM   34  C   UNK N   1      28.108  19.905   4.770  0.00  0.00     0.164 C 
BRANCH  34  35
HETATM   35  C   UNK N   1      26.764  19.711   4.146  0.00  0.00    -0.040 A 
HETATM   36  C   UNK N   1      25.905  18.772   4.728  0.00  0.00     0.009 A 
HETATM   37  C   UNK N   1      24.568  18.742   4.396  0.00  0.00     0.013 A 
HETATM   38  C   UNK N   1      24.062  19.620   3.440  0.00  0.00    -0.026 A 
HETATM   39  C   UNK N   1      24.935  20.505   2.777  0.00  0.00     0.013 A 
HETATM   40  C   UNK N   1      26.286  20.567   3.150  0.00  0.00     0.009 A 
BRANCH  38  41
HETATM   41  C   UNK N   1      22.602  19.710   3.264  0.00  0.00    -0.026 A 
HETATM   42  C   UNK N   1      21.736  18.837   3.933  0.00  0.00     0.012 A 
HETATM   43  C   UNK N   1      20.365  18.874   3.669  0.00  0.00     0.001 A 
HETATM   44  C   UNK N   1      19.856  19.758   2.713  0.00  0.00     0.000 A 
HETATM   45  C   UNK N   1      20.714  20.625   2.034  0.00  0.00     0.001 A 
HETATM   46  C   UNK N   1      22.078  20.605   2.313  0.00  0.00     0.012 A 
ENDBRANCH  38  41
ENDBRANCH  34  35
ENDBRANCH  31  34
ENDBRANCH  24  26
BRANCH  23  47
HETATM   47  O   UNK N   1      26.562  16.296   7.764  0.00  0.00    -0.348 OA
HETATM   48  H   UNK N   1      26.046  16.315   8.546  0.00  0.00     0.219 HD
ENDBRANCH  23  47
ENDBRANCH   1  23
BRANCH   1  49
HETATM   49  N   UNK N   1      26.766  13.765   5.319  0.00  0.00    -0.362 N 
HETATM   50  C   UNK N   1      27.247  13.335   4.203  0.00  0.00     0.107 C 
HETATM   51  C   UNK N   1      27.491  14.252   3.046  0.00  0.00     0.097 C 
ATOM     52  HN  UNK N   1      26.616  13.085   6.063  1.00  0.00     0.162 HD
BRANCH  50  53
HETATM   53  O   UNK N   1      27.524  12.025   4.071  0.00  0.00    -0.350 OA
HETATM   54  H   UNK N   1      26.993  11.387   4.504  0.00  0.00     0.219 HD
ENDBRANCH  50  53
ENDBRANCH   1  49
TORSDOF 17
ENDMDL
MODEL 5
REMARK VINA RESULT:      -6.7      4.831      7.685
REMARK  17 active torsions:
REMARK  status: ('A' for Active; 'I' for Inactive)
REMARK    1  A    between atoms: C_23  and  C_19 
REMARK    2  A    between atoms: C_29  and  C_19 
REMARK    3  A    between atoms: C_22  and  C_20 
REMARK    4  A    between atoms: N_41  and  C_20 
REMARK    5  A    between atoms: O_42  and  C_21 
REMARK    6  A    between atoms: C_25  and  C_24 
REMARK    7  A    between atoms: C_32  and  C_26 
REMARK    8  A    between atoms: C_35  and  C_27 
REMARK    9  A    between atoms: C_28  and  N_39 
REMARK   10  A    between atoms: C_30  and  C_29 
REMARK   11  A    between atoms: C_29  and  N_37 
REMARK   12  A    between atoms: C_30  and  O_43 
REMARK   13  A    between atoms: O_50  and  C_32 
REMARK   14  A    between atoms: C_35  and  C_33 
REMARK   15  A    between atoms: O_47  and  C_33 
REMARK   16  A    between atoms: C_35  and  C_34 
REMARK   17  A    between atoms: O_49  and  C_34 
ROOT
HETATM    1  C   UNK N   1      24.054  13.151   7.535  0.00  0.00     0.162 C 
ENDROOT
BRANCH   1   2
HETATM    2  C   UNK N   1      24.615  14.185   6.552  0.00  0.00     0.072 C 
BRANCH   2   3
HETATM    3  C   UNK N   1      23.931  15.510   6.412  0.00  0.00    -0.055 C 
HETATM    4  C   UNK N   1      22.589  15.594   6.726  0.00  0.00     0.008 C 
HETATM    5  C   UNK N   1      21.762  16.411   6.004  0.00  0.00     0.013 C 
HETATM    6  C   UNK N   1      22.248  17.179   4.940  0.00  0.00     0.019 C 
HETATM    7  C   UNK N   1      23.679  17.301   4.783  0.00  0.00     0.050 C 
HETATM    8  C   UNK N   1      24.482  16.407   5.504  0.00  0.00     0.025 C 
BRANCH   6   9
HETATM    9  C   UNK N   1      21.159  17.542   3.923  0.00  0.00     0.299 C 
HETATM   10  F   UNK N   1      19.965  17.188   4.543  0.00  0.00    -0.214 F 
BRANCH   9  11
HETATM   11  C   UNK N   1      21.156  16.670   2.685  0.00  0.00     0.198 C 
HETATM   12  O   UNK N   1      20.540  17.041   1.694  0.00  0.00    -0.647 OA
BRANCH  11  13
HETATM   13  O   UNK N   1      21.844  15.515   2.634  0.00  0.00    -0.773 OA
HETATM   14  H   UNK N   1      22.630  15.417   2.133  0.00  0.00     0.167 HD
ENDBRANCH  11  13
ENDBRANCH   9  11
BRANCH   9  15
HETATM   15  C   UNK N   1      21.053  19.039   3.703  0.00  0.00     0.198 C 
HETATM   16  O   UNK N   1      20.786  19.795   4.622  0.00  0.00    -0.647 OA
BRANCH  15  17
HETATM   17  O   UNK N   1      21.368  19.558   2.499  0.00  0.00    -0.773 OA
HETATM   18  H   UNK N   1      21.566  19.077   1.719  0.00  0.00     0.167 HD
ENDBRANCH  15  17
ENDBRANCH   9  15
ENDBRANCH   6   9
BRANCH   7  19
HETATM   19  C   UNK N   1      24.416  18.200   3.843  0.00  0.00     0.293 C 
HETATM   20  O   UNK N   1      25.155  17.745   2.985  0.00  0.00    -0.259 OA
BRANCH  19  21
HETATM   21  O   UNK N   1      24.166  19.536   3.882  0.00  0.00    -0.323 OA
HETATM   22  C   UNK N   1      24.654  20.416   2.943  0.00  0.00     0.213 C 
ENDBRANCH  19  21
ENDBRANCH   7  19
ENDBRANCH   2   3
ENDBRANCH   1   2
BRANCH   1  23
HETATM   23  C   UNK N   1      23.992  11.924   6.718  0.00  0.00     0.135 C 
HETATM   24  N   UNK N   1      24.428  12.048   5.525  0.00  0.00    -0.359 N 
ATOM     25  HN  UNK N   1      24.478  12.989   5.133  1.00  0.00     0.162 HD
BRANCH  24  26
HETATM   26  C   UNK N   1      24.850  10.962   4.704  0.00  0.00     0.175 C 
HETATM   27  C   UNK N   1      23.627  10.793   3.789  0.00  0.00     0.035 C 
HETATM   28  C   UNK N   1      23.151  12.072   3.073  0.00  0.00     0.004 C 
HETATM   29  C   UNK N   1      24.266  12.768   2.301  0.00  0.00     0.020 C 
HETATM   30  C   UNK N   1      25.212  13.517   3.243  0.00  0.00     0.126 C 
HETATM   31  N   UNK N   1      26.358  12.698   3.632  0.00  0.00    -0.346 N 
HETATM   32  C   UNK N   1      26.207  11.511   4.311  0.00  0.00     0.242 C 
HETATM   33  O   UNK N   1      27.210  10.859   4.608  0.00  0.00    -0.271 OA
BRANCH  31  34
HETATM   34  C   UNK N   1      27.664  13.053   3.115  0.00  0.00     0.164 C 
BRANCH  34  35
HETATM   35  C   UNK N   1      28.044  14.340   3.774  0.00  0.00    -0.040 A 
HETATM   36  C   UNK N   1      28.209  15.465   2.959  0.00  0.00     0.009 A 
HETATM   37  C   UNK N   1      28.273  16.727   3.508  0.00  0.00     0.013 A 
HETATM   38  C   UNK N   1      28.218  16.896   4.890  0.00  0.00    -0.026 A 
HETATM   39  C   UNK N   1      28.149  15.764   5.726  0.00  0.00     0.013 A 
HETATM   40  C   UNK N   1      28.036  14.484   5.165  0.00  0.00     0.009 A 
BRANCH  38  41
HETATM   41  C   UNK N   1      28.073  18.257   5.432  0.00  0.00    -0.026 A 
HETATM   42  C   UNK N   1      28.008  18.485   6.813  0.00  0.00     0.012 A 
HETATM   43  C   UNK N   1      27.767  19.772   7.298  0.00  0.00     0.001 A 
HETATM   44  C   UNK N   1      27.555  20.831   6.410  0.00  0.00     0.000 A 
HETATM   45  C   UNK N   1      27.608  20.611   5.033  0.00  0.00     0.001 A 
HETATM   46  C   UNK N   1      27.872  19.333   4.548  0.00  0.00     0.012 A 
ENDBRANCH  38  41
ENDBRANCH  34  35
ENDBRANCH  31  34
ENDBRANCH  24  26
BRANCH  23  47
HETATM   47  O   UNK N   1      23.854  10.709   7.290  0.00  0.00    -0.348 OA
HETATM   48  H   UNK N   1      23.653   9.795   7.351  0.00  0.00     0.219 HD
ENDBRANCH  23  47
ENDBRANCH   1  23
BRANCH   1  49
HETATM   49  N   UNK N   1      24.827  13.027   8.755  0.00  0.00    -0.362 N 
HETATM   50  C   UNK N   1      24.321  12.934   9.937  0.00  0.00     0.107 C 
HETATM   51  C   UNK N   1      22.842  12.957  10.164  0.00  0.00     0.097 C 
ATOM     52  HN  UNK N   1      25.843  13.014   8.673  1.00  0.00     0.162 HD
BRANCH  50  53
HETATM   53  O   UNK N   1      25.144  12.828  10.995  0.00  0.00    -0.350 OA
HETATM   54  H   UNK N   1      24.796  12.843  11.865  0.00  0.00     0.219 HD
ENDBRANCH  50  53
ENDBRANCH   1  49
TORSDOF 17
ENDMDL
MODEL 6
REMARK VINA RESULT:      -6.7      4.337      7.065
REMARK  17 active torsions:
REMARK  status: ('A' for Active; 'I' for Inactive)
REMARK    1  A    between atoms: C_23  and  C_19 
REMARK    2  A    between atoms: C_29  and  C_19 
REMARK    3  A    between atoms: C_22  and  C_20 
REMARK    4  A    between atoms: N_41  and  C_20 
REMARK    5  A    between atoms: O_42  and  C_21 
REMARK    6  A    between atoms: C_25  and  C_24 
REMARK    7  A    between atoms: C_32  and  C_26 
REMARK    8  A    between atoms: C_35  and  C_27 
REMARK    9  A    between atoms: C_28  and  N_39 
REMARK   10  A    between atoms: C_30  and  C_29 
REMARK   11  A    between atoms: C_29  and  N_37 
REMARK   12  A    between atoms: C_30  and  O_43 
REMARK   13  A    between atoms: O_50  and  C_32 
REMARK   14  A    between atoms: C_35  and  C_33 
REMARK   15  A    between atoms: O_47  and  C_33 
REMARK   16  A    between atoms: C_35  and  C_34 
REMARK   17  A    between atoms: O_49  and  C_34 
ROOT
HETATM    1  C   UNK N   1      24.065  18.176   4.881  0.00  0.00     0.162 C 
ENDROOT
BRANCH   1   2
HETATM    2  C   UNK N   1      24.624  16.879   4.285  0.00  0.00     0.072 C 
BRANCH   2   3
HETATM    3  C   UNK N   1      23.727  15.688   4.152  0.00  0.00    -0.055 C 
HETATM    4  C   UNK N   1      23.025  15.521   2.975  0.00  0.00     0.008 C 
HETATM    5  C   UNK N   1      21.757  15.006   2.995  0.00  0.00     0.013 C 
HETATM    6  C   UNK N   1      21.143  14.635   4.196  0.00  0.00     0.019 C 
HETATM    7  C   UNK N   1      21.959  14.554   5.385  0.00  0.00     0.050 C 
HETATM    8  C   UNK N   1      23.231  15.142   5.331  0.00  0.00     0.025 C 
BRANCH   6   9
HETATM    9  C   UNK N   1      19.611  14.651   4.110  0.00  0.00     0.299 C 
HETATM   10  F   UNK N   1      19.336  14.908   2.771  0.00  0.00    -0.214 F 
BRANCH   9  11
HETATM   11  C   UNK N   1      18.966  15.828   4.810  0.00  0.00     0.198 C 
HETATM   12  O   UNK N   1      18.859  16.892   4.215  0.00  0.00    -0.647 OA
BRANCH  11  13
HETATM   13  O   UNK N   1      18.475  15.724   6.059  0.00  0.00    -0.773 OA
HETATM   14  H   UNK N   1      18.111  16.454   6.520  0.00  0.00     0.167 HD
ENDBRANCH  11  13
ENDBRANCH   9  11
BRANCH   9  15
HETATM   15  C   UNK N   1      19.007  13.285   4.375  0.00  0.00     0.198 C 
HETATM   16  O   UNK N   1      17.812  13.151   4.579  0.00  0.00    -0.647 OA
BRANCH  15  17
HETATM   17  O   UNK N   1      19.782  12.185   4.276  0.00  0.00    -0.773 OA
HETATM   18  H   UNK N   1      20.647  12.079   4.621  0.00  0.00     0.167 HD
ENDBRANCH  15  17
ENDBRANCH   9  15
ENDBRANCH   6   9
BRANCH   7  19
HETATM   19  C   UNK N   1      21.566  14.015   6.722  0.00  0.00     0.293 C 
HETATM   20  O   UNK N   1      21.351  12.824   6.883  0.00  0.00    -0.259 OA
BRANCH  19  21
HETATM   21  O   UNK N   1      21.558  14.854   7.792  0.00  0.00    -0.323 OA
HETATM   22  C   UNK N   1      20.694  14.706   8.852  0.00  0.00     0.213 C 
ENDBRANCH  19  21
ENDBRANCH   7  19
ENDBRANCH   2   3
ENDBRANCH   1   2
BRANCH   1  23
HETATM   23  C   UNK N   1      25.226  19.086   4.830  0.00  0.00     0.135 C 
HETATM   24  N   UNK N   1      26.316  18.594   5.277  0.00  0.00    -0.359 N 
ATOM     25  HN  UNK N   1      26.253  17.787   5.899  1.00  0.00     0.162 HD
BRANCH  24  26
HETATM   26  C   UNK N   1      27.613  19.094   4.965  0.00  0.00     0.175 C 
HETATM   27  C   UNK N   1      27.874  20.008   6.173  0.00  0.00     0.035 C 
HETATM   28  C   UNK N   1      27.686  19.352   7.555  0.00  0.00     0.004 C 
HETATM   29  C   UNK N   1      28.489  18.065   7.713  0.00  0.00     0.020 C 
HETATM   30  C   UNK N   1      27.839  16.907   6.954  0.00  0.00     0.126 C 
HETATM   31  N   UNK N   1      28.382  16.762   5.606  0.00  0.00    -0.346 N 
HETATM   32  C   UNK N   1      28.285  17.767   4.671  0.00  0.00     0.242 C 
HETATM   33  O   UNK N   1      28.768  17.592   3.550  0.00  0.00    -0.271 OA
BRANCH  31  34
HETATM   34  C   UNK N   1      29.212  15.610   5.318  0.00  0.00     0.164 C 
BRANCH  34  35
HETATM   35  C   UNK N   1      28.330  14.614   4.637  0.00  0.00    -0.040 A 
HETATM   36  C   UNK N   1      27.349  13.980   5.405  0.00  0.00     0.009 A 
HETATM   37  C   UNK N   1      26.327  13.278   4.802  0.00  0.00     0.013 A 
HETATM   38  C   UNK N   1      26.284  13.155   3.415  0.00  0.00    -0.026 A 
HETATM   39  C   UNK N   1      27.320  13.706   2.636  0.00  0.00     0.013 A 
HETATM   40  C   UNK N   1      28.332  14.460   3.247  0.00  0.00     0.009 A 
BRANCH  38  41
HETATM   41  C   UNK N   1      25.076  12.588   2.792  0.00  0.00    -0.026 A 
HETATM   42  C   UNK N   1      24.799  12.789   1.434  0.00  0.00     0.012 A 
HETATM   43  C   UNK N   1      23.597  12.330   0.890  0.00  0.00     0.001 A 
HETATM   44  C   UNK N   1      22.651  11.699   1.705  0.00  0.00     0.000 A 
HETATM   45  C   UNK N   1      22.915  11.505   3.062  0.00  0.00     0.001 A 
HETATM   46  C   UNK N   1      24.124  11.940   3.600  0.00  0.00     0.012 A 
ENDBRANCH  38  41
ENDBRANCH  34  35
ENDBRANCH  31  34
ENDBRANCH  24  26
BRANCH  23  47
HETATM   47  O   UNK N   1      25.224  20.179   4.038  0.00  0.00    -0.348 OA
HETATM   48  H   UNK N   1      24.961  20.744   3.338  0.00  0.00     0.219 HD
ENDBRANCH  23  47
ENDBRANCH   1  23
BRANCH   1  49
HETATM   49  N   UNK N   1      22.882  18.667   4.201  0.00  0.00    -0.362 N 
HETATM   50  C   UNK N   1      21.703  18.711   4.721  0.00  0.00     0.107 C 
HETATM   51  C   UNK N   1      21.440  18.232   6.115  0.00  0.00     0.097 C 
ATOM     52  HN  UNK N   1      22.989  19.001   3.244  1.00  0.00     0.162 HD
BRANCH  50  53
HETATM   53  O   UNK N   1      20.681  19.185   3.988  0.00  0.00    -0.350 OA
HETATM   54  H   UNK N   1      20.673  20.082   3.717  0.00  0.00     0.219 HD
ENDBRANCH  50  53
ENDBRANCH   1  49
TORSDOF 17
ENDMDL
MODEL 7
REMARK VINA RESULT:      -6.6      3.323      5.265
REMARK  17 active torsions:
REMARK  status: ('A' for Active; 'I' for Inactive)
REMARK    1  A    between atoms: C_23  and  C_19 
REMARK    2  A    between atoms: C_29  and  C_19 
REMARK    3  A    between atoms: C_22  and  C_20 
REMARK    4  A    between atoms: N_41  and  C_20 
REMARK    5  A    between atoms: O_42  and  C_21 
REMARK    6  A    between atoms: C_25  and  C_24 
REMARK    7  A    between atoms: C_32  and  C_26 
REMARK    8  A    between atoms: C_35  and  C_27 
REMARK    9  A    between atoms: C_28  and  N_39 
REMARK   10  A    between atoms: C_30  and  C_29 
REMARK   11  A    between atoms: C_29  and  N_37 
REMARK   12  A    between atoms: C_30  and  O_43 
REMARK   13  A    between atoms: O_50  and  C_32 
REMARK   14  A    between atoms: C_35  and  C_33 
REMARK   15  A    between atoms: O_47  and  C_33 
REMARK   16  A    between atoms: C_35  and  C_34 
REMARK   17  A    between atoms: O_49  and  C_34 
ROOT
HETATM    1  C   UNK N   1      27.554  17.952   5.874  0.00  0.00     0.162 C 
ENDROOT
BRANCH   1   2
HETATM    2  C   UNK N   1      26.581  18.983   5.290  0.00  0.00     0.072 C 
BRANCH   2   3
HETATM    3  C   UNK N   1      25.425  18.514   4.463  0.00  0.00    -0.055 C 
HETATM    4  C   UNK N   1      24.581  19.459   3.915  0.00  0.00     0.008 C 
HETATM    5  C   UNK N   1      23.238  19.212   3.818  0.00  0.00     0.013 C 
HETATM    6  C   UNK N   1      22.689  18.006   4.264  0.00  0.00     0.019 C 
HETATM    7  C   UNK N   1      23.588  16.920   4.583  0.00  0.00     0.050 C 
HETATM    8  C   UNK N   1      24.947  17.234   4.722  0.00  0.00     0.025 C 
BRANCH   6   9
HETATM    9  C   UNK N   1      21.202  18.125   4.621  0.00  0.00     0.299 C 
HETATM   10  F   UNK N   1      20.924  19.485   4.522  0.00  0.00    -0.214 F 
BRANCH   9  11
HETATM   11  C   UNK N   1      20.891  17.832   6.074  0.00  0.00     0.198 C 
HETATM   12  O   UNK N   1      21.051  18.712   6.909  0.00  0.00    -0.647 OA
BRANCH  11  13
HETATM   13  O   UNK N   1      20.407  16.638   6.464  0.00  0.00    -0.773 OA
HETATM   14  H   UNK N   1      19.563  16.326   6.205  0.00  0.00     0.167 HD
ENDBRANCH  11  13
ENDBRANCH   9  11
BRANCH   9  15
HETATM   15  C   UNK N   1      20.307  17.471   3.586  0.00  0.00     0.198 C 
HETATM   16  O   UNK N   1      20.724  17.195   2.473  0.00  0.00    -0.647 OA
BRANCH  15  17
HETATM   17  O   UNK N   1      19.062  17.085   3.932  0.00  0.00    -0.773 OA
HETATM   18  H   UNK N   1      18.834  16.487   4.617  0.00  0.00     0.167 HD
ENDBRANCH  15  17
ENDBRANCH   9  15
ENDBRANCH   6   9
BRANCH   7  19
HETATM   19  C   UNK N   1      23.228  15.506   4.901  0.00  0.00     0.293 C 
HETATM   20  O   UNK N   1      22.172  15.023   4.521  0.00  0.00    -0.259 OA
BRANCH  19  21
HETATM   21  O   UNK N   1      24.144  14.720   5.528  0.00  0.00    -0.323 OA
HETATM   22  C   UNK N   1      23.798  13.613   6.268  0.00  0.00     0.213 C 
ENDBRANCH  19  21
ENDBRANCH   7  19
ENDBRANCH   2   3
ENDBRANCH   1   2
BRANCH   1  23
HETATM   23  C   UNK N   1      28.823  18.279   5.196  0.00  0.00     0.135 C 
HETATM   24  N   UNK N   1      29.782  17.469   5.429  0.00  0.00    -0.359 N 
ATOM     25  HN  UNK N   1      29.718  16.883   6.261  1.00  0.00     0.162 HD
BRANCH  24  26
HETATM   26  C   UNK N   1      30.935  17.327   4.603  0.00  0.00     0.175 C 
HETATM   27  C   UNK N   1      32.006  16.988   5.651  0.00  0.00     0.035 C 
HETATM   28  C   UNK N   1      31.668  15.817   6.593  0.00  0.00     0.004 C 
HETATM   29  C   UNK N   1      31.277  14.548   5.844  0.00  0.00     0.020 C 
HETATM   30  C   UNK N   1      29.857  14.649   5.281  0.00  0.00     0.126 C 
HETATM   31  N   UNK N   1      29.847  15.143   3.906  0.00  0.00    -0.346 N 
HETATM   32  C   UNK N   1      30.343  16.383   3.575  0.00  0.00     0.242 C 
HETATM   33  O   UNK N   1      30.314  16.745   2.397  0.00  0.00    -0.271 OA
BRANCH  31  34
HETATM   34  C   UNK N   1      29.487  14.222   2.847  0.00  0.00     0.164 C 
BRANCH  34  35
HETATM   35  C   UNK N   1      27.998  14.100   2.881  0.00  0.00    -0.040 A 
HETATM   36  C   UNK N   1      27.248  15.113   2.274  0.00  0.00     0.009 A 
HETATM   37  C   UNK N   1      25.907  14.934   2.013  0.00  0.00     0.013 A 
HETATM   38  C   UNK N   1      25.269  13.754   2.392  0.00  0.00    -0.026 A 
HETATM   39  C   UNK N   1      25.991  12.768   3.091  0.00  0.00     0.013 A 
HETATM   40  C   UNK N   1      27.366  12.931   3.314  0.00  0.00     0.009 A 
BRANCH  38  41
HETATM   41  C   UNK N   1      23.899  13.505   1.913  0.00  0.00    -0.026 A 
HETATM   42  C   UNK N   1      23.212  14.458   1.151  0.00  0.00     0.012 A 
HETATM   43  C   UNK N   1      21.878  14.241   0.797  0.00  0.00     0.001 A 
HETATM   44  C   UNK N   1      21.213  13.090   1.230  0.00  0.00     0.000 A 
HETATM   45  C   UNK N   1      21.887  12.140   1.999  0.00  0.00     0.001 A 
HETATM   46  C   UNK N   1      23.224  12.344   2.332  0.00  0.00     0.012 A 
ENDBRANCH  38  41
ENDBRANCH  34  35
ENDBRANCH  31  34
ENDBRANCH  24  26
BRANCH  23  47
HETATM   47  O   UNK N   1      28.856  19.118   4.139  0.00  0.00    -0.348 OA
HETATM   48  H   UNK N   1      29.151  19.828   3.602  0.00  0.00     0.219 HD
ENDBRANCH  23  47
ENDBRANCH   1  23
BRANCH   1  49
HETATM   49  N   UNK N   1      27.621  17.969   7.322  0.00  0.00    -0.362 N 
HETATM   50  C   UNK N   1      27.300  16.978   8.082  0.00  0.00     0.107 C 
HETATM   51  C   UNK N   1      26.802  15.684   7.519  0.00  0.00     0.097 C 
ATOM     52  HN  UNK N   1      27.943  18.825   7.772  1.00  0.00     0.162 HD
BRANCH  50  53
HETATM   53  O   UNK N   1      27.400  17.116   9.416  0.00  0.00    -0.350 OA
HETATM   54  H   UNK N   1      28.123  16.735   9.875  0.00  0.00     0.219 HD
ENDBRANCH  50  53
ENDBRANCH   1  49
TORSDOF 17
ENDMDL
MODEL 8
REMARK VINA RESULT:      -6.4      3.566      6.811
REMARK  17 active torsions:
REMARK  status: ('A' for Active; 'I' for Inactive)
REMARK    1  A    between atoms: C_23  and  C_19 
REMARK    2  A    between atoms: C_29  and  C_19 
REMARK    3  A    between atoms: C_22  and  C_20 
REMARK    4  A    between atoms: N_41  and  C_20 
REMARK    5  A    between atoms: O_42  and  C_21 
REMARK    6  A    between atoms: C_25  and  C_24 
REMARK    7  A    between atoms: C_32  and  C_26 
REMARK    8  A    between atoms: C_35  and  C_27 
REMARK    9  A    between atoms: C_28  and  N_39 
REMARK   10  A    between atoms: C_30  and  C_29 
REMARK   11  A    between atoms: C_29  and  N_37 
REMARK   12  A    between atoms: C_30  and  O_43 
REMARK   13  A    between atoms: O_50  and  C_32 
REMARK   14  A    between atoms: C_35  and  C_33 
REMARK   15  A    between atoms: O_47  and  C_33 
REMARK   16  A    between atoms: C_35  and  C_34 
REMARK   17  A    between atoms: O_49  and  C_34 
ROOT
HETATM    1  C   UNK N   1      27.199  18.636   5.978  0.00  0.00     0.162 C 
ENDROOT
BRANCH   1   2
HETATM    2  C   UNK N   1      26.168  19.586   5.357  0.00  0.00     0.072 C 
BRANCH   2   3
HETATM    3  C   UNK N   1      25.191  19.053   4.355  0.00  0.00    -0.055 C 
HETATM    4  C   UNK N   1      24.900  19.824   3.247  0.00  0.00     0.008 C 
HETATM    5  C   UNK N   1      23.632  19.837   2.730  0.00  0.00     0.013 C 
HETATM    6  C   UNK N   1      22.608  19.076   3.302  0.00  0.00     0.019 C 
HETATM    7  C   UNK N   1      22.964  18.074   4.280  0.00  0.00     0.050 C 
HETATM    8  C   UNK N   1      24.257  18.134   4.818  0.00  0.00     0.025 C 
BRANCH   6   9
HETATM    9  C   UNK N   1      21.212  19.636   3.001  0.00  0.00     0.299 C 
HETATM   10  F   UNK N   1      20.681  19.949   4.248  0.00  0.00    -0.214 F 
BRANCH   9  11
HETATM   11  C   UNK N   1      20.234  18.606   2.476  0.00  0.00     0.198 C 
HETATM   12  O   UNK N   1      19.453  18.073   3.253  0.00  0.00    -0.647 OA
BRANCH  11  13
HETATM   13  O   UNK N   1      20.176  18.289   1.169  0.00  0.00    -0.773 OA
HETATM   14  H   UNK N   1      20.915  17.958   0.698  0.00  0.00     0.167 HD
ENDBRANCH  11  13
ENDBRANCH   9  11
BRANCH   9  15
HETATM   15  C   UNK N   1      21.271  20.960   2.262  0.00  0.00     0.198 C 
HETATM   16  O   UNK N   1      20.719  21.108   1.185  0.00  0.00    -0.647 OA
BRANCH  15  17
HETATM   17  O   UNK N   1      21.849  22.025   2.853  0.00  0.00    -0.773 OA
HETATM   18  H   UNK N   1      21.542  22.911   2.831  0.00  0.00     0.167 HD
ENDBRANCH  15  17
ENDBRANCH   9  15
ENDBRANCH   6   9
BRANCH   7  19
HETATM   19  C   UNK N   1      22.073  17.037   4.884  0.00  0.00     0.293 C 
HETATM   20  O   UNK N   1      21.866  15.976   4.317  0.00  0.00    -0.259 OA
BRANCH  19  21
HETATM   21  O   UNK N   1      21.580  17.243   6.134  0.00  0.00    -0.323 OA
HETATM   22  C   UNK N   1      20.534  16.516   6.655  0.00  0.00     0.213 C 
ENDBRANCH  19  21
ENDBRANCH   7  19
ENDBRANCH   2   3
ENDBRANCH   1   2
BRANCH   1  23
HETATM   23  C   UNK N   1      28.096  18.340   4.846  0.00  0.00     0.135 C 
HETATM   24  N   UNK N   1      28.250  17.099   4.591  0.00  0.00    -0.359 N 
ATOM     25  HN  UNK N   1      28.029  16.431   5.330  1.00  0.00     0.162 HD
BRANCH  24  26
HETATM   26  C   UNK N   1      28.708  16.584   3.343  0.00  0.00     0.175 C 
HETATM   27  C   UNK N   1      30.175  16.267   3.678  0.00  0.00     0.035 C 
HETATM   28  C   UNK N   1      30.398  15.391   4.925  0.00  0.00     0.004 C 
HETATM   29  C   UNK N   1      29.597  14.093   4.888  0.00  0.00     0.020 C 
HETATM   30  C   UNK N   1      28.119  14.343   5.193  0.00  0.00     0.126 C 
HETATM   31  N   UNK N   1      27.335  14.546   3.977  0.00  0.00    -0.346 N 
HETATM   32  C   UNK N   1      27.596  15.581   3.109  0.00  0.00     0.242 C 
HETATM   33  O   UNK N   1      26.906  15.700   2.094  0.00  0.00    -0.271 OA
BRANCH  31  34
HETATM   34  C   UNK N   1      26.395  13.516   3.584  0.00  0.00     0.164 C 
BRANCH  34  35
HETATM   35  C   UNK N   1      25.416  13.388   4.706  0.00  0.00    -0.040 A 
HETATM   36  C   UNK N   1      25.217  12.116   5.253  0.00  0.00     0.009 A 
HETATM   37  C   UNK N   1      24.562  11.963   6.456  0.00  0.00     0.013 A 
HETATM   38  C   UNK N   1      24.051  13.074   7.123  0.00  0.00    -0.026 A 
HETATM   39  C   UNK N   1      24.160  14.349   6.535  0.00  0.00     0.013 A 
HETATM   40  C   UNK N   1      24.867  14.509   5.335  0.00  0.00     0.009 A 
BRANCH  38  41
HETATM   41  C   UNK N   1      23.550  12.906   8.498  0.00  0.00    -0.026 A 
HETATM   42  C   UNK N   1      24.394  12.476   9.529  0.00  0.00     0.012 A 
HETATM   43  C   UNK N   1      23.872  12.225  10.801  0.00  0.00     0.001 A 
HETATM   44  C   UNK N   1      22.502  12.369  11.041  0.00  0.00     0.000 A 
HETATM   45  C   UNK N   1      21.653  12.787  10.015  0.00  0.00     0.001 A 
HETATM   46  C   UNK N   1      22.175  13.061   8.754  0.00  0.00     0.012 A 
ENDBRANCH  38  41
ENDBRANCH  34  35
ENDBRANCH  31  34
ENDBRANCH  24  26
BRANCH  23  47
HETATM   47  O   UNK N   1      28.410  19.287   3.935  0.00  0.00    -0.348 OA
HETATM   48  H   UNK N   1      28.277  19.896   3.235  0.00  0.00     0.219 HD
ENDBRANCH  23  47
ENDBRANCH   1  23
BRANCH   1  49
HETATM   49  N   UNK N   1      27.861  19.180   7.149  0.00  0.00    -0.362 N 
HETATM   50  C   UNK N   1      28.214  18.489   8.178  0.00  0.00     0.107 C 
HETATM   51  C   UNK N   1      27.954  17.018   8.265  0.00  0.00     0.097 C 
ATOM     52  HN  UNK N   1      28.060  20.180   7.159  1.00  0.00     0.162 HD
BRANCH  50  53
HETATM   53  O   UNK N   1      28.819  19.109   9.207  0.00  0.00    -0.350 OA
HETATM   54  H   UNK N   1      29.754  19.132   9.257  0.00  0.00     0.219 HD
ENDBRANCH  50  53
ENDBRANCH   1  49
TORSDOF 17
ENDMDL
MODEL 9
REMARK VINA RESULT:      -6.4     13.485     16.256
REMARK  17 active torsions:
REMARK  status: ('A' for Active; 'I' for Inactive)
REMARK    1  A    between atoms: C_23  and  C_19 
REMARK    2  A    between atoms: C_29  and  C_19 
REMARK    3  A    between atoms: C_22  and  C_20 
REMARK    4  A    between atoms: N_41  and  C_20 
REMARK    5  A    between atoms: O_42  and  C_21 
REMARK    6  A    between atoms: C_25  and  C_24 
REMARK    7  A    between atoms: C_32  and  C_26 
REMARK    8  A    between atoms: C_35  and  C_27 
REMARK    9  A    between atoms: C_28  and  N_39 
REMARK   10  A    between atoms: C_30  and  C_29 
REMARK   11  A    between atoms: C_29  and  N_37 
REMARK   12  A    between atoms: C_30  and  O_43 
REMARK   13  A    between atoms: O_50  and  C_32 
REMARK   14  A    between atoms: C_35  and  C_33 
REMARK   15  A    between atoms: O_47  and  C_33 
REMARK   16  A    between atoms: C_35  and  C_34 
REMARK   17  A    between atoms: O_49  and  C_34 
ROOT
HETATM    1  C   UNK N   1      30.858  25.806  -4.840  0.00  0.00     0.162 C 
ENDROOT
BRANCH   1   2
HETATM    2  C   UNK N   1      29.488  25.608  -5.499  0.00  0.00     0.072 C 
BRANCH   2   3
HETATM    3  C   UNK N   1      29.223  24.357  -6.278  0.00  0.00    -0.055 C 
HETATM    4  C   UNK N   1      28.808  23.232  -5.594  0.00  0.00     0.008 C 
HETATM    5  C   UNK N   1      29.230  21.991  -5.989  0.00  0.00     0.013 C 
HETATM    6  C   UNK N   1      30.080  21.828  -7.086  0.00  0.00     0.019 C 
HETATM    7  C   UNK N   1      30.296  22.960  -7.959  0.00  0.00     0.050 C 
HETATM    8  C   UNK N   1      29.895  24.218  -7.487  0.00  0.00     0.025 C 
BRANCH   6   9
HETATM    9  C   UNK N   1      30.889  20.526  -7.025  0.00  0.00     0.299 C 
HETATM   10  F   UNK N   1      30.623  20.006  -5.762  0.00  0.00    -0.214 F 
BRANCH   9  11
HETATM   11  C   UNK N   1      32.388  20.731  -6.987  0.00  0.00     0.198 C 
HETATM   12  O   UNK N   1      32.966  20.725  -5.909  0.00  0.00    -0.647 OA
BRANCH  11  13
HETATM   13  O   UNK N   1      33.108  20.884  -8.114  0.00  0.00    -0.773 OA
HETATM   14  H   UNK N   1      33.102  20.252  -8.806  0.00  0.00     0.167 HD
ENDBRANCH  11  13
ENDBRANCH   9  11
BRANCH   9  15
HETATM   15  C   UNK N   1      30.367  19.479  -7.991  0.00  0.00     0.198 C 
HETATM   16  O   UNK N   1      29.395  18.795  -7.719  0.00  0.00    -0.647 OA
BRANCH  15  17
HETATM   17  O   UNK N   1      30.917  19.376  -9.219  0.00  0.00    -0.773 OA
HETATM   18  H   UNK N   1      31.832  19.348  -9.419  0.00  0.00     0.167 HD
ENDBRANCH  15  17
ENDBRANCH   9  15
ENDBRANCH   6   9
BRANCH   7  19
HETATM   19  C   UNK N   1      31.010  22.972  -9.271  0.00  0.00     0.293 C 
HETATM   20  O   UNK N   1      32.066  23.571  -9.409  0.00  0.00    -0.259 OA
BRANCH  19  21
HETATM   21  O   UNK N   1      30.526  22.211 -10.289  0.00  0.00    -0.323 OA
HETATM   22  C   UNK N   1      31.225  21.985 -11.452  0.00  0.00     0.213 C 
ENDBRANCH  19  21
ENDBRANCH   7  19
ENDBRANCH   2   3
ENDBRANCH   1   2
BRANCH   1  23
HETATM   23  C   UNK N   1      30.618  26.933  -3.919  0.00  0.00     0.135 C 
HETATM   24  N   UNK N   1      29.624  27.674  -4.222  0.00  0.00    -0.359 N 
ATOM     25  HN  UNK N   1      29.285  27.645  -5.184  1.00  0.00     0.162 HD
BRANCH  24  26
HETATM   26  C   UNK N   1      28.954  28.537  -3.306  0.00  0.00     0.175 C 
HETATM   27  C   UNK N   1      29.594  29.890  -3.657  0.00  0.00     0.035 C 
HETATM   28  C   UNK N   1      29.553  30.277  -5.148  0.00  0.00     0.004 C 
HETATM   29  C   UNK N   1      28.148  30.216  -5.737  0.00  0.00     0.020 C 
HETATM   30  C   UNK N   1      27.713  28.771  -5.989  0.00  0.00     0.126 C 
HETATM   31  N   UNK N   1      26.972  28.217  -4.858  0.00  0.00    -0.346 N 
HETATM   32  C   UNK N   1      27.534  28.101  -3.608  0.00  0.00     0.242 C 
HETATM   33  O   UNK N   1      26.859  27.632  -2.689  0.00  0.00    -0.271 OA
BRANCH  31  34
HETATM   34  C   UNK N   1      25.553  27.971  -5.019  0.00  0.00     0.164 C 
BRANCH  34  35
HETATM   35  C   UNK N   1      25.431  26.705  -5.804  0.00  0.00    -0.040 A 
HETATM   36  C   UNK N   1      25.545  26.788  -7.195  0.00  0.00     0.009 A 
HETATM   37  C   UNK N   1      25.730  25.653  -7.954  0.00  0.00     0.013 A 
HETATM   38  C   UNK N   1      25.762  24.399  -7.347  0.00  0.00    -0.026 A 
HETATM   39  C   UNK N   1      25.551  24.294  -5.958  0.00  0.00     0.013 A 
HETATM   40  C   UNK N   1      25.410  25.453  -5.181  0.00  0.00     0.009 A 
BRANCH  38  41
HETATM   41  C   UNK N   1      26.172  23.233  -8.148  0.00  0.00    -0.026 A 
HETATM   42  C   UNK N   1      26.054  21.931  -7.646  0.00  0.00     0.012 A 
HETATM   43  C   UNK N   1      26.546  20.851  -8.384  0.00  0.00     0.001 A 
HETATM   44  C   UNK N   1      27.186  21.068  -9.608  0.00  0.00     0.000 A 
HETATM   45  C   UNK N   1      27.317  22.363 -10.110  0.00  0.00     0.001 A 
HETATM   46  C   UNK N   1      26.806  23.439  -9.387  0.00  0.00     0.012 A 
ENDBRANCH  38  41
ENDBRANCH  34  35
ENDBRANCH  31  34
ENDBRANCH  24  26
BRANCH  23  47
HETATM   47  O   UNK N   1      31.151  26.949  -2.678  0.00  0.00    -0.348 OA
HETATM   48  H   UNK N   1      31.814  27.017  -2.019  0.00  0.00     0.219 HD
ENDBRANCH  23  47
ENDBRANCH   1  23
BRANCH   1  49
HETATM   49  N   UNK N   1      31.379  24.609  -4.209  0.00  0.00    -0.362 N 
HETATM   50  C   UNK N   1      32.379  23.925  -4.648  0.00  0.00     0.107 C 
HETATM   51  C   UNK N   1      33.108  24.310  -5.898  0.00  0.00     0.097 C 
ATOM     52  HN  UNK N   1      30.922  24.285  -3.357  1.00  0.00     0.162 HD
BRANCH  50  53
HETATM   53  O   UNK N   1      32.768  22.827  -3.976  0.00  0.00    -0.350 OA
HETATM   54  H   UNK N   1      33.579  22.409  -4.188  0.00  0.00     0.219 HD
ENDBRANCH  50  53
ENDBRANCH   1  49
TORSDOF 17
ENDMDL
