MODEL 1
REMARK VINA RESULT:      -4.9      0.000      0.000
REMARK  11 active torsions:
REMARK  status: ('A' for Active; 'I' for Inactive)
REMARK    1  A    between atoms: O_1  and  C_2 
REMARK    2  A    between atoms: C_2  and  C_3 
REMARK    3  A    between atoms: C_3  and  C_4 
REMARK    4  A    between atoms: C_3  and  C_6 
REMARK    5  A    between atoms: C_3  and  N_8 
REMARK    6  A    between atoms: C_4  and  O_5 
REMARK    7  A    between atoms: C_6  and  O_7 
REMARK    8  A    between atoms: N_8  and  C_9 
REMARK    9  A    between atoms: C_9  and  C_10 
REMARK   10  A    between atoms: C_10  and  S_11 
REMARK   11  A    between atoms: S_11  and  O_12 
ROOT
HETATM    1  C   UNK N   1      33.862  17.114   8.351  0.00  0.00     0.089 C 
ENDROOT
BRANCH   1   2
HETATM    2  C   UNK N   1      33.978  18.641   8.285  0.00  0.00     0.199 C 
BRANCH   2   3
HETATM    3  O   UNK N   1      35.297  19.076   8.441  0.00  0.00    -0.398 OA
HETATM    4  H   UNK N   1      36.041  18.850   7.862  0.00  0.00     0.209 HD
ENDBRANCH   2   3
ENDBRANCH   1   2
BRANCH   1   5
HETATM    5  C   UNK N   1      34.882  16.558   9.362  0.00  0.00     0.199 C 
BRANCH   5   6
HETATM    6  O   UNK N   1      34.815  17.216  10.592  0.00  0.00    -0.398 OA
HETATM    7  H   UNK N   1      34.128  17.151  11.274  0.00  0.00     0.209 HD
ENDBRANCH   5   6
ENDBRANCH   1   5
BRANCH   1   8
HETATM    8  C   UNK N   1      34.104  16.510   6.957  0.00  0.00     0.199 C 
BRANCH   8   9
HETATM    9  O   UNK N   1      34.323  17.515   6.011  0.00  0.00    -0.398 OA
HETATM   10  H   UNK N   1      33.621  17.904   5.466  0.00  0.00     0.209 HD
ENDBRANCH   8   9
ENDBRANCH   1   8
BRANCH   1  11
HETATM   11  N   UNK N   1      32.503  16.808   8.812  0.00  0.00    -0.406 N 
HETATM   12  H   UNK N   1      32.243  15.944   9.287  0.00  0.00     0.154 HD
BRANCH  11  13
HETATM   13  C   UNK N   1      31.570  17.889   8.507  0.00  0.00     0.131 C 
BRANCH  13  14
HETATM   14  C   UNK N   1      30.261  17.294   8.031  0.00  0.00     0.174 C 
BRANCH  14  15
HETATM   15  S   UNK N   1      28.895  18.397   8.485  0.00  0.00     0.095 S 
HETATM   16  O   UNK N   1      29.476  17.694   9.722  0.00  0.00    -0.601 OA
HETATM   17  O   UNK N   1      28.298  17.207   7.718  0.00  0.00    -0.601 OA
BRANCH  15  18
HETATM   18  O   UNK N   1      27.516  18.047   9.445  0.00  0.00    -0.296 OA
HETATM   19  H   UNK N   1      27.259  17.134   9.647  0.00  0.00     0.232 HD
ENDBRANCH  15  18
ENDBRANCH  14  15
ENDBRANCH  13  14
ENDBRANCH  11  13
ENDBRANCH   1  11
TORSDOF 11
ENDMDL
MODEL 2
REMARK VINA RESULT:      -4.8      3.425      5.284
REMARK  11 active torsions:
REMARK  status: ('A' for Active; 'I' for Inactive)
REMARK    1  A    between atoms: O_1  and  C_2 
REMARK    2  A    between atoms: C_2  and  C_3 
REMARK    3  A    between atoms: C_3  and  C_4 
REMARK    4  A    between atoms: C_3  and  C_6 
REMARK    5  A    between atoms: C_3  and  N_8 
REMARK    6  A    between atoms: C_4  and  O_5 
REMARK    7  A    between atoms: C_6  and  O_7 
REMARK    8  A    between atoms: N_8  and  C_9 
REMARK    9  A    between atoms: C_9  and  C_10 
REMARK   10  A    between atoms: C_10  and  S_11 
REMARK   11  A    between atoms: S_11  and  O_12 
ROOT
HETATM    1  C   UNK N   1      35.377  14.408  11.150  0.00  0.00     0.089 C 
ENDROOT
BRANCH   1   2
HETATM    2  C   UNK N   1      35.726  14.557  12.635  0.00  0.00     0.199 C 
BRANCH   2   3
HETATM    3  O   UNK N   1      36.948  13.957  12.951  0.00  0.00    -0.398 OA
HETATM    4  H   UNK N   1      37.063  13.121  13.427  0.00  0.00     0.209 HD
ENDBRANCH   2   3
ENDBRANCH   1   2
BRANCH   1   5
HETATM    5  C   UNK N   1      35.006  12.945  10.846  0.00  0.00     0.199 C 
BRANCH   5   6
HETATM    6  O   UNK N   1      34.539  12.275  11.978  0.00  0.00    -0.398 OA
HETATM    7  H   UNK N   1      33.704  12.407  12.455  0.00  0.00     0.209 HD
ENDBRANCH   5   6
ENDBRANCH   1   5
BRANCH   1   8
HETATM    8  C   UNK N   1      36.570  14.851  10.286  0.00  0.00     0.199 C 
BRANCH   8   9
HETATM    9  O   UNK N   1      37.166  16.000  10.812  0.00  0.00    -0.398 OA
HETATM   10  H   UNK N   1      38.084  16.035  11.125  0.00  0.00     0.209 HD
ENDBRANCH   8   9
ENDBRANCH   1   8
BRANCH   1  11
HETATM   11  N   UNK N   1      34.215  15.268  10.896  0.00  0.00    -0.406 N 
HETATM   12  H   UNK N   1      33.658  15.706  11.630  0.00  0.00     0.154 HD
BRANCH  11  13
HETATM   13  C   UNK N   1      33.955  15.421   9.468  0.00  0.00     0.131 C 
BRANCH  13  14
HETATM   14  C   UNK N   1      33.459  16.828   9.202  0.00  0.00     0.174 C 
BRANCH  14  15
HETATM   15  S   UNK N   1      34.680  17.720   8.200  0.00  0.00     0.095 S 
HETATM   16  O   UNK N   1      35.060  17.744   9.689  0.00  0.00    -0.601 OA
HETATM   17  O   UNK N   1      33.387  18.550   8.209  0.00  0.00    -0.601 OA
BRANCH  15  18
HETATM   18  O   UNK N   1      35.306  19.299   8.440  0.00  0.00    -0.296 OA
HETATM   19  H   UNK N   1      36.258  19.479   8.387  0.00  0.00     0.232 HD
ENDBRANCH  15  18
ENDBRANCH  14  15
ENDBRANCH  13  14
ENDBRANCH  11  13
ENDBRANCH   1  11
TORSDOF 11
ENDMDL
MODEL 3
REMARK VINA RESULT:      -4.7      3.424      5.403
REMARK  11 active torsions:
REMARK  status: ('A' for Active; 'I' for Inactive)
REMARK    1  A    between atoms: O_1  and  C_2 
REMARK    2  A    between atoms: C_2  and  C_3 
REMARK    3  A    between atoms: C_3  and  C_4 
REMARK    4  A    between atoms: C_3  and  C_6 
REMARK    5  A    between atoms: C_3  and  N_8 
REMARK    6  A    between atoms: C_4  and  O_5 
REMARK    7  A    between atoms: C_6  and  O_7 
REMARK    8  A    between atoms: N_8  and  C_9 
REMARK    9  A    between atoms: C_9  and  C_10 
REMARK   10  A    between atoms: C_10  and  S_11 
REMARK   11  A    between atoms: S_11  and  O_12 
ROOT
HETATM    1  C   UNK N   1      33.968  17.080   8.698  0.00  0.00     0.089 C 
ENDROOT
BRANCH   1   2
HETATM    2  C   UNK N   1      32.480  16.744   8.841  0.00  0.00     0.199 C 
BRANCH   2   3
HETATM    3  O   UNK N   1      32.270  15.605   9.623  0.00  0.00    -0.398 OA
HETATM    4  H   UNK N   1      31.794  14.808   9.346  0.00  0.00     0.209 HD
ENDBRANCH   2   3
ENDBRANCH   1   2
BRANCH   1   5
HETATM    5  C   UNK N   1      34.129  18.474   8.063  0.00  0.00     0.199 C 
BRANCH   5   6
HETATM    6  O   UNK N   1      35.296  19.113   8.488  0.00  0.00    -0.398 OA
HETATM    7  H   UNK N   1      36.217  18.866   8.311  0.00  0.00     0.209 HD
ENDBRANCH   5   6
ENDBRANCH   1   5
BRANCH   1   8
HETATM    8  C   UNK N   1      34.665  16.014   7.835  0.00  0.00     0.199 C 
BRANCH   8   9
HETATM    9  O   UNK N   1      34.971  16.521   6.570  0.00  0.00    -0.398 OA
HETATM   10  H   UNK N   1      35.787  17.006   6.367  0.00  0.00     0.209 HD
ENDBRANCH   8   9
ENDBRANCH   1   8
BRANCH   1  11
HETATM   11  N   UNK N   1      34.536  17.093  10.051  0.00  0.00    -0.406 N 
HETATM   12  H   UNK N   1      34.214  17.706  10.799  0.00  0.00     0.154 HD
BRANCH  11  13
HETATM   13  C   UNK N   1      35.615  16.120  10.196  0.00  0.00     0.131 C 
BRANCH  13  14
HETATM   14  C   UNK N   1      35.735  15.728  11.655  0.00  0.00     0.174 C 
BRANCH  14  15
HETATM   15  S   UNK N   1      35.506  13.936  11.820  0.00  0.00     0.095 S 
HETATM   16  O   UNK N   1      34.162  14.650  11.610  0.00  0.00    -0.601 OA
HETATM   17  O   UNK N   1      35.923  14.482  13.195  0.00  0.00    -0.601 OA
BRANCH  15  18
HETATM   18  O   UNK N   1      34.425  13.090  12.849  0.00  0.00    -0.296 OA
HETATM   19  H   UNK N   1      33.466  13.115  12.707  0.00  0.00     0.232 HD
ENDBRANCH  15  18
ENDBRANCH  14  15
ENDBRANCH  13  14
ENDBRANCH  11  13
ENDBRANCH   1  11
TORSDOF 11
ENDMDL
MODEL 4
REMARK VINA RESULT:      -4.6      3.419      4.459
REMARK  11 active torsions:
REMARK  status: ('A' for Active; 'I' for Inactive)
REMARK    1  A    between atoms: O_1  and  C_2 
REMARK    2  A    between atoms: C_2  and  C_3 
REMARK    3  A    between atoms: C_3  and  C_4 
REMARK    4  A    between atoms: C_3  and  C_6 
REMARK    5  A    between atoms: C_3  and  N_8 
REMARK    6  A    between atoms: C_4  and  O_5 
REMARK    7  A    between atoms: C_6  and  O_7 
REMARK    8  A    between atoms: N_8  and  C_9 
REMARK    9  A    between atoms: C_9  and  C_10 
REMARK   10  A    between atoms: C_10  and  S_11 
REMARK   11  A    between atoms: S_11  and  O_12 
ROOT
HETATM    1  C   UNK N   1      35.488  15.121   9.904  0.00  0.00     0.089 C 
ENDROOT
BRANCH   1   2
HETATM    2  C   UNK N   1      36.699  14.335  10.416  0.00  0.00     0.199 C 
BRANCH   2   3
HETATM    3  O   UNK N   1      37.890  15.055  10.283  0.00  0.00    -0.398 OA
HETATM    4  H   UNK N   1      38.006  15.998  10.475  0.00  0.00     0.209 HD
ENDBRANCH   2   3
ENDBRANCH   1   2
BRANCH   1   5
HETATM    5  C   UNK N   1      35.452  16.511  10.566  0.00  0.00     0.199 C 
BRANCH   5   6
HETATM    6  O   UNK N   1      34.405  17.297  10.081  0.00  0.00    -0.398 OA
HETATM    7  H   UNK N   1      34.064  17.354   9.174  0.00  0.00     0.209 HD
ENDBRANCH   5   6
ENDBRANCH   1   5
BRANCH   1   8
HETATM    8  C   UNK N   1      34.194  14.347  10.211  0.00  0.00     0.199 C 
BRANCH   8   9
HETATM    9  O   UNK N   1      33.514  14.922  11.287  0.00  0.00    -0.398 OA
HETATM   10  H   UNK N   1      33.518  14.555  12.185  0.00  0.00     0.209 HD
ENDBRANCH   8   9
ENDBRANCH   1   8
BRANCH   1  11
HETATM   11  N   UNK N   1      35.660  15.276   8.456  0.00  0.00    -0.406 N 
HETATM   12  H   UNK N   1      36.560  15.425   8.000  0.00  0.00     0.154 HD
BRANCH  11  13
HETATM   13  C   UNK N   1      34.387  15.189   7.746  0.00  0.00     0.131 C 
BRANCH  13  14
HETATM   14  C   UNK N   1      34.449  16.063   6.510  0.00  0.00     0.174 C 
BRANCH  14  15
HETATM   15  S   UNK N   1      33.245  17.411   6.662  0.00  0.00     0.095 S 
HETATM   16  O   UNK N   1      34.642  17.861   7.117  0.00  0.00    -0.601 OA
HETATM   17  O   UNK N   1      32.906  16.361   7.731  0.00  0.00    -0.601 OA
BRANCH  15  18
HETATM   18  O   UNK N   1      32.933  18.414   8.019  0.00  0.00    -0.296 OA
HETATM   19  H   UNK N   1      32.037  18.725   8.223  0.00  0.00     0.232 HD
ENDBRANCH  15  18
ENDBRANCH  14  15
ENDBRANCH  13  14
ENDBRANCH  11  13
ENDBRANCH   1  11
TORSDOF 11
ENDMDL
MODEL 5
REMARK VINA RESULT:      -4.6      4.521      6.577
REMARK  11 active torsions:
REMARK  status: ('A' for Active; 'I' for Inactive)
REMARK    1  A    between atoms: O_1  and  C_2 
REMARK    2  A    between atoms: C_2  and  C_3 
REMARK    3  A    between atoms: C_3  and  C_4 
REMARK    4  A    between atoms: C_3  and  C_6 
REMARK    5  A    between atoms: C_3  and  N_8 
REMARK    6  A    between atoms: C_4  and  O_5 
REMARK    7  A    between atoms: C_6  and  O_7 
REMARK    8  A    between atoms: N_8  and  C_9 
REMARK    9  A    between atoms: C_9  and  C_10 
REMARK   10  A    between atoms: C_10  and  S_11 
REMARK   11  A    between atoms: S_11  and  O_12 
ROOT
HETATM    1  C   UNK N   1      34.761  15.971   9.640  0.00  0.00     0.089 C 
ENDROOT
BRANCH   1   2
HETATM    2  C   UNK N   1      34.372  17.290   8.965  0.00  0.00     0.199 C 
BRANCH   2   3
HETATM    3  O   UNK N   1      35.297  18.306   9.222  0.00  0.00    -0.398 OA
HETATM    4  H   UNK N   1      35.989  18.285   9.901  0.00  0.00     0.209 HD
ENDBRANCH   2   3
ENDBRANCH   1   2
BRANCH   1   5
HETATM    5  C   UNK N   1      33.510  15.095   9.832  0.00  0.00     0.199 C 
BRANCH   5   6
HETATM    6  O   UNK N   1      33.165  14.960  11.178  0.00  0.00    -0.398 OA
HETATM    7  H   UNK N   1      32.317  14.681  11.558  0.00  0.00     0.209 HD
ENDBRANCH   5   6
ENDBRANCH   1   5
BRANCH   1   8
HETATM    8  C   UNK N   1      35.432  16.254  10.995  0.00  0.00     0.199 C 
BRANCH   8   9
HETATM    9  O   UNK N   1      36.823  16.195  10.884  0.00  0.00    -0.398 OA
HETATM   10  H   UNK N   1      37.403  16.970  10.955  0.00  0.00     0.209 HD
ENDBRANCH   8   9
ENDBRANCH   1   8
BRANCH   1  11
HETATM   11  N   UNK N   1      35.698  15.290   8.739  0.00  0.00    -0.406 N 
HETATM   12  H   UNK N   1      36.324  15.774   8.095  0.00  0.00     0.154 HD
BRANCH  11  13
HETATM   13  C   UNK N   1      35.626  13.839   8.877  0.00  0.00     0.131 C 
BRANCH  13  14
HETATM   14  C   UNK N   1      36.966  13.239   8.504  0.00  0.00     0.174 C 
BRANCH  14  15
HETATM   15  S   UNK N   1      37.855  12.757  10.010  0.00  0.00     0.095 S 
HETATM   16  O   UNK N   1      36.361  12.980  10.294  0.00  0.00    -0.601 OA
HETATM   17  O   UNK N   1      38.303  14.180   9.638  0.00  0.00    -0.601 OA
BRANCH  15  18
HETATM   18  O   UNK N   1      37.837  13.519  11.548  0.00  0.00    -0.296 OA
HETATM   19  H   UNK N   1      38.102  13.044  12.351  0.00  0.00     0.232 HD
ENDBRANCH  15  18
ENDBRANCH  14  15
ENDBRANCH  13  14
ENDBRANCH  11  13
ENDBRANCH   1  11
TORSDOF 11
ENDMDL
MODEL 6
REMARK VINA RESULT:      -4.6      3.202      5.350
REMARK  11 active torsions:
REMARK  status: ('A' for Active; 'I' for Inactive)
REMARK    1  A    between atoms: O_1  and  C_2 
REMARK    2  A    between atoms: C_2  and  C_3 
REMARK    3  A    between atoms: C_3  and  C_4 
REMARK    4  A    between atoms: C_3  and  C_6 
REMARK    5  A    between atoms: C_3  and  N_8 
REMARK    6  A    between atoms: C_4  and  O_5 
REMARK    7  A    between atoms: C_6  and  O_7 
REMARK    8  A    between atoms: N_8  and  C_9 
REMARK    9  A    between atoms: C_9  and  C_10 
REMARK   10  A    between atoms: C_10  and  S_11 
REMARK   11  A    between atoms: S_11  and  O_12 
ROOT
HETATM    1  C   UNK N   1      33.334  16.790   8.593  0.00  0.00     0.089 C 
ENDROOT
BRANCH   1   2
HETATM    2  C   UNK N   1      34.385  16.693   7.482  0.00  0.00     0.199 C 
BRANCH   2   3
HETATM    3  O   UNK N   1      34.481  17.875   6.744  0.00  0.00    -0.398 OA
HETATM    4  H   UNK N   1      33.761  18.506   6.587  0.00  0.00     0.209 HD
ENDBRANCH   2   3
ENDBRANCH   1   2
BRANCH   1   5
HETATM    5  C   UNK N   1      32.547  15.469   8.682  0.00  0.00     0.199 C 
BRANCH   5   6
HETATM    6  O   UNK N   1      31.965  15.288   9.938  0.00  0.00    -0.398 OA
HETATM    7  H   UNK N   1      31.135  15.660  10.278  0.00  0.00     0.209 HD
ENDBRANCH   5   6
ENDBRANCH   1   5
BRANCH   1   8
HETATM    8  C   UNK N   1      32.381  17.964   8.310  0.00  0.00     0.199 C 
BRANCH   8   9
HETATM    9  O   UNK N   1      31.254  17.899   9.134  0.00  0.00    -0.398 OA
HETATM   10  H   UNK N   1      31.101  17.194   9.783  0.00  0.00     0.209 HD
ENDBRANCH   8   9
ENDBRANCH   1   8
BRANCH   1  11
HETATM   11  N   UNK N   1      34.058  17.011   9.849  0.00  0.00    -0.406 N 
HETATM   12  H   UNK N   1      33.746  17.645  10.584  0.00  0.00     0.154 HD
BRANCH  11  13
HETATM   13  C   UNK N   1      35.278  16.212   9.920  0.00  0.00     0.131 C 
BRANCH  13  14
HETATM   14  C   UNK N   1      35.600  15.927  11.373  0.00  0.00     0.174 C 
BRANCH  14  15
HETATM   15  S   UNK N   1      35.459  14.146  11.686  0.00  0.00     0.095 S 
HETATM   16  O   UNK N   1      34.075  14.810  11.624  0.00  0.00    -0.601 OA
HETATM   17  O   UNK N   1      36.046  14.797  12.948  0.00  0.00    -0.601 OA
BRANCH  15  18
HETATM   18  O   UNK N   1      34.564  13.347  12.912  0.00  0.00    -0.296 OA
HETATM   19  H   UNK N   1      33.613  13.180  12.818  0.00  0.00     0.232 HD
ENDBRANCH  15  18
ENDBRANCH  14  15
ENDBRANCH  13  14
ENDBRANCH  11  13
ENDBRANCH   1  11
TORSDOF 11
ENDMDL
MODEL 7
REMARK VINA RESULT:      -4.4      4.037      5.764
REMARK  11 active torsions:
REMARK  status: ('A' for Active; 'I' for Inactive)
REMARK    1  A    between atoms: O_1  and  C_2 
REMARK    2  A    between atoms: C_2  and  C_3 
REMARK    3  A    between atoms: C_3  and  C_4 
REMARK    4  A    between atoms: C_3  and  C_6 
REMARK    5  A    between atoms: C_3  and  N_8 
REMARK    6  A    between atoms: C_4  and  O_5 
REMARK    7  A    between atoms: C_6  and  O_7 
REMARK    8  A    between atoms: N_8  and  C_9 
REMARK    9  A    between atoms: C_9  and  C_10 
REMARK   10  A    between atoms: C_10  and  S_11 
REMARK   11  A    between atoms: S_11  and  O_12 
ROOT
HETATM    1  C   UNK N   1      36.000  14.041  11.153  0.00  0.00     0.089 C 
ENDROOT
BRANCH   1   2
HETATM    2  C   UNK N   1      37.269  13.182  11.165  0.00  0.00     0.199 C 
BRANCH   2   3
HETATM    3  O   UNK N   1      38.410  13.923  10.842  0.00  0.00    -0.398 OA
HETATM    4  H   UNK N   1      38.486  14.556  10.112  0.00  0.00     0.209 HD
ENDBRANCH   2   3
ENDBRANCH   1   2
BRANCH   1   5
HETATM    5  C   UNK N   1      36.064  15.080  12.288  0.00  0.00     0.199 C 
BRANCH   5   6
HETATM    6  O   UNK N   1      36.792  14.616  13.385  0.00  0.00    -0.398 OA
HETATM    7  H   UNK N   1      37.080  13.710  13.578  0.00  0.00     0.209 HD
ENDBRANCH   5   6
ENDBRANCH   1   5
BRANCH   1   8
HETATM    8  C   UNK N   1      34.761  13.145  11.315  0.00  0.00     0.199 C 
BRANCH   8   9
HETATM    9  O   UNK N   1      34.395  13.040  12.660  0.00  0.00    -0.398 OA
HETATM   10  H   UNK N   1      33.486  12.884  12.961  0.00  0.00     0.209 HD
ENDBRANCH   8   9
ENDBRANCH   1   8
BRANCH   1  11
HETATM   11  N   UNK N   1      35.965  14.733   9.861  0.00  0.00    -0.406 N 
HETATM   12  H   UNK N   1      36.751  14.774   9.213  0.00  0.00     0.154 HD
BRANCH  11  13
HETATM   13  C   UNK N   1      34.667  15.356   9.614  0.00  0.00     0.131 C 
BRANCH  13  14
HETATM   14  C   UNK N   1      34.717  16.099   8.295  0.00  0.00     0.174 C 
BRANCH  14  15
HETATM   15  S   UNK N   1      34.074  17.780   8.523  0.00  0.00     0.095 S 
HETATM   16  O   UNK N   1      34.800  17.642   7.176  0.00  0.00    -0.601 OA
HETATM   17  O   UNK N   1      35.237  17.587   9.510  0.00  0.00    -0.601 OA
BRANCH  15  18
HETATM   18  O   UNK N   1      34.904  19.272   8.348  0.00  0.00    -0.296 OA
HETATM   19  H   UNK N   1      35.872  19.319   8.376  0.00  0.00     0.232 HD
ENDBRANCH  15  18
ENDBRANCH  14  15
ENDBRANCH  13  14
ENDBRANCH  11  13
ENDBRANCH   1  11
TORSDOF 11
ENDMDL
MODEL 8
REMARK VINA RESULT:      -4.4      4.559      6.754
REMARK  11 active torsions:
REMARK  status: ('A' for Active; 'I' for Inactive)
REMARK    1  A    between atoms: O_1  and  C_2 
REMARK    2  A    between atoms: C_2  and  C_3 
REMARK    3  A    between atoms: C_3  and  C_4 
REMARK    4  A    between atoms: C_3  and  C_6 
REMARK    5  A    between atoms: C_3  and  N_8 
REMARK    6  A    between atoms: C_4  and  O_5 
REMARK    7  A    between atoms: C_6  and  O_7 
REMARK    8  A    between atoms: N_8  and  C_9 
REMARK    9  A    between atoms: C_9  and  C_10 
REMARK   10  A    between atoms: C_10  and  S_11 
REMARK   11  A    between atoms: S_11  and  O_12 
ROOT
HETATM    1  C   UNK N   1      34.964  15.252  10.152  0.00  0.00     0.089 C 
ENDROOT
BRANCH   1   2
HETATM    2  C   UNK N   1      35.257  16.434  11.081  0.00  0.00     0.199 C 
BRANCH   2   3
HETATM    3  O   UNK N   1      35.839  17.507  10.400  0.00  0.00    -0.398 OA
HETATM    4  H   UNK N   1      36.479  18.134  10.771  0.00  0.00     0.209 HD
ENDBRANCH   2   3
ENDBRANCH   1   2
BRANCH   1   5
HETATM    5  C   UNK N   1      36.275  14.750   9.517  0.00  0.00     0.199 C 
BRANCH   5   6
HETATM    6  O   UNK N   1      37.395  15.118  10.265  0.00  0.00    -0.398 OA
HETATM    7  H   UNK N   1      38.224  14.629  10.387  0.00  0.00     0.209 HD
ENDBRANCH   5   6
ENDBRANCH   1   5
BRANCH   1   8
HETATM    8  C   UNK N   1      33.968  15.679   9.060  0.00  0.00     0.199 C 
BRANCH   8   9
HETATM    9  O   UNK N   1      33.308  16.856   9.422  0.00  0.00    -0.398 OA
HETATM   10  H   UNK N   1      32.828  16.969  10.258  0.00  0.00     0.209 HD
ENDBRANCH   8   9
ENDBRANCH   1   8
BRANCH   1  11
HETATM   11  N   UNK N   1      34.387  14.189  10.982  0.00  0.00    -0.406 N 
HETATM   12  H   UNK N   1      33.632  13.574  10.678  0.00  0.00     0.154 HD
BRANCH  11  13
HETATM   13  C   UNK N   1      35.025  14.117  12.293  0.00  0.00     0.131 C 
BRANCH  13  14
HETATM   14  C   UNK N   1      35.118  12.667  12.721  0.00  0.00     0.174 C 
BRANCH  14  15
HETATM   15  S   UNK N   1      36.860  12.163  12.776  0.00  0.00     0.095 S 
HETATM   16  O   UNK N   1      36.724  13.693  12.802  0.00  0.00    -0.601 OA
HETATM   17  O   UNK N   1      36.324  11.840  11.371  0.00  0.00    -0.601 OA
BRANCH  15  18
HETATM   18  O   UNK N   1      38.159  12.709  11.796  0.00  0.00    -0.296 OA
HETATM   19  H   UNK N   1      38.015  13.003  10.883  0.00  0.00     0.232 HD
ENDBRANCH  15  18
ENDBRANCH  14  15
ENDBRANCH  13  14
ENDBRANCH  11  13
ENDBRANCH   1  11
TORSDOF 11
ENDMDL
MODEL 9
REMARK VINA RESULT:      -4.3      2.807      5.069
REMARK  11 active torsions:
REMARK  status: ('A' for Active; 'I' for Inactive)
REMARK    1  A    between atoms: O_1  and  C_2 
REMARK    2  A    between atoms: C_2  and  C_3 
REMARK    3  A    between atoms: C_3  and  C_4 
REMARK    4  A    between atoms: C_3  and  C_6 
REMARK    5  A    between atoms: C_3  and  N_8 
REMARK    6  A    between atoms: C_4  and  O_5 
REMARK    7  A    between atoms: C_6  and  O_7 
REMARK    8  A    between atoms: N_8  and  C_9 
REMARK    9  A    between atoms: C_9  and  C_10 
REMARK   10  A    between atoms: C_10  and  S_11 
REMARK   11  A    between atoms: S_11  and  O_12 
ROOT
HETATM    1  C   UNK N   1      33.330  17.188   8.229  0.00  0.00     0.089 C 
ENDROOT
BRANCH   1   2
HETATM    2  C   UNK N   1      31.851  17.523   8.017  0.00  0.00     0.199 C 
BRANCH   2   3
HETATM    3  O   UNK N   1      31.150  17.604   9.224  0.00  0.00    -0.398 OA
HETATM    4  H   UNK N   1      30.293  18.038   9.354  0.00  0.00     0.209 HD
ENDBRANCH   2   3
ENDBRANCH   1   2
BRANCH   1   5
HETATM    5  C   UNK N   1      34.174  18.473   8.144  0.00  0.00     0.199 C 
BRANCH   5   6
HETATM    6  O   UNK N   1      35.299  18.419   8.968  0.00  0.00    -0.398 OA
HETATM    7  H   UNK N   1      36.200  18.728   8.779  0.00  0.00     0.209 HD
ENDBRANCH   5   6
ENDBRANCH   1   5
BRANCH   1   8
HETATM    8  C   UNK N   1      33.793  16.172   7.170  0.00  0.00     0.199 C 
BRANCH   8   9
HETATM    9  O   UNK N   1      34.860  16.680   6.426  0.00  0.00    -0.398 OA
HETATM   10  H   UNK N   1      35.488  16.126   5.935  0.00  0.00     0.209 HD
ENDBRANCH   8   9
ENDBRANCH   1   8
BRANCH   1  11
HETATM   11  N   UNK N   1      33.450  16.615   9.574  0.00  0.00    -0.406 N 
HETATM   12  H   UNK N   1      33.205  17.112  10.430  0.00  0.00     0.154 HD
BRANCH  11  13
HETATM   13  C   UNK N   1      33.962  15.248   9.538  0.00  0.00     0.131 C 
BRANCH  13  14
HETATM   14  C   UNK N   1      34.236  14.784  10.954  0.00  0.00     0.174 C 
BRANCH  14  15
HETATM   15  S   UNK N   1      36.019  14.853  11.279  0.00  0.00     0.095 S 
HETATM   16  O   UNK N   1      35.334  16.175  11.659  0.00  0.00    -0.601 OA
HETATM   17  O   UNK N   1      35.823  14.844   9.754  0.00  0.00    -0.601 OA
BRANCH  15  18
HETATM   18  O   UNK N   1      37.145  16.055  10.796  0.00  0.00    -0.296 OA
HETATM   19  H   UNK N   1      37.367  16.194   9.862  0.00  0.00     0.232 HD
ENDBRANCH  15  18
ENDBRANCH  14  15
ENDBRANCH  13  14
ENDBRANCH  11  13
ENDBRANCH   1  11
TORSDOF 11
ENDMDL
