REMARK  28 active torsions:
REMARK  status: ('A' for Active; 'I' for Inactive)
REMARK    1  A    between atoms: C_1  and  O_4 
REMARK    2  A    between atoms: C_2  and  N_6 
REMARK    3  A    between atoms: O_4  and  P_8 
REMARK    4  A    between atoms: C_5  and  O_10 
REMARK       I    between atoms: N_6  and  C_11 
REMARK    5  A    between atoms: C_7  and  C_12 
REMARK    6  A    between atoms: P_8  and  O_13 
REMARK    7  A    between atoms: P_8  and  O_14 
REMARK    8  A    between atoms: C_9  and  O_16 
REMARK    9  A    between atoms: O_10  and  C_17 
REMARK   10  A    between atoms: C_12  and  O_20 
REMARK   11  A    between atoms: O_13  and  P_21 
REMARK   12  A    between atoms: C_17  and  C_22 
REMARK   13  A    between atoms: P_21  and  O_24 
REMARK   14  A    between atoms: P_21  and  O_25 
REMARK       I    between atoms: C_22  and  N_27 
REMARK   15  A    between atoms: O_24  and  C_29 
REMARK   16  A    between atoms: C_30  and  N_27 
REMARK   17  A    between atoms: C_31  and  C_29 
REMARK   18  A    between atoms: C_30  and  C_32 
REMARK       I    between atoms: C_32  and  N_36 
REMARK   19  A    between atoms: C_35  and  O_40 
REMARK   20  A    between atoms: C_41  and  N_36 
REMARK   21  A    between atoms: C_38  and  N_42 
REMARK   22  A    between atoms: C_39  and  O_43 
REMARK   23  A    between atoms: C_41  and  C_44 
REMARK   24  A    between atoms: C_41  and  C_45 
REMARK   25  A    between atoms: C_44  and  C_48 
REMARK   26  A    between atoms: C_45  and  O_49 
REMARK   27  A    between atoms: C_48  and  C_54 
REMARK   28  A    between atoms: C_54  and  O_56 
ROOT
HETATM    1  C   UNK N   1      21.712 -11.528   1.374  0.00  0.00     0.297 C 
HETATM    2  C   UNK N   1      21.950 -13.007   1.018  0.00  0.00     0.171 C 
HETATM    3  O   UNK N   1      20.309 -11.329   1.497  0.00  0.00    -0.348 OA
HETATM    4  C   UNK N   1      21.335 -13.504  -0.322  0.00  0.00     0.181 C 
HETATM    5  C   UNK N   1      19.545 -11.852   0.398  0.00  0.00     0.179 C 
HETATM    6  C   UNK N   1      20.377 -12.394  -0.795  0.00  0.00     0.180 C 
ENDROOT
BRANCH   1   7
HETATM    7  O   UNK N   1      22.236 -10.566   0.469  0.00  0.00    -0.263 OA
BRANCH   7   8
HETATM    8  P   UNK N   1      23.869 -10.979  -0.000  0.00  0.00     0.404 P 
HETATM    9  O   UNK N   1      23.001 -11.094  -1.284  0.00  0.00    -0.631 OA
BRANCH   8  10
HETATM   10  O   UNK N   1      24.810 -10.121  -1.190  0.00  0.00    -0.195 OA
BRANCH  10  11
HETATM   11  P   UNK N   1      25.728 -11.302  -2.118  0.00  0.00     0.401 P 
HETATM   12  O   UNK N   1      25.049 -11.316  -3.512  0.00  0.00    -0.631 OA
BRANCH  11  13
HETATM   13  O   UNK N   1      25.659 -12.969  -1.593  0.00  0.00    -0.294 OA
BRANCH  13  14
HETATM   14  C   UNK N   1      26.405 -13.061  -0.416  0.00  0.00     0.215 C 
BRANCH  14  15
HETATM   15  C   UNK N   1      27.706 -13.823  -0.633  0.00  0.00     0.180 C 
HETATM   16  O   UNK N   1      28.614 -13.026  -1.364  0.00  0.00    -0.353 OA
HETATM   17  C   UNK N   1      29.807 -12.972  -0.610  0.00  0.00     0.263 C 
HETATM   18  C   UNK N   1      29.784 -14.008   0.490  0.00  0.00     0.198 C 
HETATM   19  C   UNK N   1      28.311 -14.121   0.722  0.00  0.00     0.182 C 
BRANCH  17  20
HETATM   20  N   UNK N   1      30.141 -11.611  -0.165  0.00  0.00    -0.280 N 
HETATM   21  C   UNK N   1      29.214 -10.693   0.306  0.00  0.00     0.331 A 
HETATM   22  N   UNK N   1      29.611  -9.428   0.644  0.00  0.00    -0.275 N 
HETATM   23  O   UNK N   1      28.039 -10.988   0.412  0.00  0.00    -0.246 OA
HETATM   24  C   UNK N   1      30.921  -9.053   0.534  0.00  0.00     0.250 A 
HETATM   25  H   UNK N   1      28.946  -8.780   0.970  0.00  0.00     0.173 HD
HETATM   26  O   UNK N   1      31.258  -7.923   0.832  0.00  0.00    -0.268 OA
HETATM   27  C   UNK N   1      31.864  -9.964   0.078  0.00  0.00     0.092 A 
HETATM   28  C   UNK N   1      31.447 -11.243  -0.276  0.00  0.00     0.104 A 
ENDBRANCH  17  20
BRANCH  18  29
HETATM   29  O   UNK N   1      30.283 -15.203  -0.038  0.00  0.00    -0.388 OA
HETATM   30  H   UNK N   1      29.738 -15.917  -0.404  0.00  0.00     0.210 HD
ENDBRANCH  18  29
BRANCH  19  31
HETATM   31  O   UNK N   1      27.956 -15.397   1.170  0.00  0.00    -0.390 OA
HETATM   32  H   UNK N   1      27.066 -15.627   1.480  0.00  0.00     0.210 HD
ENDBRANCH  19  31
ENDBRANCH  14  15
ENDBRANCH  13  14
ENDBRANCH  11  13
BRANCH  11  33
HETATM   33  O   UNK N   1      27.347 -10.769  -2.438  0.00  0.00    -0.307 OA
HETATM   34  H   UNK N   1      28.058 -11.404  -2.617  0.00  0.00     0.222 HD
ENDBRANCH  11  33
ENDBRANCH  10  11
ENDBRANCH   8  10
BRANCH   8  35
HETATM   35  O   UNK N   1      23.874  -9.310   0.483  0.00  0.00    -0.307 OA
HETATM   36  H   UNK N   1      24.682  -8.847   0.753  0.00  0.00     0.222 HD
ENDBRANCH   8  35
ENDBRANCH   7   8
ENDBRANCH   1   7
BRANCH   2  37
HETATM   37  N   UNK N   1      23.166 -13.614   1.544  0.00  0.00    -0.349 N 
HETATM   38  C   UNK N   1      23.977 -14.491   0.898  0.00  0.00     0.214 C 
HETATM   39  C   UNK N   1      25.090 -15.130   1.647  0.00  0.00     0.117 C 
HETATM   40  O   UNK N   1      23.790 -14.793  -0.271  0.00  0.00    -0.274 OA
HETATM   41  H   UNK N   1      23.425 -13.364   2.460  0.00  0.00     0.163 HD
ENDBRANCH   2  37
BRANCH   4  42
HETATM   42  O   UNK N   1      20.598 -14.716  -0.205  0.00  0.00    -0.367 OA
BRANCH  42  43
HETATM   43  C   UNK N   1      21.213 -15.593   0.707  0.00  0.00     0.209 C 
HETATM   44  C   UNK N   1      20.528 -15.447   2.060  0.00  0.00     0.050 C 
BRANCH  43  45
HETATM   45  C   UNK N   1      21.109 -17.019   0.306  0.00  0.00     0.247 C 
HETATM   46  N   UNK N   1      20.259 -17.376  -0.688  0.00  0.00    -0.346 N 
HETATM   47  H   UNK N   1      20.003 -16.698  -1.355  0.00  0.00     0.163 HD
HETATM   48  O   UNK N   1      21.660 -17.868   0.993  0.00  0.00    -0.271 OA
BRANCH  46  49
HETATM   49  C   UNK N   1      19.714 -18.708  -0.811  0.00  0.00     0.172 C 
HETATM   50  C   UNK N   1      20.818 -19.714  -1.129  0.00  0.00     0.042 C 
BRANCH  49  51
HETATM   51  C   UNK N   1      18.985 -19.011   0.487  0.00  0.00     0.240 C 
HETATM   52  N   UNK N   1      17.897 -18.298   0.900  0.00  0.00    -0.345 N 
HETATM   53  H   UNK N   1      17.609 -18.459   1.827  0.00  0.00     0.163 HD
HETATM   54  O   UNK N   1      19.430 -19.872   1.231  0.00  0.00    -0.271 OA
BRANCH  52  55
HETATM   55  C   UNK N   1      17.106 -17.329   0.152  0.00  0.00     0.182 C 
BRANCH  55  56
HETATM   56  C   UNK N   1      16.032 -17.973  -0.715  0.00  0.00     0.046 C 
BRANCH  56  57
HETATM   57  C   UNK N   1      15.001 -16.958  -1.209  0.00  0.00     0.112 C 
BRANCH  57  58
HETATM   58  C   UNK N   1      14.389 -16.175  -0.087  0.00  0.00     0.139 C 
HETATM   59  O   UNK N   1      14.511 -14.962  -0.058  0.00  0.00    -0.650 OA
BRANCH  58  60
HETATM   60  O   UNK N   1      13.710 -16.806   0.889  0.00  0.00    -0.776 OA
HETATM   61  H   UNK N   1      13.094 -16.616   1.570  0.00  0.00     0.167 HD
ENDBRANCH  58  60
ENDBRANCH  57  58
ENDBRANCH  56  57
ENDBRANCH  55  56
BRANCH  55  62
HETATM   62  C   UNK N   1      17.777 -16.112  -0.425  0.00  0.00     0.163 C 
HETATM   63  O   UNK N   1      17.840 -15.087   0.233  0.00  0.00    -0.648 OA
BRANCH  62  64
HETATM   64  O   UNK N   1      18.146 -16.093  -1.722  0.00  0.00    -0.775 OA
HETATM   65  H   UNK N   1      18.286 -16.308  -2.623  0.00  0.00     0.167 HD
ENDBRANCH  62  64
ENDBRANCH  55  62
ENDBRANCH  52  55
ENDBRANCH  49  51
ENDBRANCH  46  49
ENDBRANCH  43  45
ENDBRANCH  42  43
ENDBRANCH   4  42
BRANCH   5  66
HETATM   66  C   UNK N   1      18.512 -10.823  -0.040  0.00  0.00     0.198 C 
BRANCH  66  67
HETATM   67  O   UNK N   1      19.132  -9.624  -0.390  0.00  0.00    -0.398 OA
HETATM   68  H   UNK N   1      20.069  -9.580  -0.634  0.00  0.00     0.209 HD
ENDBRANCH  66  67
ENDBRANCH   5  66
BRANCH   6  69
HETATM   69  O   UNK N   1      19.567 -12.841  -1.842  0.00  0.00    -0.390 OA
HETATM   70  H   UNK N   1      19.018 -12.509  -2.570  0.00  0.00     0.210 HD
ENDBRANCH   6  69
TORSDOF 28
