MODEL 1
REMARK VINA RESULT:      -5.2      0.000      0.000
REMARK  6 active torsions:
REMARK  status: ('A' for Active; 'I' for Inactive)
REMARK    1  A    between atoms: C_3  and  O_2 
REMARK    2  A    between atoms: C_5  and  C_6 
REMARK    3  A    between atoms: C_6  and  O_7 
REMARK    4  A    between atoms: C_8  and  O_9 
REMARK    5  A    between atoms: C_10  and  O_11 
REMARK    6  A    between atoms: C_12  and  O_13 
ROOT
HETATM    1  C   UNK N   1      21.373  20.358   3.052  0.00  0.00     0.290 C 
HETATM    2  O   UNK N   1      21.900  19.476   4.016  0.00  0.00    -0.349 OA
HETATM    3  C   UNK N   1      20.819  18.776   4.594  0.00  0.00     0.179 C 
HETATM    4  C   UNK N   1      20.223  17.815   3.554  0.00  0.00     0.180 C 
HETATM    5  C   UNK N   1      19.724  18.638   2.368  0.00  0.00     0.183 C 
HETATM    6  C   UNK N   1      20.829  19.558   1.862  0.00  0.00     0.204 C 
ENDROOT
BRANCH   3   7
HETATM    7  C   UNK N   1      21.312  17.998   5.807  0.00  0.00     0.198 C 
BRANCH   7   8
HETATM    8  O   UNK N   1      21.022  18.697   6.980  0.00  0.00    -0.398 OA
HETATM    9  H   UNK N   1      20.611  18.294   7.760  0.00  0.00     0.209 HD
ENDBRANCH   7   8
ENDBRANCH   3   7
BRANCH   4  10
HETATM   10  O   UNK N   1      19.157  17.099   4.104  0.00  0.00    -0.390 OA
HETATM   11  H   UNK N   1      19.203  16.357   4.726  0.00  0.00     0.210 HD
ENDBRANCH   4  10
BRANCH   1  12
HETATM   12  O   UNK N   1      22.383  21.223   2.617  0.00  0.00    -0.363 OA
HETATM   13  C   UNK N   1      23.579  20.562   2.901  0.00  0.00     0.204 C 
ENDBRANCH   1  12
BRANCH   5  14
HETATM   14  O   UNK N   1      19.292  17.798   1.340  0.00  0.00    -0.390 OA
HETATM   15  H   UNK N   1      18.525  17.985   0.776  0.00  0.00     0.210 HD
ENDBRANCH   5  14
BRANCH   6  16
HETATM   16  O   UNK N   1      20.311  20.421   0.894  0.00  0.00    -0.388 OA
HETATM   17  H   UNK N   1      20.271  20.221  -0.055  0.00  0.00     0.210 HD
ENDBRANCH   6  16
TORSDOF 6
ENDMDL
MODEL 2
REMARK VINA RESULT:      -5.2      1.535      2.457
REMARK  6 active torsions:
REMARK  status: ('A' for Active; 'I' for Inactive)
REMARK    1  A    between atoms: C_3  and  O_2 
REMARK    2  A    between atoms: C_5  and  C_6 
REMARK    3  A    between atoms: C_6  and  O_7 
REMARK    4  A    between atoms: C_8  and  O_9 
REMARK    5  A    between atoms: C_10  and  O_11 
REMARK    6  A    between atoms: C_12  and  O_13 
ROOT
HETATM    1  C   UNK N   1      22.281  19.333   3.770  0.00  0.00     0.290 C 
HETATM    2  O   UNK N   1      21.863  18.003   3.574  0.00  0.00    -0.349 OA
HETATM    3  C   UNK N   1      20.452  17.983   3.632  0.00  0.00     0.179 C 
HETATM    4  C   UNK N   1      19.884  18.696   2.395  0.00  0.00     0.180 C 
HETATM    5  C   UNK N   1      20.376  20.142   2.405  0.00  0.00     0.183 C 
HETATM    6  C   UNK N   1      21.893  20.182   2.553  0.00  0.00     0.204 C 
ENDROOT
BRANCH   3   7
HETATM    7  C   UNK N   1      19.968  16.539   3.676  0.00  0.00     0.198 C 
BRANCH   7   8
HETATM    8  O   UNK N   1      18.751  16.458   4.352  0.00  0.00    -0.398 OA
HETATM    9  H   UNK N   1      18.039  15.844   4.110  0.00  0.00     0.209 HD
ENDBRANCH   7   8
ENDBRANCH   3   7
BRANCH   4  10
HETATM   10  O   UNK N   1      18.487  18.681   2.421  0.00  0.00    -0.390 OA
HETATM   11  H   UNK N   1      17.904  19.106   3.069  0.00  0.00     0.210 HD
ENDBRANCH   4  10
BRANCH   1  12
HETATM   12  O   UNK N   1      23.670  19.360   3.941  0.00  0.00    -0.363 OA
HETATM   13  C   UNK N   1      23.956  18.287   4.785  0.00  0.00     0.204 C 
ENDBRANCH   1  12
BRANCH   5  14
HETATM   14  O   UNK N   1      19.993  20.794   1.231  0.00  0.00    -0.390 OA
HETATM   15  H   UNK N   1      19.111  21.174   1.088  0.00  0.00     0.210 HD
ENDBRANCH   5  14
BRANCH   6  16
HETATM   16  O   UNK N   1      22.310  21.502   2.729  0.00  0.00    -0.388 OA
HETATM   17  H   UNK N   1      22.621  22.080   2.015  0.00  0.00     0.210 HD
ENDBRANCH   6  16
TORSDOF 6
ENDMDL
MODEL 3
REMARK VINA RESULT:      -5.2     12.807     14.471
REMARK  6 active torsions:
REMARK  status: ('A' for Active; 'I' for Inactive)
REMARK    1  A    between atoms: C_3  and  O_2 
REMARK    2  A    between atoms: C_5  and  C_6 
REMARK    3  A    between atoms: C_6  and  O_7 
REMARK    4  A    between atoms: C_8  and  O_9 
REMARK    5  A    between atoms: C_10  and  O_11 
REMARK    6  A    between atoms: C_12  and  O_13 
ROOT
HETATM    1  C   UNK N   1      33.617  15.886   7.198  0.00  0.00     0.290 C 
HETATM    2  O   UNK N   1      33.270  15.417   8.480  0.00  0.00    -0.349 OA
HETATM    3  C   UNK N   1      34.384  15.616   9.325  0.00  0.00     0.179 C 
HETATM    4  C   UNK N   1      34.578  17.121   9.563  0.00  0.00     0.180 C 
HETATM    5  C   UNK N   1      34.833  17.792   8.215  0.00  0.00     0.183 C 
HETATM    6  C   UNK N   1      33.739  17.415   7.222  0.00  0.00     0.204 C 
ENDROOT
BRANCH   3   7
HETATM    7  C   UNK N   1      34.148  14.900  10.649  0.00  0.00     0.198 C 
BRANCH   7   8
HETATM    8  O   UNK N   1      32.811  15.015  11.029  0.00  0.00    -0.398 OA
HETATM    9  H   UNK N   1      32.434  15.805  11.447  0.00  0.00     0.209 HD
ENDBRANCH   7   8
ENDBRANCH   3   7
BRANCH   4  10
HETATM   10  O   UNK N   1      35.669  17.346  10.406  0.00  0.00    -0.390 OA
HETATM   11  H   UNK N   1      36.594  17.100  10.254  0.00  0.00     0.210 HD
ENDBRANCH   4  10
BRANCH   1  12
HETATM   12  O   UNK N   1      32.626  15.506   6.285  0.00  0.00    -0.363 OA
HETATM   13  C   UNK N   1      31.417  15.718   6.948  0.00  0.00     0.204 C 
ENDBRANCH   1  12
BRANCH   5  14
HETATM   14  O   UNK N   1      34.886  19.180   8.364  0.00  0.00    -0.390 OA
HETATM   15  H   UNK N   1      35.376  19.768   7.768  0.00  0.00     0.210 HD
ENDBRANCH   5  14
BRANCH   6  16
HETATM   16  O   UNK N   1      34.073  17.894   5.955  0.00  0.00    -0.388 OA
HETATM   17  H   UNK N   1      33.457  18.352   5.361  0.00  0.00     0.210 HD
ENDBRANCH   6  16
TORSDOF 6
ENDMDL
MODEL 4
REMARK VINA RESULT:      -4.9     20.721     23.103
REMARK  6 active torsions:
REMARK  status: ('A' for Active; 'I' for Inactive)
REMARK    1  A    between atoms: C_3  and  O_2 
REMARK    2  A    between atoms: C_5  and  C_6 
REMARK    3  A    between atoms: C_6  and  O_7 
REMARK    4  A    between atoms: C_8  and  O_9 
REMARK    5  A    between atoms: C_10  and  O_11 
REMARK    6  A    between atoms: C_12  and  O_13 
ROOT
HETATM    1  C   UNK N   1      42.661  21.541   1.721  0.00  0.00     0.290 C 
HETATM    2  O   UNK N   1      43.242  20.440   2.380  0.00  0.00    -0.349 OA
HETATM    3  C   UNK N   1      44.556  20.803   2.745  0.00  0.00     0.179 C 
HETATM    4  C   UNK N   1      44.500  21.864   3.855  0.00  0.00     0.180 C 
HETATM    5  C   UNK N   1      43.763  23.088   3.314  0.00  0.00     0.183 C 
HETATM    6  C   UNK N   1      42.419  22.676   2.724  0.00  0.00     0.204 C 
ENDROOT
BRANCH   3   7
HETATM    7  C   UNK N   1      45.304  19.569   3.234  0.00  0.00     0.198 C 
BRANCH   7   8
HETATM    8  O   UNK N   1      46.681  19.756   3.107  0.00  0.00    -0.398 OA
HETATM    9  H   UNK N   1      47.101  20.625   3.009  0.00  0.00     0.209 HD
ENDBRANCH   7   8
ENDBRANCH   3   7
BRANCH   4  10
HETATM   10  O   UNK N   1      45.789  22.234   4.244  0.00  0.00    -0.390 OA
HETATM   11  H   UNK N   1      46.569  21.662   4.325  0.00  0.00     0.210 HD
ENDBRANCH   4  10
BRANCH   1  12
HETATM   12  O   UNK N   1      41.445  21.148   1.151  0.00  0.00    -0.363 OA
HETATM   13  C   UNK N   1      40.822  20.363   2.122  0.00  0.00     0.204 C 
ENDBRANCH   1  12
BRANCH   5  14
HETATM   14  O   UNK N   1      43.571  24.028   4.329  0.00  0.00    -0.390 OA
HETATM   15  H   UNK N   1      44.200  24.176   5.053  0.00  0.00     0.210 HD
ENDBRANCH   5  14
BRANCH   6  16
HETATM   16  O   UNK N   1      41.835  23.770   2.085  0.00  0.00    -0.388 OA
HETATM   17  H   UNK N   1      41.336  24.469   2.538  0.00  0.00     0.210 HD
ENDBRANCH   6  16
TORSDOF 6
ENDMDL
MODEL 5
REMARK VINA RESULT:      -4.9      1.455      3.674
REMARK  6 active torsions:
REMARK  status: ('A' for Active; 'I' for Inactive)
REMARK    1  A    between atoms: C_3  and  O_2 
REMARK    2  A    between atoms: C_5  and  C_6 
REMARK    3  A    between atoms: C_6  and  O_7 
REMARK    4  A    between atoms: C_8  and  O_9 
REMARK    5  A    between atoms: C_10  and  O_11 
REMARK    6  A    between atoms: C_12  and  O_13 
ROOT
HETATM    1  C   UNK N   1      22.227  18.251   4.028  0.00  0.00     0.290 C 
HETATM    2  O   UNK N   1      21.800  19.456   3.437  0.00  0.00    -0.349 OA
HETATM    3  C   UNK N   1      20.997  19.127   2.324  0.00  0.00     0.179 C 
HETATM    4  C   UNK N   1      19.677  18.511   2.814  0.00  0.00     0.180 C 
HETATM    5  C   UNK N   1      20.002  17.244   3.602  0.00  0.00     0.183 C 
HETATM    6  C   UNK N   1      21.033  17.545   4.684  0.00  0.00     0.204 C 
ENDROOT
BRANCH   3   7
HETATM    7  C   UNK N   1      20.720  20.385   1.511  0.00  0.00     0.198 C 
BRANCH   7   8
HETATM    8  O   UNK N   1      20.654  20.078   0.151  0.00  0.00    -0.398 OA
HETATM    9  H   UNK N   1      21.327  19.560  -0.318  0.00  0.00     0.209 HD
ENDBRANCH   7   8
ENDBRANCH   3   7
BRANCH   4  10
HETATM   10  O   UNK N   1      18.858  18.186   1.730  0.00  0.00    -0.390 OA
HETATM   11  H   UNK N   1      18.945  17.429   1.129  0.00  0.00     0.210 HD
ENDBRANCH   4  10
BRANCH   1  12
HETATM   12  O   UNK N   1      23.199  18.531   4.995  0.00  0.00    -0.363 OA
HETATM   13  C   UNK N   1      24.408  18.566   4.300  0.00  0.00     0.204 C 
ENDBRANCH   1  12
BRANCH   5  14
HETATM   14  O   UNK N   1      18.843  16.720   4.179  0.00  0.00    -0.390 OA
HETATM   15  H   UNK N   1      18.434  15.884   3.904  0.00  0.00     0.210 HD
ENDBRANCH   5  14
BRANCH   6  16
HETATM   16  O   UNK N   1      21.444  16.353   5.282  0.00  0.00    -0.388 OA
HETATM   17  H   UNK N   1      22.274  16.242   5.773  0.00  0.00     0.210 HD
ENDBRANCH   6  16
TORSDOF 6
ENDMDL
MODEL 6
REMARK VINA RESULT:      -4.7     13.331     14.766
REMARK  6 active torsions:
REMARK  status: ('A' for Active; 'I' for Inactive)
REMARK    1  A    between atoms: C_3  and  O_2 
REMARK    2  A    between atoms: C_5  and  C_6 
REMARK    3  A    between atoms: C_6  and  O_7 
REMARK    4  A    between atoms: C_8  and  O_9 
REMARK    5  A    between atoms: C_10  and  O_11 
REMARK    6  A    between atoms: C_12  and  O_13 
ROOT
HETATM    1  C   UNK N   1      32.719  14.836   8.565  0.00  0.00     0.290 C 
HETATM    2  O   UNK N   1      33.364  14.974   7.321  0.00  0.00    -0.349 OA
HETATM    3  C   UNK N   1      33.495  16.354   7.055  0.00  0.00     0.179 C 
HETATM    4  C   UNK N   1      34.516  16.964   8.029  0.00  0.00     0.180 C 
HETATM    5  C   UNK N   1      34.002  16.763   9.453  0.00  0.00     0.183 C 
HETATM    6  C   UNK N   1      33.657  15.296   9.688  0.00  0.00     0.204 C 
ENDROOT
BRANCH   3   7
HETATM    7  C   UNK N   1      33.956  16.551   5.617  0.00  0.00     0.198 C 
BRANCH   7   8
HETATM    8  O   UNK N   1      33.632  17.834   5.176  0.00  0.00    -0.398 OA
HETATM    9  H   UNK N   1      33.234  18.514   5.742  0.00  0.00     0.209 HD
ENDBRANCH   7   8
ENDBRANCH   3   7
BRANCH   4  10
HETATM   10  O   UNK N   1      34.673  18.329   7.780  0.00  0.00    -0.390 OA
HETATM   11  H   UNK N   1      34.055  19.044   7.998  0.00  0.00     0.210 HD
ENDBRANCH   4  10
BRANCH   1  12
HETATM   12  O   UNK N   1      32.374  13.494   8.760  0.00  0.00    -0.363 OA
HETATM   13  C   UNK N   1      33.456  12.763   8.268  0.00  0.00     0.204 C 
ENDBRANCH   1  12
BRANCH   5  14
HETATM   14  O   UNK N   1      34.959  17.184  10.379  0.00  0.00    -0.390 OA
HETATM   15  H   UNK N   1      34.745  17.657  11.199  0.00  0.00     0.210 HD
ENDBRANCH   5  14
BRANCH   6  16
HETATM   16  O   UNK N   1      33.034  15.157  10.929  0.00  0.00    -0.388 OA
HETATM   17  H   UNK N   1      32.131  15.453  11.126  0.00  0.00     0.210 HD
ENDBRANCH   6  16
TORSDOF 6
ENDMDL
MODEL 7
REMARK VINA RESULT:      -4.7     15.968     17.714
REMARK  6 active torsions:
REMARK  status: ('A' for Active; 'I' for Inactive)
REMARK    1  A    between atoms: C_3  and  O_2 
REMARK    2  A    between atoms: C_5  and  C_6 
REMARK    3  A    between atoms: C_6  and  O_7 
REMARK    4  A    between atoms: C_8  and  O_9 
REMARK    5  A    between atoms: C_10  and  O_11 
REMARK    6  A    between atoms: C_12  and  O_13 
ROOT
HETATM    1  C   UNK N   1      37.011  13.799  10.341  0.00  0.00     0.290 C 
HETATM    2  O   UNK N   1      36.674  15.151  10.134  0.00  0.00    -0.349 OA
HETATM    3  C   UNK N   1      35.274  15.223   9.962  0.00  0.00     0.179 C 
HETATM    4  C   UNK N   1      34.582  14.907  11.297  0.00  0.00     0.180 C 
HETATM    5  C   UNK N   1      34.973  13.492  11.719  0.00  0.00     0.183 C 
HETATM    6  C   UNK N   1      36.490  13.339  11.708  0.00  0.00     0.204 C 
ENDROOT
BRANCH   3   7
HETATM    7  C   UNK N   1      34.895  16.621   9.490  0.00  0.00     0.198 C 
BRANCH   7   8
HETATM    8  O   UNK N   1      35.566  17.584  10.242  0.00  0.00    -0.398 OA
HETATM    9  H   UNK N   1      36.431  17.951  10.001  0.00  0.00     0.209 HD
ENDBRANCH   7   8
ENDBRANCH   3   7
BRANCH   4  10
HETATM   10  O   UNK N   1      33.194  14.982  11.157  0.00  0.00    -0.390 OA
HETATM   11  H   UNK N   1      32.684  15.656  10.680  0.00  0.00     0.210 HD
ENDBRANCH   4  10
BRANCH   1  12
HETATM   12  O   UNK N   1      38.403  13.659  10.295  0.00  0.00    -0.363 OA
HETATM   13  C   UNK N   1      38.747  13.860   8.958  0.00  0.00     0.204 C 
ENDBRANCH   1  12
BRANCH   5  14
HETATM   14  O   UNK N   1      34.472  13.208  12.991  0.00  0.00    -0.390 OA
HETATM   15  H   UNK N   1      33.541  13.006  13.172  0.00  0.00     0.210 HD
ENDBRANCH   5  14
BRANCH   6  16
HETATM   16  O   UNK N   1      36.825  12.002  11.930  0.00  0.00    -0.388 OA
HETATM   17  H   UNK N   1      37.673  11.600  11.683  0.00  0.00     0.210 HD
ENDBRANCH   6  16
TORSDOF 6
ENDMDL
MODEL 8
REMARK VINA RESULT:      -4.6      8.493     10.411
REMARK  6 active torsions:
REMARK  status: ('A' for Active; 'I' for Inactive)
REMARK    1  A    between atoms: C_3  and  O_2 
REMARK    2  A    between atoms: C_5  and  C_6 
REMARK    3  A    between atoms: C_6  and  O_7 
REMARK    4  A    between atoms: C_8  and  O_9 
REMARK    5  A    between atoms: C_10  and  O_11 
REMARK    6  A    between atoms: C_12  and  O_13 
ROOT
HETATM    1  C   UNK N   1      30.665  16.808   8.213  0.00  0.00     0.290 C 
HETATM    2  O   UNK N   1      30.649  17.370   6.922  0.00  0.00    -0.349 OA
HETATM    3  C   UNK N   1      29.383  17.108   6.355  0.00  0.00     0.179 C 
HETATM    4  C   UNK N   1      28.317  17.934   7.091  0.00  0.00     0.180 C 
HETATM    5  C   UNK N   1      28.316  17.519   8.561  0.00  0.00     0.183 C 
HETATM    6  C   UNK N   1      29.727  17.600   9.133  0.00  0.00     0.204 C 
ENDROOT
BRANCH   3   7
HETATM    7  C   UNK N   1      29.405  17.473   4.877  0.00  0.00     0.198 C 
BRANCH   7   8
HETATM    8  O   UNK N   1      28.956  18.782   4.696  0.00  0.00    -0.398 OA
HETATM    9  H   UNK N   1      28.797  19.403   5.423  0.00  0.00     0.209 HD
ENDBRANCH   7   8
ENDBRANCH   3   7
BRANCH   4  10
HETATM   10  O   UNK N   1      27.054  17.702   6.542  0.00  0.00    -0.390 OA
HETATM   11  H   UNK N   1      26.254  17.405   7.005  0.00  0.00     0.210 HD
ENDBRANCH   4  10
BRANCH   1  12
HETATM   12  O   UNK N   1      31.970  16.853   8.719  0.00  0.00    -0.363 OA
HETATM   13  C   UNK N   1      32.541  17.996   8.159  0.00  0.00     0.204 C 
ENDBRANCH   1  12
BRANCH   5  14
HETATM   14  O   UNK N   1      27.455  18.336   9.296  0.00  0.00    -0.390 OA
HETATM   15  H   UNK N   1      27.139  18.122  10.189  0.00  0.00     0.210 HD
ENDBRANCH   5  14
BRANCH   6  16
HETATM   16  O   UNK N   1      29.740  17.059  10.420  0.00  0.00    -0.388 OA
HETATM   17  H   UNK N   1      30.544  16.802  10.900  0.00  0.00     0.210 HD
ENDBRANCH   6  16
TORSDOF 6
ENDMDL
MODEL 9
REMARK VINA RESULT:      -4.6      8.501     10.467
REMARK  6 active torsions:
REMARK  status: ('A' for Active; 'I' for Inactive)
REMARK    1  A    between atoms: C_3  and  O_2 
REMARK    2  A    between atoms: C_5  and  C_6 
REMARK    3  A    between atoms: C_6  and  O_7 
REMARK    4  A    between atoms: C_8  and  O_9 
REMARK    5  A    between atoms: C_10  and  O_11 
REMARK    6  A    between atoms: C_12  and  O_13 
ROOT
HETATM    1  C   UNK N   1      30.399  16.661   7.286  0.00  0.00     0.290 C 
HETATM    2  O   UNK N   1      29.811  17.589   6.404  0.00  0.00    -0.349 OA
HETATM    3  C   UNK N   1      28.534  17.914   6.912  0.00  0.00     0.179 C 
HETATM    4  C   UNK N   1      28.695  18.736   8.200  0.00  0.00     0.180 C 
HETATM    5  C   UNK N   1      29.450  17.887   9.221  0.00  0.00     0.183 C 
HETATM    6  C   UNK N   1      30.742  17.354   8.611  0.00  0.00     0.204 C 
ENDROOT
BRANCH   3   7
HETATM    7  C   UNK N   1      27.765  18.715   5.869  0.00  0.00     0.198 C 
BRANCH   7   8
HETATM    8  O   UNK N   1      26.400  18.446   5.963  0.00  0.00    -0.398 OA
HETATM    9  H   UNK N   1      25.707  19.086   5.738  0.00  0.00     0.209 HD
ENDBRANCH   7   8
ENDBRANCH   3   7
BRANCH   4  10
HETATM   10  O   UNK N   1      27.444  19.082   8.718  0.00  0.00    -0.390 OA
HETATM   11  H   UNK N   1      26.831  18.513   9.210  0.00  0.00     0.210 HD
ENDBRANCH   4  10
BRANCH   1  12
HETATM   12  O   UNK N   1      31.565  16.149   6.706  0.00  0.00    -0.363 OA
HETATM   13  C   UNK N   1      32.104  17.206   5.971  0.00  0.00     0.204 C 
ENDBRANCH   1  12
BRANCH   5  14
HETATM   14  O   UNK N   1      29.735  18.639  10.363  0.00  0.00    -0.390 OA
HETATM   15  H   UNK N   1      29.210  18.601  11.179  0.00  0.00     0.210 HD
ENDBRANCH   5  14
BRANCH   6  16
HETATM   16  O   UNK N   1      31.334  16.448   9.493  0.00  0.00    -0.388 OA
HETATM   17  H   UNK N   1      31.218  15.485   9.451  0.00  0.00     0.210 HD
ENDBRANCH   6  16
TORSDOF 6
ENDMDL
