REMARK  18 active torsions:
REMARK  status: ('A' for Active; 'I' for Inactive)
REMARK    1  A    between atoms: C_2  and  C_3 
REMARK    2  A    between atoms: C_3  and  C_4 
REMARK    3  A    between atoms: C_4  and  C_5 
REMARK    4  A    between atoms: C_5  and  O_7 
REMARK    5  A    between atoms: O_7  and  C_8 
REMARK    6  A    between atoms: C_8  and  C_9 
REMARK    7  A    between atoms: C_9  and  C_10 
REMARK    8  A    between atoms: C_9  and  O_22 
REMARK    9  A    between atoms: C_10  and  O_11 
REMARK   10  A    between atoms: P_12  and  O_11 
REMARK   11  A    between atoms: P_12  and  O_15 
REMARK   12  A    between atoms: O_15  and  C_16 
REMARK   13  A    between atoms: C_16  and  C_17 
REMARK   14  A    between atoms: C_17  and  N_18 
REMARK   15  A    between atoms: O_22  and  C_23 
REMARK   16  A    between atoms: C_23  and  C_25 
REMARK   17  A    between atoms: C_25  and  C_26 
REMARK   18  A    between atoms: C_26  and  C_27 
ROOT
HETATM    1  C   UNK N   1      10.321  -3.904  -0.276  0.00  0.00     0.180 C 
ENDROOT
BRANCH   1   2
HETATM    2  C   UNK N   1       9.045  -3.653   0.511  0.00  0.00     0.213 C 
BRANCH   2   3
HETATM    3  O   UNK N   1       8.298  -4.807   0.558  0.00  0.00    -0.319 OA
BRANCH   3   4
HETATM    4  C   UNK N   1       7.025  -4.867   0.096  0.00  0.00     0.258 C 
HETATM    5  O   UNK N   1       6.426  -5.928   0.130  0.00  0.00    -0.265 OA
BRANCH   4   6
HETATM    6  C   UNK N   1       6.342  -3.649  -0.461  0.00  0.00     0.111 C 
BRANCH   6   7
HETATM    7  C   UNK N   1       5.201  -3.215   0.446  0.00  0.00     0.009 C 
BRANCH   7   8
HETATM    8  C   UNK N   1       3.857  -3.465  -0.214  0.00  0.00    -0.004 C 
HETATM    9  C   UNK N   1       3.465  -4.924  -0.090  0.00  0.00     0.005 C 
ENDBRANCH   7   8
ENDBRANCH   6   7
ENDBRANCH   4   6
ENDBRANCH   3   4
ENDBRANCH   2   3
ENDBRANCH   1   2
BRANCH   1  10
HETATM   10  C   UNK N   1      11.317  -4.724   0.538  0.00  0.00     0.212 C 
BRANCH  10  11
HETATM   11  O   UNK N   1      12.046  -5.559  -0.310  0.00  0.00    -0.321 OA
BRANCH  11  12
HETATM   12  P   UNK N   1      13.682  -4.980  -0.250  0.00  0.00     0.279 P 
HETATM   13  S   UNK N   1      13.707  -6.929  -1.174  0.00  0.00    -0.022 SA
HETATM   14  S   UNK N   1      14.252  -4.613  -1.883  0.00  0.00    -0.022 SA
BRANCH  12  15
HETATM   15  O   UNK N   1      14.826  -5.982   0.593  0.00  0.00    -0.322 OA
BRANCH  15  16
HETATM   16  C   UNK N   1      15.610  -5.094   1.329  0.00  0.00     0.205 C 
BRANCH  16  17
HETATM   17  C   UNK N   1      17.094  -5.256   0.974  0.00  0.00     0.262 C 
BRANCH  17  18
HETATM   18  N   UNK N   1      17.632  -4.271   0.023  0.00  0.00    -0.077 N 
HETATM   19  C   UNK N   1      18.992  -3.971   0.428  0.00  0.00     0.271 C 
HETATM   20  C   UNK N   1      17.679  -4.842  -1.312  0.00  0.00     0.271 C 
HETATM   21  C   UNK N   1      16.897  -3.012  -0.020  0.00  0.00     0.271 C 
ENDBRANCH  17  18
ENDBRANCH  16  17
ENDBRANCH  15  16
ENDBRANCH  12  15
ENDBRANCH  11  12
ENDBRANCH  10  11
ENDBRANCH   1  10
BRANCH   1  22
HETATM   22  O   UNK N   1      10.866  -2.718  -0.740  0.00  0.00    -0.312 OA
BRANCH  22  23
HETATM   23  C   UNK N   1      11.310  -1.704   0.050  0.00  0.00     0.259 C 
HETATM   24  O   UNK N   1      11.345  -1.824   1.267  0.00  0.00    -0.265 OA
BRANCH  23  25
HETATM   25  C   UNK N   1      11.714  -0.411  -0.576  0.00  0.00     0.111 C 
BRANCH  25  26
HETATM   26  C   UNK N   1      13.171  -0.113  -0.286  0.00  0.00     0.009 C 
BRANCH  26  27
HETATM   27  C   UNK N   1      13.420   1.370  -0.455  0.00  0.00    -0.004 C 
HETATM   28  C   UNK N   1      14.880   1.669  -0.187  0.00  0.00     0.005 C 
ENDBRANCH  26  27
ENDBRANCH  25  26
ENDBRANCH  23  25
ENDBRANCH  22  23
ENDBRANCH   1  22
TORSDOF 18
