MODEL 1
REMARK VINA RESULT:      -4.6      0.000      0.000
REMARK  5 active torsions:
REMARK  status: ('A' for Active; 'I' for Inactive)
REMARK    1  A    between atoms: O_1  and  C_2 
REMARK    2  A    between atoms: C_2  and  C_4 
REMARK    3  A    between atoms: C_4  and  C_6 
REMARK    4  A    between atoms: C_6  and  S_7 
REMARK    5  A    between atoms: S_7  and  O_8 
ROOT
HETATM    1  C   UNK N   1      20.043  17.667   2.174  0.00  0.00     0.237 C 
HETATM    2  O   UNK N   1      20.069  16.836   3.070  0.00  0.00    -0.285 OA
ENDROOT
BRANCH   1   3
HETATM    3  C   UNK N   1      20.299  17.241   0.785  0.00  0.00     0.214 C 
HETATM    4  O   UNK N   1      20.465  16.060   0.520  0.00  0.00    -0.644 OA
BRANCH   3   5
HETATM    5  O   UNK N   1      20.330  18.154  -0.205  0.00  0.00    -0.771 OA
HETATM    6  H   UNK N   1      20.122  19.054  -0.047  0.00  0.00     0.167 HD
ENDBRANCH   3   5
ENDBRANCH   1   3
BRANCH   1   7
HETATM    7  C   UNK N   1      19.807  19.115   2.511  0.00  0.00     0.245 C 
BRANCH   7   8
HETATM    8  S   UNK N   1      21.367  20.034   2.766  0.00  0.00     0.101 S 
HETATM    9  O   UNK N   1      20.411  20.526   3.862  0.00  0.00    -0.601 OA
HETATM   10  O   UNK N   1      20.646  20.587   1.527  0.00  0.00    -0.601 OA
BRANCH   8  11
HETATM   11  O   UNK N   1      21.729  21.711   2.767  0.00  0.00    -0.295 OA
HETATM   12  H   UNK N   1      21.718  22.221   3.592  0.00  0.00     0.232 HD
ENDBRANCH   8  11
ENDBRANCH   7   8
ENDBRANCH   1   7
TORSDOF 5
ENDMDL
MODEL 2
REMARK VINA RESULT:      -4.5      2.254      3.817
REMARK  5 active torsions:
REMARK  status: ('A' for Active; 'I' for Inactive)
REMARK    1  A    between atoms: O_1  and  C_2 
REMARK    2  A    between atoms: C_2  and  C_4 
REMARK    3  A    between atoms: C_4  and  C_6 
REMARK    4  A    between atoms: C_6  and  S_7 
REMARK    5  A    between atoms: S_7  and  O_8 
ROOT
HETATM    1  C   UNK N   1      21.277  20.808   2.337  0.00  0.00     0.237 C 
HETATM    2  O   UNK N   1      22.363  21.135   2.794  0.00  0.00    -0.285 OA
ENDROOT
BRANCH   1   3
HETATM    3  C   UNK N   1      20.898  21.252   0.982  0.00  0.00     0.214 C 
HETATM    4  O   UNK N   1      21.086  20.526   0.018  0.00  0.00    -0.644 OA
BRANCH   3   5
HETATM    5  O   UNK N   1      20.322  22.457   0.805  0.00  0.00    -0.771 OA
HETATM    6  H   UNK N   1      20.279  23.085   1.498  0.00  0.00     0.167 HD
ENDBRANCH   3   5
ENDBRANCH   1   3
BRANCH   1   7
HETATM    7  C   UNK N   1      20.325  20.009   3.187  0.00  0.00     0.245 C 
BRANCH   7   8
HETATM    8  S   UNK N   1      20.141  18.289   2.598  0.00  0.00     0.101 S 
HETATM    9  O   UNK N   1      18.714  18.840   2.723  0.00  0.00    -0.601 OA
HETATM   10  O   UNK N   1      20.545  18.280   4.082  0.00  0.00    -0.601 OA
BRANCH   8  11
HETATM   11  O   UNK N   1      19.336  16.925   3.259  0.00  0.00    -0.295 OA
HETATM   12  H   UNK N   1      18.371  16.922   3.365  0.00  0.00     0.232 HD
ENDBRANCH   8  11
ENDBRANCH   7   8
ENDBRANCH   1   7
TORSDOF 5
ENDMDL
MODEL 3
REMARK VINA RESULT:      -4.3     15.940     16.594
REMARK  5 active torsions:
REMARK  status: ('A' for Active; 'I' for Inactive)
REMARK    1  A    between atoms: O_1  and  C_2 
REMARK    2  A    between atoms: C_2  and  C_4 
REMARK    3  A    between atoms: C_4  and  C_6 
REMARK    4  A    between atoms: C_6  and  S_7 
REMARK    5  A    between atoms: S_7  and  O_8 
ROOT
HETATM    1  C   UNK N   1      33.882  17.156   8.792  0.00  0.00     0.237 C 
HETATM    2  O   UNK N   1      32.672  17.224   8.955  0.00  0.00    -0.285 OA
ENDROOT
BRANCH   1   3
HETATM    3  C   UNK N   1      34.559  18.173   7.965  0.00  0.00     0.214 C 
HETATM    4  O   UNK N   1      34.468  18.142   6.747  0.00  0.00    -0.644 OA
BRANCH   3   5
HETATM    5  O   UNK N   1      35.266  19.157   8.553  0.00  0.00    -0.771 OA
HETATM    6  H   UNK N   1      36.145  19.351   8.293  0.00  0.00     0.167 HD
ENDBRANCH   3   5
ENDBRANCH   1   3
BRANCH   1   7
HETATM    7  C   UNK N   1      34.647  16.004   9.389  0.00  0.00     0.245 C 
BRANCH   7   8
HETATM    8  S   UNK N   1      35.457  16.449  10.965  0.00  0.00     0.101 S 
HETATM    9  O   UNK N   1      36.534  15.741  10.130  0.00  0.00    -0.601 OA
HETATM   10  O   UNK N   1      34.497  15.272  11.199  0.00  0.00    -0.601 OA
BRANCH   8  11
HETATM   11  O   UNK N   1      36.220  15.501  12.176  0.00  0.00    -0.295 OA
HETATM   12  H   UNK N   1      36.797  15.913  12.839  0.00  0.00     0.232 HD
ENDBRANCH   8  11
ENDBRANCH   7   8
ENDBRANCH   1   7
TORSDOF 5
ENDMDL
MODEL 4
REMARK VINA RESULT:      -4.3      9.400     10.923
REMARK  5 active torsions:
REMARK  status: ('A' for Active; 'I' for Inactive)
REMARK    1  A    between atoms: O_1  and  C_2 
REMARK    2  A    between atoms: C_2  and  C_4 
REMARK    3  A    between atoms: C_4  and  C_6 
REMARK    4  A    between atoms: C_6  and  S_7 
REMARK    5  A    between atoms: S_7  and  O_8 
ROOT
HETATM    1  C   UNK N   1      23.204  12.421  10.161  0.00  0.00     0.237 C 
HETATM    2  O   UNK N   1      24.153  12.792   9.486  0.00  0.00    -0.285 OA
ENDROOT
BRANCH   1   3
HETATM    3  C   UNK N   1      23.433  11.964  11.545  0.00  0.00     0.214 C 
HETATM    4  O   UNK N   1      24.562  11.947  12.012  0.00  0.00    -0.644 OA
BRANCH   3   5
HETATM    5  O   UNK N   1      22.392  11.583  12.310  0.00  0.00    -0.771 OA
HETATM    6  H   UNK N   1      21.634  11.178  11.937  0.00  0.00     0.167 HD
ENDBRANCH   3   5
ENDBRANCH   1   3
BRANCH   1   7
HETATM    7  C   UNK N   1      21.829  12.381   9.548  0.00  0.00     0.245 C 
BRANCH   7   8
HETATM    8  S   UNK N   1      20.910  13.941   9.798  0.00  0.00     0.101 S 
HETATM    9  O   UNK N   1      20.184  12.890  10.650  0.00  0.00    -0.601 OA
HETATM   10  O   UNK N   1      20.607  13.390   8.396  0.00  0.00    -0.601 OA
BRANCH   8  11
HETATM   11  O   UNK N   1      19.275  14.375   9.505  0.00  0.00    -0.295 OA
HETATM   12  H   UNK N   1      19.056  15.133   8.941  0.00  0.00     0.232 HD
ENDBRANCH   8  11
ENDBRANCH   7   8
ENDBRANCH   1   7
TORSDOF 5
ENDMDL
MODEL 5
REMARK VINA RESULT:      -4.3      1.672      4.067
REMARK  5 active torsions:
REMARK  status: ('A' for Active; 'I' for Inactive)
REMARK    1  A    between atoms: O_1  and  C_2 
REMARK    2  A    between atoms: C_2  and  C_4 
REMARK    3  A    between atoms: C_4  and  C_6 
REMARK    4  A    between atoms: C_6  and  S_7 
REMARK    5  A    between atoms: S_7  and  O_8 
ROOT
HETATM    1  C   UNK N   1      20.940  20.129   1.286  0.00  0.00     0.237 C 
HETATM    2  O   UNK N   1      21.150  20.654   0.202  0.00  0.00    -0.285 OA
ENDROOT
BRANCH   1   3
HETATM    3  C   UNK N   1      21.386  20.808   2.518  0.00  0.00     0.214 C 
HETATM    4  O   UNK N   1      22.576  20.956   2.747  0.00  0.00    -0.644 OA
BRANCH   3   5
HETATM    5  O   UNK N   1      20.477  21.288   3.389  0.00  0.00    -0.771 OA
HETATM    6  H   UNK N   1      20.172  20.774   4.111  0.00  0.00     0.167 HD
ENDBRANCH   3   5
ENDBRANCH   1   3
BRANCH   1   7
HETATM    7  C   UNK N   1      20.284  18.774   1.339  0.00  0.00     0.245 C 
BRANCH   7   8
HETATM    8  S   UNK N   1      20.204  18.105   3.038  0.00  0.00     0.101 S 
HETATM    9  O   UNK N   1      20.201  16.882   2.109  0.00  0.00    -0.601 OA
HETATM   10  O   UNK N   1      18.843  18.715   2.666  0.00  0.00    -0.601 OA
BRANCH   8  11
HETATM   11  O   UNK N   1      19.051  17.112   3.832  0.00  0.00    -0.295 OA
HETATM   12  H   UNK N   1      18.835  17.252   4.768  0.00  0.00     0.232 HD
ENDBRANCH   8  11
ENDBRANCH   7   8
ENDBRANCH   1   7
TORSDOF 5
ENDMDL
MODEL 6
REMARK VINA RESULT:      -4.2      2.466      3.984
REMARK  5 active torsions:
REMARK  status: ('A' for Active; 'I' for Inactive)
REMARK    1  A    between atoms: O_1  and  C_2 
REMARK    2  A    between atoms: C_2  and  C_4 
REMARK    3  A    between atoms: C_4  and  C_6 
REMARK    4  A    between atoms: C_6  and  S_7 
REMARK    5  A    between atoms: S_7  and  O_8 
ROOT
HETATM    1  C   UNK N   1      22.813  19.413   3.516  0.00  0.00     0.237 C 
HETATM    2  O   UNK N   1      23.708  18.616   3.758  0.00  0.00    -0.285 OA
ENDROOT
BRANCH   1   3
HETATM    3  C   UNK N   1      23.135  20.678   2.829  0.00  0.00     0.214 C 
HETATM    4  O   UNK N   1      24.177  20.792   2.200  0.00  0.00    -0.644 OA
BRANCH   3   5
HETATM    5  O   UNK N   1      22.270  21.708   2.873  0.00  0.00    -0.771 OA
HETATM    6  H   UNK N   1      21.351  21.571   3.000  0.00  0.00     0.167 HD
ENDBRANCH   3   5
ENDBRANCH   1   3
BRANCH   1   7
HETATM    7  C   UNK N   1      21.410  19.114   3.975  0.00  0.00     0.245 C 
BRANCH   7   8
HETATM    8  S   UNK N   1      20.252  18.897   2.578  0.00  0.00     0.101 S 
HETATM    9  O   UNK N   1      19.738  20.116   3.359  0.00  0.00    -0.601 OA
HETATM   10  O   UNK N   1      20.002  17.798   3.622  0.00  0.00    -0.601 OA
BRANCH   8  11
HETATM   11  O   UNK N   1      18.559  18.617   2.517  0.00  0.00    -0.295 OA
HETATM   12  H   UNK N   1      18.111  18.469   1.670  0.00  0.00     0.232 HD
ENDBRANCH   8  11
ENDBRANCH   7   8
ENDBRANCH   1   7
TORSDOF 5
ENDMDL
MODEL 7
REMARK VINA RESULT:      -4.1      1.685      3.268
REMARK  5 active torsions:
REMARK  status: ('A' for Active; 'I' for Inactive)
REMARK    1  A    between atoms: O_1  and  C_2 
REMARK    2  A    between atoms: C_2  and  C_4 
REMARK    3  A    between atoms: C_4  and  C_6 
REMARK    4  A    between atoms: C_6  and  S_7 
REMARK    5  A    between atoms: S_7  and  O_8 
ROOT
HETATM    1  C   UNK N   1      20.505  19.222   1.540  0.00  0.00     0.237 C 
HETATM    2  O   UNK N   1      20.551  18.316   0.720  0.00  0.00    -0.285 OA
ENDROOT
BRANCH   1   3
HETATM    3  C   UNK N   1      20.941  20.576   1.148  0.00  0.00     0.214 C 
HETATM    4  O   UNK N   1      21.161  20.840  -0.025  0.00  0.00    -0.644 OA
BRANCH   3   5
HETATM    5  O   UNK N   1      21.078  21.536   2.082  0.00  0.00    -0.771 OA
HETATM    6  H   UNK N   1      21.714  21.466   2.767  0.00  0.00     0.167 HD
ENDBRANCH   3   5
ENDBRANCH   1   3
BRANCH   1   7
HETATM    7  C   UNK N   1      20.059  18.927   2.948  0.00  0.00     0.245 C 
BRANCH   7   8
HETATM    8  S   UNK N   1      21.455  18.493   4.044  0.00  0.00     0.101 S 
HETATM    9  O   UNK N   1      20.338  17.494   4.379  0.00  0.00    -0.601 OA
HETATM   10  O   UNK N   1      20.799  19.791   4.543  0.00  0.00    -0.601 OA
BRANCH   8  11
HETATM   11  O   UNK N   1      21.599  18.423   5.753  0.00  0.00    -0.295 OA
HETATM   12  H   UNK N   1      21.330  19.174   6.305  0.00  0.00     0.232 HD
ENDBRANCH   8  11
ENDBRANCH   7   8
ENDBRANCH   1   7
TORSDOF 5
ENDMDL
MODEL 8
REMARK VINA RESULT:      -4.1     15.578     16.221
REMARK  5 active torsions:
REMARK  status: ('A' for Active; 'I' for Inactive)
REMARK    1  A    between atoms: O_1  and  C_2 
REMARK    2  A    between atoms: C_2  and  C_4 
REMARK    3  A    between atoms: C_4  and  C_6 
REMARK    4  A    between atoms: C_6  and  S_7 
REMARK    5  A    between atoms: S_7  and  O_8 
ROOT
HETATM    1  C   UNK N   1      34.848  16.533  10.097  0.00  0.00     0.237 C 
HETATM    2  O   UNK N   1      35.582  17.499  10.243  0.00  0.00    -0.285 OA
ENDROOT
BRANCH   1   3
HETATM    3  C   UNK N   1      34.777  15.510  11.158  0.00  0.00     0.214 C 
HETATM    4  O   UNK N   1      35.745  15.288  11.869  0.00  0.00    -0.644 OA
BRANCH   3   5
HETATM    5  O   UNK N   1      33.632  14.830  11.362  0.00  0.00    -0.771 OA
HETATM    6  H   UNK N   1      32.860  15.010  10.863  0.00  0.00     0.167 HD
ENDBRANCH   3   5
ENDBRANCH   1   3
BRANCH   1   7
HETATM    7  C   UNK N   1      34.075  16.375   8.814  0.00  0.00     0.245 C 
BRANCH   7   8
HETATM    8  S   UNK N   1      34.309  17.791   7.682  0.00  0.00     0.101 S 
HETATM    9  O   UNK N   1      32.815  17.443   7.609  0.00  0.00    -0.601 OA
HETATM   10  O   UNK N   1      34.900  16.524   7.043  0.00  0.00    -0.601 OA
BRANCH   8  11
HETATM   11  O   UNK N   1      34.025  17.980   6.000  0.00  0.00    -0.295 OA
HETATM   12  H   UNK N   1      33.703  17.238   5.464  0.00  0.00     0.232 HD
ENDBRANCH   8  11
ENDBRANCH   7   8
ENDBRANCH   1   7
TORSDOF 5
ENDMDL
MODEL 9
REMARK VINA RESULT:      -4.1     14.382     14.936
REMARK  5 active torsions:
REMARK  status: ('A' for Active; 'I' for Inactive)
REMARK    1  A    between atoms: O_1  and  C_2 
REMARK    2  A    between atoms: C_2  and  C_4 
REMARK    3  A    between atoms: C_4  and  C_6 
REMARK    4  A    between atoms: C_6  and  S_7 
REMARK    5  A    between atoms: S_7  and  O_8 
ROOT
HETATM    1  C   UNK N   1      32.869  15.597   8.024  0.00  0.00     0.237 C 
HETATM    2  O   UNK N   1      32.016  15.846   7.185  0.00  0.00    -0.285 OA
ENDROOT
BRANCH   1   3
HETATM    3  C   UNK N   1      32.572  14.619   9.089  0.00  0.00     0.214 C 
HETATM    4  O   UNK N   1      32.334  13.454   8.811  0.00  0.00    -0.644 OA
BRANCH   3   5
HETATM    5  O   UNK N   1      32.583  15.005  10.379  0.00  0.00    -0.771 OA
HETATM    6  H   UNK N   1      32.250  14.452  11.058  0.00  0.00     0.167 HD
ENDBRANCH   3   5
ENDBRANCH   1   3
BRANCH   1   7
HETATM    7  C   UNK N   1      34.182  16.333   7.990  0.00  0.00     0.245 C 
BRANCH   7   8
HETATM    8  S   UNK N   1      33.987  18.120   8.321  0.00  0.00     0.101 S 
HETATM    9  O   UNK N   1      34.687  18.023   6.957  0.00  0.00    -0.601 OA
HETATM   10  O   UNK N   1      35.097  17.552   9.220  0.00  0.00    -0.601 OA
BRANCH   8  11
HETATM   11  O   UNK N   1      35.127  19.395   8.462  0.00  0.00    -0.295 OA
HETATM   12  H   UNK N   1      34.951  20.157   9.036  0.00  0.00     0.232 HD
ENDBRANCH   8  11
ENDBRANCH   7   8
ENDBRANCH   1   7
TORSDOF 5
ENDMDL
