REMARK  9 active torsions:
REMARK  status: ('A' for Active; 'I' for Inactive)
REMARK    1  A    between atoms: C_16  and  C_17 
REMARK    2  A    between atoms: C_16  and  C_26 
REMARK    3  A    between atoms: C_19  and  C_17 
REMARK    4  A    between atoms: C_20  and  C_19 
REMARK    5  A    between atoms: C_21  and  O_22 
REMARK    6  A    between atoms: C_23  and  O_24 
REMARK       I    between atoms: C_26  and  N_28 
REMARK    7  A    between atoms: N_28  and  C_29 
REMARK    8  A    between atoms: C_29  and  C_31 
REMARK    9  A    between atoms: C_31  and  O_30 
ROOT
HETATM    1  C   UNK N   1      -3.394  -0.212  -0.195  0.00  0.00     0.012 C 
HETATM    2  C   UNK N   1      -4.007  -0.585   1.154  0.00  0.00     0.032 C 
HETATM    3  C   UNK N   1      -2.552  -2.617   1.268  0.00  0.00     0.037 C 
HETATM    4  C   UNK N   1      -0.447  -2.746  -0.104  0.00  0.00     0.037 C 
HETATM    5  C   UNK N   1      -1.948  -0.711  -0.331  0.00  0.00    -0.036 C 
HETATM    6  C   UNK N   1      -1.004   1.557   0.550  0.00  0.00     0.007 C 
HETATM    7  C   UNK N   1      -0.332   1.991  -0.748  0.00  0.00     0.010 C 
HETATM    8  C   UNK N   1       2.710  -0.234  -0.366  0.00  0.00     0.006 C 
HETATM    9  C   UNK N   1       3.142   1.013   0.391  0.00  0.00     0.006 C 
HETATM   10  C   UNK N   1      -1.553  -0.484  -1.787  0.00  0.00     0.016 C 
HETATM   11  C   UNK N   1      -1.009   0.034   0.675  0.00  0.00     0.001 C 
HETATM   12  C   UNK N   1       0.440  -0.485   0.687  0.00  0.00     0.024 C 
HETATM   13  C   UNK N   1       1.214  -0.055  -0.586  0.00  0.00     0.001 C 
HETATM   14  C   UNK N   1       1.097   1.450  -0.895  0.00  0.00    -0.036 C 
HETATM   15  C   UNK N   1       1.464   1.644  -2.357  0.00  0.00     0.016 C 
HETATM   16  C   UNK N   1       2.230   2.134  -0.100  0.00  0.00    -0.002 C 
HETATM   17  C   UNK N   1      -3.986  -2.098   1.349  0.00  0.00     0.118 C 
HETATM   18  C   UNK N   1       0.416  -2.009   0.925  0.00  0.00     0.123 C 
HETATM   19  C   UNK N   1      -1.893  -2.234  -0.064  0.00  0.00    -0.001 C 
ENDROOT
BRANCH  16  20
HETATM   20  C   UNK N   1       2.051   3.268   0.939  0.00  0.00    -0.013 C 
HETATM   21  C   UNK N   1       0.839   4.145   0.693  0.00  0.00     0.010 C 
BRANCH  20  22
HETATM   22  C   UNK N   1       3.233   4.236   0.868  0.00  0.00     0.014 C 
BRANCH  22  23
HETATM   23  C   UNK N   1       4.566   3.658   1.309  0.00  0.00     0.103 C 
BRANCH  23  24
HETATM   24  C   UNK N   1       5.456   3.391   0.135  0.00  0.00     0.218 C 
HETATM   25  N   UNK N   1       5.955   2.147  -0.042  0.00  0.00    -0.351 N 
HETATM   26  H   UNK N   1       5.693   1.436   0.587  0.00  0.00     0.163 HD
HETATM   27  O   UNK N   1       5.758   4.299  -0.627  0.00  0.00    -0.274 OA
BRANCH  25  28
HETATM   28  C   UNK N   1       6.857   1.825  -1.117  0.00  0.00     0.232 C 
BRANCH  28  29
HETATM   29  C   UNK N   1       8.204   1.539  -0.547  0.00  0.00     0.158 C 
HETATM   30  O   UNK N   1       8.692   0.427  -0.659  0.00  0.00    -0.649 OA
BRANCH  29  31
HETATM   31  O   UNK N   1       8.879   2.508   0.101  0.00  0.00    -0.775 OA
HETATM   32  H   UNK N   1       9.697   2.438   0.553  0.00  0.00     0.167 HD
ENDBRANCH  29  31
ENDBRANCH  28  29
ENDBRANCH  25  28
ENDBRANCH  23  24
ENDBRANCH  22  23
ENDBRANCH  20  22
ENDBRANCH  16  20
BRANCH  18  33
HETATM   33  O   UNK N   1       1.699  -2.554   0.962  0.00  0.00    -0.395 OA
HETATM   34  H   UNK N   1       1.817  -3.517   0.988  0.00  0.00     0.210 HD
ENDBRANCH  18  33
BRANCH  17  35
HETATM   35  O   UNK N   1      -4.786  -2.722   0.388  0.00  0.00    -0.396 OA
HETATM   36  H   UNK N   1      -5.439  -2.458  -0.279  0.00  0.00     0.210 HD
ENDBRANCH  17  35
TORSDOF 9
