MODEL 1
REMARK VINA RESULT:      -7.0      0.000      0.000
REMARK  14 active torsions:
REMARK  status: ('A' for Active; 'I' for Inactive)
REMARK    1  A    between atoms: N_1  and  C_2 
REMARK    2  A    between atoms: C_8  and  C_9 
REMARK    3  A    between atoms: N_15  and  C_16 
REMARK    4  A    between atoms: C_16  and  C_17 
REMARK    5  A    between atoms: C_17  and  C_18 
REMARK    6  A    between atoms: C_18  and  C_19 
REMARK    7  A    between atoms: C_19  and  C_20 
REMARK    8  A    between atoms: C_20  and  C_21 
REMARK    9  A    between atoms: C_21  and  C_22 
REMARK   10  A    between atoms: N_24  and  C_25 
REMARK   11  A    between atoms: C_25  and  C_26 
REMARK   12  A    between atoms: C_26  and  N_27 
REMARK   13  A    between atoms: N_27  and  C_28 
REMARK   14  A    between atoms: C_50  and  N_51 
ROOT
HETATM    1  C   UNK N   1      25.989  21.284  -9.459  0.00  0.00     0.002 C 
ENDROOT
BRANCH   1   2
HETATM    2  C   UNK N   1      26.230  21.742  -8.052  0.00  0.00     0.020 C 
BRANCH   2   3
HETATM    3  C   UNK N   1      27.447  22.632  -8.072  0.00  0.00     0.129 C 
BRANCH   3   4
HETATM    4  N   UNK N   1      28.085  22.658  -6.760  0.00  0.00    -0.345 N 
HETATM    5  C   UNK N   1      29.168  21.834  -6.461  0.00  0.00     0.056 A 
HETATM    6  C   UNK N   1      29.794  21.992  -5.177  0.00  0.00     0.005 A 
HETATM    7  C   UNK N   1      29.278  22.928  -4.245  0.00  0.00    -0.011 A 
HETATM    8  C   UNK N   1      30.926  21.248  -4.799  0.00  0.00     0.043 A 
HETATM    9  C   UNK N   1      29.895  23.082  -2.988  0.00  0.00     0.015 A 
HETATM   10  C   UNK N   1      28.157  23.691  -4.570  0.00  0.00     0.002 A 
HETATM   11  C   UNK N   1      31.019  22.334  -2.650  0.00  0.00     0.030 A 
HETATM   12  C   UNK N   1      31.535  21.417  -3.557  0.00  0.00     0.026 A 
HETATM   13  C   UNK N   1      27.574  23.551  -5.843  0.00  0.00     0.048 A 
HETATM   14  C   UNK N   1      27.607  24.602  -3.646  0.00  0.00     0.017 A 
HETATM   15  C   UNK N   1      26.442  24.339  -6.155  0.00  0.00     0.059 A 
HETATM   16  C   UNK N   1      25.898  25.226  -5.228  0.00  0.00     0.027 A 
HETATM   17  C   UNK N   1      26.481  25.359  -3.972  0.00  0.00     0.030 A 
BRANCH   5  18
HETATM   18  C   UNK N   1      29.667  20.765  -7.460  0.00  0.00    -0.008 A 
HETATM   19  C   UNK N   1      29.187  19.439  -7.438  0.00  0.00     0.014 A 
HETATM   20  C   UNK N   1      29.687  18.450  -8.287  0.00  0.00     0.001 A 
HETATM   21  C   UNK N   1      30.694  18.761  -9.195  0.00  0.00     0.000 A 
HETATM   22  C   UNK N   1      31.191  20.061  -9.252  0.00  0.00     0.001 A 
HETATM   23  C   UNK N   1      30.686  21.042  -8.393  0.00  0.00     0.014 A 
ENDBRANCH   5  18
BRANCH  12  24
HETATM   24  N   UNK N   1      32.677  20.663  -3.226  0.00  0.00    -0.399 N 
HETATM   25  H   UNK N   1      33.343  20.444  -3.917  0.00  0.00     0.156 HD
HETATM   26  H   UNK N   1      32.810  20.354  -2.300  0.00  0.00     0.156 HD
ENDBRANCH  12  24
BRANCH  16  27
HETATM   27  N   UNK N   1      24.755  25.979  -5.560  0.00  0.00    -0.399 N 
HETATM   28  H   UNK N   1      24.770  26.589  -6.331  0.00  0.00     0.156 HD
HETATM   29  H   UNK N   1      23.937  25.894  -5.017  0.00  0.00     0.156 HD
ENDBRANCH  16  27
ENDBRANCH   3   4
ENDBRANCH   2   3
ENDBRANCH   1   2
BRANCH   1  30
HETATM   30  C   UNK N   1      27.332  21.196 -10.157  0.00  0.00     0.000 C 
BRANCH  30  31
HETATM   31  C   UNK N   1      27.190  21.388 -11.650  0.00  0.00     0.006 C 
BRANCH  31  32
HETATM   32  C   UNK N   1      26.313  22.588 -11.987  0.00  0.00     0.059 C 
BRANCH  32  33
HETATM   33  C   UNK N   1      27.141  23.802 -11.786  0.00  0.00     0.040 A 
HETATM   34  C   UNK N   1      26.696  24.958 -11.209  0.00  0.00     0.134 A 
HETATM   35  N   UNK N   1      27.790  25.719 -11.017  0.00  0.00    -0.283 N 
HETATM   36  N   UNK N   1      28.850  25.055 -11.450  0.00  0.00    -0.020 NA
HETATM   37  N   UNK N   1      28.481  23.873 -11.919  0.00  0.00    -0.287 N 
ATOM     38  HN  UNK N   1      29.091  23.155 -12.307  1.00  0.00     0.184 HD
BRANCH  35  39
HETATM   39  C   UNK N   1      27.862  26.984 -10.288  0.00  0.00     0.165 C 
BRANCH  39  40
HETATM   40  C   UNK N   1      29.089  27.057  -9.371  0.00  0.00     0.141 C 
BRANCH  40  41
HETATM   41  N   UNK N   1      28.918  26.178  -8.234  0.00  0.00    -0.387 N 
HETATM   42  H   UNK N   1      28.402  25.351  -8.375  0.00  0.00     0.159 HD
BRANCH  41  43
HETATM   43  C   UNK N   1      29.439  26.412  -6.925  0.00  0.00     0.049 A 
HETATM   44  C   UNK N   1      28.850  27.331  -6.022  0.00  0.00    -0.008 A 
HETATM   45  C   UNK N   1      27.643  28.146  -6.421  0.00  0.00     0.043 C 
HETATM   46  C   UNK N   1      29.424  27.495  -4.736  0.00  0.00     0.018 A 
HETATM   47  C   UNK N   1      27.437  29.381  -5.557  0.00  0.00     0.005 C 
HETATM   48  C   UNK N   1      27.469  28.981  -4.097  0.00  0.00     0.006 C 
HETATM   49  C   UNK N   1      28.851  28.455  -3.728  0.00  0.00     0.057 C 
HETATM   50  N   UNK N   1      30.526  26.784  -4.385  0.00  0.00    -0.358 N 
HETATM   51  C   UNK N   1      31.112  25.901  -5.227  0.00  0.00     0.044 A 
ATOM     52  HN  UNK N   1      30.926  26.919  -3.456  1.00  0.00     0.166 HD
HETATM   53  C   UNK N   1      30.584  25.698  -6.520  0.00  0.00     0.018 A 
HETATM   54  C   UNK N   1      32.240  25.187  -4.808  0.00  0.00     0.030 A 
HETATM   55  C   UNK N   1      31.206  24.775  -7.374  0.00  0.00     0.016 A 
HETATM   56  C   UNK N   1      32.334  24.065  -6.948  0.00  0.00     0.001 A 
HETATM   57  C   UNK N   1      32.848  24.268  -5.666  0.00  0.00     0.002 A 
ENDBRANCH  41  43
ENDBRANCH  40  41
ENDBRANCH  39  40
ENDBRANCH  35  39
ENDBRANCH  32  33
ENDBRANCH  31  32
ENDBRANCH  30  31
ENDBRANCH   1  30
TORSDOF 14
ENDMDL
MODEL 2
REMARK VINA RESULT:      -6.6     17.563     22.056
REMARK  14 active torsions:
REMARK  status: ('A' for Active; 'I' for Inactive)
REMARK    1  A    between atoms: N_1  and  C_2 
REMARK    2  A    between atoms: C_8  and  C_9 
REMARK    3  A    between atoms: N_15  and  C_16 
REMARK    4  A    between atoms: C_16  and  C_17 
REMARK    5  A    between atoms: C_17  and  C_18 
REMARK    6  A    between atoms: C_18  and  C_19 
REMARK    7  A    between atoms: C_19  and  C_20 
REMARK    8  A    between atoms: C_20  and  C_21 
REMARK    9  A    between atoms: C_21  and  C_22 
REMARK   10  A    between atoms: N_24  and  C_25 
REMARK   11  A    between atoms: C_25  and  C_26 
REMARK   12  A    between atoms: C_26  and  N_27 
REMARK   13  A    between atoms: N_27  and  C_28 
REMARK   14  A    between atoms: C_50  and  N_51 
ROOT
HETATM    1  C   UNK N   1      36.368  13.916  12.406  0.00  0.00     0.002 C 
ENDROOT
BRANCH   1   2
HETATM    2  C   UNK N   1      36.468  13.519  13.847  0.00  0.00     0.020 C 
BRANCH   2   3
HETATM    3  C   UNK N   1      35.101  13.053  14.281  0.00  0.00     0.129 C 
BRANCH   3   4
HETATM    4  N   UNK N   1      35.208  11.887  15.152  0.00  0.00    -0.345 N 
HETATM    5  C   UNK N   1      35.271  10.595  14.634  0.00  0.00     0.056 A 
HETATM    6  C   UNK N   1      35.470   9.512  15.558  0.00  0.00     0.005 A 
HETATM    7  C   UNK N   1      35.549   9.772  16.950  0.00  0.00    -0.011 A 
HETATM    8  C   UNK N   1      35.601   8.178  15.133  0.00  0.00     0.043 A 
HETATM    9  C   UNK N   1      35.747   8.711  17.853  0.00  0.00     0.015 A 
HETATM   10  C   UNK N   1      35.425  11.078  17.424  0.00  0.00     0.002 A 
HETATM   11  C   UNK N   1      35.880   7.402  17.397  0.00  0.00     0.030 A 
HETATM   12  C   UNK N   1      35.809   7.137  16.035  0.00  0.00     0.026 A 
HETATM   13  C   UNK N   1      35.264  12.132  16.507  0.00  0.00     0.048 A 
HETATM   14  C   UNK N   1      35.466  11.355  18.806  0.00  0.00     0.017 A 
HETATM   15  C   UNK N   1      35.147  13.449  17.007  0.00  0.00     0.059 A 
HETATM   16  C   UNK N   1      35.175  13.709  18.377  0.00  0.00     0.027 A 
HETATM   17  C   UNK N   1      35.335  12.661  19.278  0.00  0.00     0.030 A 
BRANCH   5  18
HETATM   18  C   UNK N   1      35.103  10.324  13.121  0.00  0.00    -0.008 A 
HETATM   19  C   UNK N   1      33.836  10.149  12.528  0.00  0.00     0.014 A 
HETATM   20  C   UNK N   1      33.682   9.830  11.178  0.00  0.00     0.001 A 
HETATM   21  C   UNK N   1      34.803   9.675  10.370  0.00  0.00     0.000 A 
HETATM   22  C   UNK N   1      36.072   9.845  10.916  0.00  0.00     0.001 A 
HETATM   23  C   UNK N   1      36.216  10.159  12.272  0.00  0.00     0.014 A 
ENDBRANCH   5  18
BRANCH  12  24
HETATM   24  N   UNK N   1      35.951   5.818  15.565  0.00  0.00    -0.399 N 
HETATM   25  H   UNK N   1      35.323   5.460  14.897  0.00  0.00     0.156 HD
HETATM   26  H   UNK N   1      36.681   5.251  15.906  0.00  0.00     0.156 HD
ENDBRANCH  12  24
BRANCH  16  27
HETATM   27  N   UNK N   1      35.030  15.029  18.846  0.00  0.00    -0.399 N 
HETATM   28  H   UNK N   1      34.138  15.442  18.893  0.00  0.00     0.156 HD
HETATM   29  H   UNK N   1      35.824  15.540  19.128  0.00  0.00     0.156 HD
ENDBRANCH  16  27
ENDBRANCH   3   4
ENDBRANCH   2   3
ENDBRANCH   1   2
BRANCH   1  30
HETATM   30  C   UNK N   1      34.942  13.668  11.951  0.00  0.00     0.000 C 
BRANCH  30  31
HETATM   31  C   UNK N   1      34.607  14.482  10.722  0.00  0.00     0.006 C 
BRANCH  31  32
HETATM   32  C   UNK N   1      35.254  15.861  10.761  0.00  0.00     0.059 C 
BRANCH  32  33
HETATM   33  C   UNK N   1      34.640  16.662   9.674  0.00  0.00     0.040 A 
HETATM   34  C   UNK N   1      33.463  16.354   9.052  0.00  0.00     0.134 A 
HETATM   35  N   UNK N   1      33.154  17.426   8.298  0.00  0.00    -0.283 N 
HETATM   36  N   UNK N   1      34.093  18.344   8.459  0.00  0.00    -0.020 NA
HETATM   37  N   UNK N   1      35.013  17.904   9.304  0.00  0.00    -0.287 N 
ATOM     38  HN  UNK N   1      35.843  18.406   9.615  1.00  0.00     0.184 HD
BRANCH  35  39
HETATM   39  C   UNK N   1      31.909  17.652   7.565  0.00  0.00     0.165 C 
BRANCH  39  40
HETATM   40  C   UNK N   1      30.670  17.429   8.440  0.00  0.00     0.141 C 
BRANCH  40  41
HETATM   41  N   UNK N   1      29.599  16.854   7.654  0.00  0.00    -0.387 N 
HETATM   42  H   UNK N   1      29.101  16.103   8.050  0.00  0.00     0.159 HD
BRANCH  41  43
HETATM   43  C   UNK N   1      29.204  17.290   6.353  0.00  0.00     0.049 A 
HETATM   44  C   UNK N   1      28.508  18.504   6.133  0.00  0.00    -0.008 A 
HETATM   45  C   UNK N   1      28.113  19.393   7.288  0.00  0.00     0.043 C 
HETATM   46  C   UNK N   1      28.163  18.868   4.807  0.00  0.00     0.018 A 
HETATM   47  C   UNK N   1      26.997  20.368   6.945  0.00  0.00     0.005 C 
HETATM   48  C   UNK N   1      27.356  21.112   5.675  0.00  0.00     0.006 C 
HETATM   49  C   UNK N   1      27.423  20.143   4.501  0.00  0.00     0.057 C 
HETATM   50  N   UNK N   1      28.493  18.058   3.769  0.00  0.00    -0.358 N 
HETATM   51  C   UNK N   1      29.156  16.891   3.949  0.00  0.00     0.044 A 
ATOM     52  HN  UNK N   1      28.233  18.336   2.823  1.00  0.00     0.166 HD
HETATM   53  C   UNK N   1      29.522  16.478   5.247  0.00  0.00     0.018 A 
HETATM   54  C   UNK N   1      29.479  16.100   2.841  0.00  0.00     0.030 A 
HETATM   55  C   UNK N   1      30.212  15.267   5.409  0.00  0.00     0.016 A 
HETATM   56  C   UNK N   1      30.532  14.481   4.296  0.00  0.00     0.001 A 
HETATM   57  C   UNK N   1      30.169  14.898   3.014  0.00  0.00     0.002 A 
ENDBRANCH  41  43
ENDBRANCH  40  41
ENDBRANCH  39  40
ENDBRANCH  35  39
ENDBRANCH  32  33
ENDBRANCH  31  32
ENDBRANCH  30  31
ENDBRANCH   1  30
TORSDOF 14
ENDMDL
MODEL 3
REMARK VINA RESULT:      -6.4     18.264     22.948
REMARK  14 active torsions:
REMARK  status: ('A' for Active; 'I' for Inactive)
REMARK    1  A    between atoms: N_1  and  C_2 
REMARK    2  A    between atoms: C_8  and  C_9 
REMARK    3  A    between atoms: N_15  and  C_16 
REMARK    4  A    between atoms: C_16  and  C_17 
REMARK    5  A    between atoms: C_17  and  C_18 
REMARK    6  A    between atoms: C_18  and  C_19 
REMARK    7  A    between atoms: C_19  and  C_20 
REMARK    8  A    between atoms: C_20  and  C_21 
REMARK    9  A    between atoms: C_21  and  C_22 
REMARK   10  A    between atoms: N_24  and  C_25 
REMARK   11  A    between atoms: C_25  and  C_26 
REMARK   12  A    between atoms: C_26  and  N_27 
REMARK   13  A    between atoms: N_27  and  C_28 
REMARK   14  A    between atoms: C_50  and  N_51 
ROOT
HETATM    1  C   UNK N   1      36.587  14.415  14.302  0.00  0.00     0.002 C 
ENDROOT
BRANCH   1   2
HETATM    2  C   UNK N   1      36.676  13.235  15.222  0.00  0.00     0.020 C 
BRANCH   2   3
HETATM    3  C   UNK N   1      35.279  12.693  15.394  0.00  0.00     0.129 C 
BRANCH   3   4
HETATM    4  N   UNK N   1      35.317  11.337  15.930  0.00  0.00    -0.345 N 
HETATM    5  C   UNK N   1      35.409  10.225  15.095  0.00  0.00     0.056 A 
HETATM    6  C   UNK N   1      35.535   8.933  15.711  0.00  0.00     0.005 A 
HETATM    7  C   UNK N   1      35.516   8.816  17.124  0.00  0.00    -0.011 A 
HETATM    8  C   UNK N   1      35.688   7.755  14.958  0.00  0.00     0.043 A 
HETATM    9  C   UNK N   1      35.643   7.549  17.726  0.00  0.00     0.015 A 
HETATM   10  C   UNK N   1      35.367   9.953  17.917  0.00  0.00     0.002 A 
HETATM   11  C   UNK N   1      35.800   6.404  16.950  0.00  0.00     0.030 A 
HETATM   12  C   UNK N   1      35.824   6.509  15.564  0.00  0.00     0.026 A 
HETATM   13  C   UNK N   1      35.278  11.215  17.303  0.00  0.00     0.048 A 
HETATM   14  C   UNK N   1      35.311   9.855  19.323  0.00  0.00     0.017 A 
HETATM   15  C   UNK N   1      35.134  12.356  18.125  0.00  0.00     0.059 A 
HETATM   16  C   UNK N   1      35.065  12.246  19.513  0.00  0.00     0.027 A 
HETATM   17  C   UNK N   1      35.154  10.994  20.113  0.00  0.00     0.030 A 
BRANCH   5  18
HETATM   18  C   UNK N   1      35.348  10.367  13.556  0.00  0.00    -0.008 A 
HETATM   19  C   UNK N   1      36.508  10.544  12.775  0.00  0.00     0.014 A 
HETATM   20  C   UNK N   1      36.454  10.748  11.395  0.00  0.00     0.001 A 
HETATM   21  C   UNK N   1      35.224  10.781  10.747  0.00  0.00     0.000 A 
HETATM   22  C   UNK N   1      34.055  10.604  11.482  0.00  0.00     0.001 A 
HETATM   23  C   UNK N   1      34.120  10.405  12.865  0.00  0.00     0.014 A 
ENDBRANCH   5  18
BRANCH  12  24
HETATM   24  N   UNK N   1      35.992   5.357  14.773  0.00  0.00    -0.399 N 
HETATM   25  H   UNK N   1      35.212   4.924  14.358  0.00  0.00     0.156 HD
HETATM   26  H   UNK N   1      36.892   4.982  14.635  0.00  0.00     0.156 HD
ENDBRANCH  12  24
BRANCH  16  27
HETATM   27  N   UNK N   1      34.895  13.398  20.304  0.00  0.00    -0.399 N 
HETATM   28  H   UNK N   1      34.917  13.332  21.285  0.00  0.00     0.156 HD
HETATM   29  H   UNK N   1      34.754  14.273  19.873  0.00  0.00     0.156 HD
ENDBRANCH  16  27
ENDBRANCH   3   4
ENDBRANCH   2   3
ENDBRANCH   1   2
BRANCH   1  30
HETATM   30  C   UNK N   1      35.641  14.056  13.173  0.00  0.00     0.000 C 
BRANCH  30  31
HETATM   31  C   UNK N   1      35.907  14.895  11.944  0.00  0.00     0.006 C 
BRANCH  31  32
HETATM   32  C   UNK N   1      35.022  14.484  10.774  0.00  0.00     0.059 C 
BRANCH  32  33
HETATM   33  C   UNK N   1      34.918  15.657   9.872  0.00  0.00     0.040 A 
HETATM   34  C   UNK N   1      34.823  15.585   8.512  0.00  0.00     0.134 A 
HETATM   35  N   UNK N   1      34.530  16.831   8.096  0.00  0.00    -0.283 N 
HETATM   36  N   UNK N   1      34.442  17.622   9.153  0.00  0.00    -0.020 NA
HETATM   37  N   UNK N   1      34.669  16.926  10.256  0.00  0.00    -0.287 N 
ATOM     38  HN  UNK N   1      34.657  17.279  11.212  1.00  0.00     0.184 HD
BRANCH  35  39
HETATM   39  C   UNK N   1      34.173  17.242   6.739  0.00  0.00     0.165 C 
BRANCH  39  40
HETATM   40  C   UNK N   1      33.018  16.412   6.165  0.00  0.00     0.141 C 
BRANCH  40  41
HETATM   41  N   UNK N   1      31.926  17.278   5.772  0.00  0.00    -0.387 N 
HETATM   42  H   UNK N   1      32.158  18.123   5.325  0.00  0.00     0.159 HD
BRANCH  41  43
HETATM   43  C   UNK N   1      30.541  17.003   5.981  0.00  0.00     0.049 A 
HETATM   44  C   UNK N   1      29.737  16.354   5.011  0.00  0.00    -0.008 A 
HETATM   45  C   UNK N   1      30.310  15.947   3.675  0.00  0.00     0.043 C 
HETATM   46  C   UNK N   1      28.371  16.110   5.302  0.00  0.00     0.018 A 
HETATM   47  C   UNK N   1      29.249  15.714   2.610  0.00  0.00     0.005 C 
HETATM   48  C   UNK N   1      28.193  14.773   3.153  0.00  0.00     0.006 C 
HETATM   49  C   UNK N   1      27.460  15.426   4.318  0.00  0.00     0.057 C 
HETATM   50  N   UNK N   1      27.847  16.500   6.492  0.00  0.00    -0.358 N 
HETATM   51  C   UNK N   1      28.590  17.124   7.437  0.00  0.00     0.044 A 
ATOM     52  HN  UNK N   1      26.861  16.317   6.681  1.00  0.00     0.166 HD
HETATM   53  C   UNK N   1      29.953  17.395   7.200  0.00  0.00     0.018 A 
HETATM   54  C   UNK N   1      27.999  17.494   8.650  0.00  0.00     0.030 A 
HETATM   55  C   UNK N   1      30.705  18.039   8.195  0.00  0.00     0.016 A 
HETATM   56  C   UNK N   1      30.107  18.407   9.405  0.00  0.00     0.001 A 
HETATM   57  C   UNK N   1      28.757  18.132   9.634  0.00  0.00     0.002 A 
ENDBRANCH  41  43
ENDBRANCH  40  41
ENDBRANCH  39  40
ENDBRANCH  35  39
ENDBRANCH  32  33
ENDBRANCH  31  32
ENDBRANCH  30  31
ENDBRANCH   1  30
TORSDOF 14
ENDMDL
MODEL 4
REMARK VINA RESULT:      -6.3      1.722      6.421
REMARK  14 active torsions:
REMARK  status: ('A' for Active; 'I' for Inactive)
REMARK    1  A    between atoms: N_1  and  C_2 
REMARK    2  A    between atoms: C_8  and  C_9 
REMARK    3  A    between atoms: N_15  and  C_16 
REMARK    4  A    between atoms: C_16  and  C_17 
REMARK    5  A    between atoms: C_17  and  C_18 
REMARK    6  A    between atoms: C_18  and  C_19 
REMARK    7  A    between atoms: C_19  and  C_20 
REMARK    8  A    between atoms: C_20  and  C_21 
REMARK    9  A    between atoms: C_21  and  C_22 
REMARK   10  A    between atoms: N_24  and  C_25 
REMARK   11  A    between atoms: C_25  and  C_26 
REMARK   12  A    between atoms: C_26  and  N_27 
REMARK   13  A    between atoms: N_27  and  C_28 
REMARK   14  A    between atoms: C_50  and  N_51 
ROOT
HETATM    1  C   UNK N   1      33.908  24.533  -6.062  0.00  0.00     0.002 C 
ENDROOT
BRANCH   1   2
HETATM    2  C   UNK N   1      32.886  25.612  -6.253  0.00  0.00     0.020 C 
BRANCH   2   3
HETATM    3  C   UNK N   1      31.538  25.018  -5.927  0.00  0.00     0.129 C 
BRANCH   3   4
HETATM    4  N   UNK N   1      30.555  25.388  -6.940  0.00  0.00    -0.345 N 
HETATM    5  C   UNK N   1      30.345  24.604  -8.072  0.00  0.00     0.056 A 
HETATM    6  C   UNK N   1      29.292  24.993  -8.970  0.00  0.00     0.005 A 
HETATM    7  C   UNK N   1      28.539  26.167  -8.715  0.00  0.00    -0.011 A 
HETATM    8  C   UNK N   1      28.964  24.239 -10.111  0.00  0.00     0.043 A 
HETATM    9  C   UNK N   1      27.507  26.545  -9.595  0.00  0.00     0.015 A 
HETATM   10  C   UNK N   1      28.825  26.950  -7.597  0.00  0.00     0.002 A 
HETATM   11  C   UNK N   1      27.204  25.771 -10.712  0.00  0.00     0.030 A 
HETATM   12  C   UNK N   1      27.933  24.616 -10.969  0.00  0.00     0.026 A 
HETATM   13  C   UNK N   1      29.835  26.540  -6.708  0.00  0.00     0.048 A 
HETATM   14  C   UNK N   1      28.111  28.139  -7.344  0.00  0.00     0.017 A 
HETATM   15  C   UNK N   1      30.104  27.345  -5.577  0.00  0.00     0.059 A 
HETATM   16  C   UNK N   1      29.402  28.526  -5.344  0.00  0.00     0.027 A 
HETATM   17  C   UNK N   1      28.404  28.925  -6.228  0.00  0.00     0.030 A 
BRANCH   5  18
HETATM   18  C   UNK N   1      31.229  23.371  -8.374  0.00  0.00    -0.008 A 
HETATM   19  C   UNK N   1      30.960  22.104  -7.817  0.00  0.00     0.014 A 
HETATM   20  C   UNK N   1      31.797  21.005  -8.024  0.00  0.00     0.001 A 
HETATM   21  C   UNK N   1      32.940  21.143  -8.804  0.00  0.00     0.000 A 
HETATM   22  C   UNK N   1      33.237  22.376  -9.377  0.00  0.00     0.001 A 
HETATM   23  C   UNK N   1      32.395  23.472  -9.159  0.00  0.00     0.014 A 
ENDBRANCH   5  18
BRANCH  12  24
HETATM   24  N   UNK N   1      27.626  23.824 -12.091  0.00  0.00    -0.399 N 
HETATM   25  H   UNK N   1      26.742  23.890 -12.517  0.00  0.00     0.156 HD
HETATM   26  H   UNK N   1      28.299  23.200 -12.450  0.00  0.00     0.156 HD
ENDBRANCH  12  24
BRANCH  16  27
HETATM   27  N   UNK N   1      29.710  29.320  -4.222  0.00  0.00    -0.399 N 
HETATM   28  H   UNK N   1      30.511  29.891  -4.226  0.00  0.00     0.156 HD
HETATM   29  H   UNK N   1      29.123  29.302  -3.432  0.00  0.00     0.156 HD
ENDBRANCH  16  27
ENDBRANCH   3   4
ENDBRANCH   2   3
ENDBRANCH   1   2
BRANCH   1  30
HETATM   30  C   UNK N   1      33.299  23.466  -5.174  0.00  0.00     0.000 C 
BRANCH  30  31
HETATM   31  C   UNK N   1      33.974  22.128  -5.378  0.00  0.00     0.006 C 
BRANCH  31  32
HETATM   32  C   UNK N   1      33.736  21.188  -4.204  0.00  0.00     0.059 C 
BRANCH  32  33
HETATM   33  C   UNK N   1      32.319  21.349  -3.796  0.00  0.00     0.040 A 
HETATM   34  C   UNK N   1      31.869  22.273  -2.897  0.00  0.00     0.134 A 
HETATM   35  N   UNK N   1      30.526  22.238  -2.972  0.00  0.00    -0.283 N 
HETATM   36  N   UNK N   1      30.175  21.341  -3.879  0.00  0.00    -0.020 NA
HETATM   37  N   UNK N   1      31.255  20.786  -4.405  0.00  0.00    -0.287 N 
ATOM     38  HN  UNK N   1      31.280  20.071  -5.131  1.00  0.00     0.184 HD
BRANCH  35  39
HETATM   39  C   UNK N   1      29.587  23.151  -2.322  0.00  0.00     0.165 C 
BRANCH  39  40
HETATM   40  C   UNK N   1      28.248  23.234  -3.065  0.00  0.00     0.141 C 
BRANCH  40  41
HETATM   41  N   UNK N   1      28.425  23.886  -4.345  0.00  0.00    -0.387 N 
HETATM   42  H   UNK N   1      29.347  23.994  -4.674  0.00  0.00     0.159 HD
BRANCH  41  43
HETATM   43  C   UNK N   1      27.372  24.383  -5.170  0.00  0.00     0.049 A 
HETATM   44  C   UNK N   1      26.677  25.583  -4.881  0.00  0.00    -0.008 A 
HETATM   45  C   UNK N   1      27.000  26.389  -3.646  0.00  0.00     0.043 C 
HETATM   46  C   UNK N   1      25.650  26.011  -5.760  0.00  0.00     0.018 A 
HETATM   47  C   UNK N   1      25.887  27.343  -3.240  0.00  0.00     0.005 C 
HETATM   48  C   UNK N   1      25.477  28.172  -4.440  0.00  0.00     0.006 C 
HETATM   49  C   UNK N   1      24.871  27.276  -5.513  0.00  0.00     0.057 C 
HETATM   50  N   UNK N   1      25.339  25.275  -6.856  0.00  0.00    -0.358 N 
HETATM   51  C   UNK N   1      25.983  24.123  -7.157  0.00  0.00     0.044 A 
ATOM     52  HN  UNK N   1      24.594  25.599  -7.474  1.00  0.00     0.166 HD
HETATM   53  C   UNK N   1      27.012  23.647  -6.317  0.00  0.00     0.018 A 
HETATM   54  C   UNK N   1      25.627  23.409  -8.307  0.00  0.00     0.030 A 
HETATM   55  C   UNK N   1      27.669  22.453  -6.651  0.00  0.00     0.016 A 
HETATM   56  C   UNK N   1      27.308  21.745  -7.802  0.00  0.00     0.001 A 
HETATM   57  C   UNK N   1      26.291  22.223  -8.630  0.00  0.00     0.002 A 
ENDBRANCH  41  43
ENDBRANCH  40  41
ENDBRANCH  39  40
ENDBRANCH  35  39
ENDBRANCH  32  33
ENDBRANCH  31  32
ENDBRANCH  30  31
ENDBRANCH   1  30
TORSDOF 14
ENDMDL
MODEL 5
REMARK VINA RESULT:      -6.3     17.542     22.166
REMARK  14 active torsions:
REMARK  status: ('A' for Active; 'I' for Inactive)
REMARK    1  A    between atoms: N_1  and  C_2 
REMARK    2  A    between atoms: C_8  and  C_9 
REMARK    3  A    between atoms: N_15  and  C_16 
REMARK    4  A    between atoms: C_16  and  C_17 
REMARK    5  A    between atoms: C_17  and  C_18 
REMARK    6  A    between atoms: C_18  and  C_19 
REMARK    7  A    between atoms: C_19  and  C_20 
REMARK    8  A    between atoms: C_20  and  C_21 
REMARK    9  A    between atoms: C_21  and  C_22 
REMARK   10  A    between atoms: N_24  and  C_25 
REMARK   11  A    between atoms: C_25  and  C_26 
REMARK   12  A    between atoms: C_26  and  N_27 
REMARK   13  A    between atoms: N_27  and  C_28 
REMARK   14  A    between atoms: C_50  and  N_51 
ROOT
HETATM    1  C   UNK N   1      36.463  13.814  12.485  0.00  0.00     0.002 C 
ENDROOT
BRANCH   1   2
HETATM    2  C   UNK N   1      36.461  13.587  13.966  0.00  0.00     0.020 C 
BRANCH   2   3
HETATM    3  C   UNK N   1      35.093  13.072  14.339  0.00  0.00     0.129 C 
BRANCH   3   4
HETATM    4  N   UNK N   1      35.204  11.908  15.212  0.00  0.00    -0.345 N 
HETATM    5  C   UNK N   1      35.280  10.615  14.696  0.00  0.00     0.056 A 
HETATM    6  C   UNK N   1      35.481   9.536  15.623  0.00  0.00     0.005 A 
HETATM    7  C   UNK N   1      35.549   9.798  17.015  0.00  0.00    -0.011 A 
HETATM    8  C   UNK N   1      35.626   8.202  15.200  0.00  0.00     0.043 A 
HETATM    9  C   UNK N   1      35.749   8.739  17.921  0.00  0.00     0.015 A 
HETATM   10  C   UNK N   1      35.411  11.103  17.487  0.00  0.00     0.002 A 
HETATM   11  C   UNK N   1      35.895   7.431  17.467  0.00  0.00     0.030 A 
HETATM   12  C   UNK N   1      35.835   7.163  16.104  0.00  0.00     0.026 A 
HETATM   13  C   UNK N   1      35.249  12.155  16.567  0.00  0.00     0.048 A 
HETATM   14  C   UNK N   1      35.441  11.381  18.868  0.00  0.00     0.017 A 
HETATM   15  C   UNK N   1      35.118  13.472  17.065  0.00  0.00     0.059 A 
HETATM   16  C   UNK N   1      35.135  13.733  18.434  0.00  0.00     0.027 A 
HETATM   17  C   UNK N   1      35.296  12.687  19.338  0.00  0.00     0.030 A 
BRANCH   5  18
HETATM   18  C   UNK N   1      35.125  10.342  13.182  0.00  0.00    -0.008 A 
HETATM   19  C   UNK N   1      36.238  10.243  12.322  0.00  0.00     0.014 A 
HETATM   20  C   UNK N   1      36.102  10.072  10.943  0.00  0.00     0.001 A 
HETATM   21  C   UNK N   1      34.835   9.992  10.376  0.00  0.00     0.000 A 
HETATM   22  C   UNK N   1      33.710  10.079  11.192  0.00  0.00     0.001 A 
HETATM   23  C   UNK N   1      33.857  10.256  12.572  0.00  0.00     0.014 A 
ENDBRANCH   5  18
BRANCH  12  24
HETATM   24  N   UNK N   1      35.991   5.845  15.637  0.00  0.00    -0.399 N 
HETATM   25  H   UNK N   1      36.891   5.474  15.493  0.00  0.00     0.156 HD
HETATM   26  H   UNK N   1      35.197   5.292  15.453  0.00  0.00     0.156 HD
ENDBRANCH  12  24
BRANCH  16  27
HETATM   27  N   UNK N   1      34.976  15.052  18.902  0.00  0.00    -0.399 N 
HETATM   28  H   UNK N   1      35.338  15.807  18.385  0.00  0.00     0.156 HD
HETATM   29  H   UNK N   1      34.503  15.219  19.749  0.00  0.00     0.156 HD
ENDBRANCH  16  27
ENDBRANCH   3   4
ENDBRANCH   2   3
ENDBRANCH   1   2
BRANCH   1  30
HETATM   30  C   UNK N   1      35.025  13.986  12.036  0.00  0.00     0.000 C 
BRANCH  30  31
HETATM   31  C   UNK N   1      34.949  14.529  10.627  0.00  0.00     0.006 C 
BRANCH  31  32
HETATM   32  C   UNK N   1      35.377  15.989  10.558  0.00  0.00     0.059 C 
BRANCH  32  33
HETATM   33  C   UNK N   1      34.596  16.622   9.468  0.00  0.00     0.040 A 
HETATM   34  C   UNK N   1      33.543  16.036   8.826  0.00  0.00     0.134 A 
HETATM   35  N   UNK N   1      32.982  17.004   8.076  0.00  0.00    -0.283 N 
HETATM   36  N   UNK N   1      33.657  18.127   8.260  0.00  0.00    -0.020 NA
HETATM   37  N   UNK N   1      34.647  17.923   9.115  0.00  0.00    -0.287 N 
ATOM     38  HN  UNK N   1      35.320  18.614   9.443  1.00  0.00     0.184 HD
BRANCH  35  39
HETATM   39  C   UNK N   1      31.731  16.918   7.326  0.00  0.00     0.165 C 
BRANCH  39  40
HETATM   40  C   UNK N   1      30.554  17.545   8.083  0.00  0.00     0.141 C 
BRANCH  40  41
HETATM   41  N   UNK N   1      29.299  17.129   7.493  0.00  0.00    -0.387 N 
HETATM   42  H   UNK N   1      28.677  16.623   8.065  0.00  0.00     0.159 HD
BRANCH  41  43
HETATM   43  C   UNK N   1      28.891  17.393   6.151  0.00  0.00     0.049 A 
HETATM   44  C   UNK N   1      29.110  16.477   5.092  0.00  0.00    -0.008 A 
HETATM   45  C   UNK N   1      29.830  15.172   5.331  0.00  0.00     0.043 C 
HETATM   46  C   UNK N   1      28.663  16.813   3.789  0.00  0.00     0.018 A 
HETATM   47  C   UNK N   1      30.391  14.552   4.061  0.00  0.00     0.005 C 
HETATM   48  C   UNK N   1      29.300  14.483   3.013  0.00  0.00     0.006 C 
HETATM   49  C   UNK N   1      28.863  15.889   2.619  0.00  0.00     0.057 C 
HETATM   50  N   UNK N   1      28.039  17.998   3.567  0.00  0.00    -0.358 N 
HETATM   51  C   UNK N   1      27.818  18.893   4.558  0.00  0.00     0.044 A 
ATOM     52  HN  UNK N   1      27.727  18.222   2.621  1.00  0.00     0.166 HD
HETATM   53  C   UNK N   1      28.244  18.613   5.873  0.00  0.00     0.018 A 
HETATM   54  C   UNK N   1      27.161  20.095   4.272  0.00  0.00     0.030 A 
HETATM   55  C   UNK N   1      28.000  19.554   6.885  0.00  0.00     0.016 A 
HETATM   56  C   UNK N   1      27.343  20.754   6.592  0.00  0.00     0.001 A 
HETATM   57  C   UNK N   1      26.921  21.023   5.289  0.00  0.00     0.002 A 
ENDBRANCH  41  43
ENDBRANCH  40  41
ENDBRANCH  39  40
ENDBRANCH  35  39
ENDBRANCH  32  33
ENDBRANCH  31  32
ENDBRANCH  30  31
ENDBRANCH   1  30
TORSDOF 14
ENDMDL
MODEL 6
REMARK VINA RESULT:      -6.2      1.752      6.820
REMARK  14 active torsions:
REMARK  status: ('A' for Active; 'I' for Inactive)
REMARK    1  A    between atoms: N_1  and  C_2 
REMARK    2  A    between atoms: C_8  and  C_9 
REMARK    3  A    between atoms: N_15  and  C_16 
REMARK    4  A    between atoms: C_16  and  C_17 
REMARK    5  A    between atoms: C_17  and  C_18 
REMARK    6  A    between atoms: C_18  and  C_19 
REMARK    7  A    between atoms: C_19  and  C_20 
REMARK    8  A    between atoms: C_20  and  C_21 
REMARK    9  A    between atoms: C_21  and  C_22 
REMARK   10  A    between atoms: N_24  and  C_25 
REMARK   11  A    between atoms: C_25  and  C_26 
REMARK   12  A    between atoms: C_26  and  N_27 
REMARK   13  A    between atoms: N_27  and  C_28 
REMARK   14  A    between atoms: C_50  and  N_51 
ROOT
HETATM    1  C   UNK N   1      33.949  24.813  -6.271  0.00  0.00     0.002 C 
ENDROOT
BRANCH   1   2
HETATM    2  C   UNK N   1      32.882  25.832  -6.529  0.00  0.00     0.020 C 
BRANCH   2   3
HETATM    3  C   UNK N   1      31.565  25.215  -6.131  0.00  0.00     0.129 C 
BRANCH   3   4
HETATM    4  N   UNK N   1      30.526  25.555  -7.097  0.00  0.00    -0.345 N 
HETATM    5  C   UNK N   1      30.306  24.779  -8.234  0.00  0.00     0.056 A 
HETATM    6  C   UNK N   1      29.202  25.133  -9.083  0.00  0.00     0.005 A 
HETATM    7  C   UNK N   1      28.406  26.267  -8.778  0.00  0.00    -0.011 A 
HETATM    8  C   UNK N   1      28.863  24.383 -10.223  0.00  0.00     0.043 A 
HETATM    9  C   UNK N   1      27.323  26.610  -9.609  0.00  0.00     0.015 A 
HETATM   10  C   UNK N   1      28.700  27.045  -7.658  0.00  0.00     0.002 A 
HETATM   11  C   UNK N   1      27.011  25.841 -10.727  0.00  0.00     0.030 A 
HETATM   12  C   UNK N   1      27.781  24.725 -11.032  0.00  0.00     0.026 A 
HETATM   13  C   UNK N   1      29.763  26.668  -6.817  0.00  0.00     0.048 A 
HETATM   14  C   UNK N   1      27.944  28.195  -7.355  0.00  0.00     0.017 A 
HETATM   15  C   UNK N   1      30.040  27.466  -5.683  0.00  0.00     0.059 A 
HETATM   16  C   UNK N   1      29.294  28.610  -5.402  0.00  0.00     0.027 A 
HETATM   17  C   UNK N   1      28.245  28.975  -6.239  0.00  0.00     0.030 A 
BRANCH   5  18
HETATM   18  C   UNK N   1      31.233  23.594  -8.592  0.00  0.00    -0.008 A 
HETATM   19  C   UNK N   1      31.044  22.307  -8.050  0.00  0.00     0.014 A 
HETATM   20  C   UNK N   1      31.921  21.252  -8.310  0.00  0.00     0.001 A 
HETATM   21  C   UNK N   1      33.026  21.455  -9.130  0.00  0.00     0.000 A 
HETATM   22  C   UNK N   1      33.244  22.711  -9.689  0.00  0.00     0.001 A 
HETATM   23  C   UNK N   1      32.362  23.763  -9.418  0.00  0.00     0.014 A 
ENDBRANCH   5  18
BRANCH  12  24
HETATM   24  N   UNK N   1      27.467  23.937 -12.155  0.00  0.00    -0.399 N 
HETATM   25  H   UNK N   1      28.183  23.603 -12.742  0.00  0.00     0.156 HD
HETATM   26  H   UNK N   1      26.527  23.720 -12.355  0.00  0.00     0.156 HD
ENDBRANCH  12  24
BRANCH  16  27
HETATM   27  N   UNK N   1      29.611  29.399  -4.279  0.00  0.00    -0.399 N 
HETATM   28  H   UNK N   1      30.385  29.171  -3.716  0.00  0.00     0.156 HD
HETATM   29  H   UNK N   1      29.055  30.181  -4.056  0.00  0.00     0.156 HD
ENDBRANCH  16  27
ENDBRANCH   3   4
ENDBRANCH   2   3
ENDBRANCH   1   2
BRANCH   1  30
HETATM   30  C   UNK N   1      33.416  23.828  -5.248  0.00  0.00     0.000 C 
BRANCH  30  31
HETATM   31  C   UNK N   1      33.850  22.415  -5.566  0.00  0.00     0.006 C 
BRANCH  31  32
HETATM   32  C   UNK N   1      33.683  21.488  -4.369  0.00  0.00     0.059 C 
BRANCH  32  33
HETATM   33  C   UNK N   1      32.260  21.560  -3.956  0.00  0.00     0.040 A 
HETATM   34  C   UNK N   1      31.791  22.303  -2.911  0.00  0.00     0.134 A 
HETATM   35  N   UNK N   1      30.449  22.270  -3.008  0.00  0.00    -0.283 N 
HETATM   36  N   UNK N   1      30.118  21.548  -4.065  0.00  0.00    -0.020 NA
HETATM   37  N   UNK N   1      31.210  21.106  -4.670  0.00  0.00    -0.287 N 
ATOM     38  HN  UNK N   1      31.250  20.533  -5.512  1.00  0.00     0.184 HD
BRANCH  35  39
HETATM   39  C   UNK N   1      29.493  23.042  -2.215  0.00  0.00     0.165 C 
BRANCH  39  40
HETATM   40  C   UNK N   1      28.166  23.257  -2.953  0.00  0.00     0.141 C 
BRANCH  40  41
HETATM   41  N   UNK N   1      28.386  24.011  -4.170  0.00  0.00    -0.387 N 
HETATM   42  H   UNK N   1      29.314  24.256  -4.389  0.00  0.00     0.159 HD
BRANCH  41  43
HETATM   43  C   UNK N   1      27.366  24.426  -5.078  0.00  0.00     0.049 A 
HETATM   44  C   UNK N   1      27.018  23.678  -6.231  0.00  0.00    -0.008 A 
HETATM   45  C   UNK N   1      27.749  22.403  -6.576  0.00  0.00     0.043 C 
HETATM   46  C   UNK N   1      25.985  24.156  -7.075  0.00  0.00     0.018 A 
HETATM   47  C   UNK N   1      27.596  21.997  -8.035  0.00  0.00     0.005 C 
HETATM   48  C   UNK N   1      26.127  21.999  -8.403  0.00  0.00     0.006 C 
HETATM   49  C   UNK N   1      25.566  23.413  -8.315  0.00  0.00     0.057 C 
HETATM   50  N   UNK N   1      25.346  25.317  -6.780  0.00  0.00    -0.358 N 
HETATM   51  C   UNK N   1      25.657  26.054  -5.688  0.00  0.00     0.044 A 
ATOM     52  HN  UNK N   1      24.607  25.646  -7.403  1.00  0.00     0.166 HD
HETATM   53  C   UNK N   1      26.678  25.627  -4.814  0.00  0.00     0.018 A 
HETATM   54  C   UNK N   1      24.957  27.238  -5.429  0.00  0.00     0.030 A 
HETATM   55  C   UNK N   1      26.981  26.405  -3.686  0.00  0.00     0.016 A 
HETATM   56  C   UNK N   1      26.277  27.588  -3.433  0.00  0.00     0.001 A 
HETATM   57  C   UNK N   1      25.265  28.002  -4.301  0.00  0.00     0.002 A 
ENDBRANCH  41  43
ENDBRANCH  40  41
ENDBRANCH  39  40
ENDBRANCH  35  39
ENDBRANCH  32  33
ENDBRANCH  31  32
ENDBRANCH  30  31
ENDBRANCH   1  30
TORSDOF 14
ENDMDL
MODEL 7
REMARK VINA RESULT:      -6.2     14.526     19.577
REMARK  14 active torsions:
REMARK  status: ('A' for Active; 'I' for Inactive)
REMARK    1  A    between atoms: N_1  and  C_2 
REMARK    2  A    between atoms: C_8  and  C_9 
REMARK    3  A    between atoms: N_15  and  C_16 
REMARK    4  A    between atoms: C_16  and  C_17 
REMARK    5  A    between atoms: C_17  and  C_18 
REMARK    6  A    between atoms: C_18  and  C_19 
REMARK    7  A    between atoms: C_19  and  C_20 
REMARK    8  A    between atoms: C_20  and  C_21 
REMARK    9  A    between atoms: C_21  and  C_22 
REMARK   10  A    between atoms: N_24  and  C_25 
REMARK   11  A    between atoms: C_25  and  C_26 
REMARK   12  A    between atoms: C_26  and  N_27 
REMARK   13  A    between atoms: N_27  and  C_28 
REMARK   14  A    between atoms: C_50  and  N_51 
ROOT
HETATM    1  C   UNK N   1      31.788  13.735   5.668  0.00  0.00     0.002 C 
ENDROOT
BRANCH   1   2
HETATM    2  C   UNK N   1      30.576  13.467   4.829  0.00  0.00     0.020 C 
BRANCH   2   3
HETATM    3  C   UNK N   1      30.603  14.440   3.677  0.00  0.00     0.129 C 
BRANCH   3   4
HETATM    4  N   UNK N   1      29.483  15.372   3.766  0.00  0.00    -0.345 N 
HETATM    5  C   UNK N   1      29.619  16.616   4.378  0.00  0.00     0.056 A 
HETATM    6  C   UNK N   1      28.493  17.508   4.338  0.00  0.00     0.005 A 
HETATM    7  C   UNK N   1      27.280  17.094   3.732  0.00  0.00    -0.011 A 
HETATM    8  C   UNK N   1      28.545  18.806   4.878  0.00  0.00     0.043 A 
HETATM    9  C   UNK N   1      26.179  17.970   3.692  0.00  0.00     0.015 A 
HETATM   10  C   UNK N   1      27.176  15.817   3.181  0.00  0.00     0.002 A 
HETATM   11  C   UNK N   1      26.267  19.251   4.230  0.00  0.00     0.030 A 
HETATM   12  C   UNK N   1      27.453  19.669   4.823  0.00  0.00     0.026 A 
HETATM   13  C   UNK N   1      28.296  14.966   3.196  0.00  0.00     0.048 A 
HETATM   14  C   UNK N   1      25.969  15.372   2.604  0.00  0.00     0.017 A 
HETATM   15  C   UNK N   1      28.172  13.678   2.627  0.00  0.00     0.059 A 
HETATM   16  C   UNK N   1      26.969  13.244   2.072  0.00  0.00     0.027 A 
HETATM   17  C   UNK N   1      25.865  14.092   2.060  0.00  0.00     0.030 A 
BRANCH   5  18
HETATM   18  C   UNK N   1      30.924  17.020   5.103  0.00  0.00    -0.008 A 
HETATM   19  C   UNK N   1      32.091  17.379   4.398  0.00  0.00     0.014 A 
HETATM   20  C   UNK N   1      33.293  17.671   5.045  0.00  0.00     0.001 A 
HETATM   21  C   UNK N   1      33.366  17.612   6.433  0.00  0.00     0.000 A 
HETATM   22  C   UNK N   1      32.233  17.266   7.165  0.00  0.00     0.001 A 
HETATM   23  C   UNK N   1      31.035  16.971   6.507  0.00  0.00     0.014 A 
ENDBRANCH   5  18
BRANCH  12  24
HETATM   24  N   UNK N   1      27.553  20.965   5.361  0.00  0.00    -0.399 N 
HETATM   25  H   UNK N   1      28.369  21.242   5.837  0.00  0.00     0.156 HD
HETATM   26  H   UNK N   1      26.805  21.598   5.262  0.00  0.00     0.156 HD
ENDBRANCH  12  24
BRANCH  16  27
HETATM   27  N   UNK N   1      26.868  11.946   1.535  0.00  0.00    -0.399 N 
HETATM   28  H   UNK N   1      27.272  11.183   2.007  0.00  0.00     0.156 HD
HETATM   29  H   UNK N   1      26.394  11.802   0.684  0.00  0.00     0.156 HD
ENDBRANCH  16  27
ENDBRANCH   3   4
ENDBRANCH   2   3
ENDBRANCH   1   2
BRANCH   1  30
HETATM   30  C   UNK N   1      33.003  13.688   4.762  0.00  0.00     0.000 C 
BRANCH  30  31
HETATM   31  C   UNK N   1      34.250  14.138   5.489  0.00  0.00     0.006 C 
BRANCH  31  32
HETATM   32  C   UNK N   1      34.723  13.100   6.499  0.00  0.00     0.059 C 
BRANCH  32  33
HETATM   33  C   UNK N   1      35.220  13.840   7.685  0.00  0.00     0.040 A 
HETATM   34  C   UNK N   1      34.423  14.391   8.647  0.00  0.00     0.134 A 
HETATM   35  N   UNK N   1      35.250  14.769   9.639  0.00  0.00    -0.283 N 
HETATM   36  N   UNK N   1      36.490  14.456   9.300  0.00  0.00    -0.020 NA
HETATM   37  N   UNK N   1      36.499  13.878   8.110  0.00  0.00    -0.287 N 
ATOM     38  HN  UNK N   1      37.316  13.529   7.609  1.00  0.00     0.184 HD
BRANCH  35  39
HETATM   39  C   UNK N   1      34.866  15.268  10.959  0.00  0.00     0.165 C 
BRANCH  39  40
HETATM   40  C   UNK N   1      36.082  15.556  11.848  0.00  0.00     0.141 C 
BRANCH  40  41
HETATM   41  N   UNK N   1      36.586  14.325  12.421  0.00  0.00    -0.387 N 
HETATM   42  H   UNK N   1      37.400  13.940  12.021  0.00  0.00     0.159 HD
BRANCH  41  43
HETATM   43  C   UNK N   1      36.001  13.627  13.519  0.00  0.00     0.049 A 
HETATM   44  C   UNK N   1      36.126  14.068  14.860  0.00  0.00    -0.008 A 
HETATM   45  C   UNK N   1      36.929  15.301  15.198  0.00  0.00     0.043 C 
HETATM   46  C   UNK N   1      35.503  13.320  15.891  0.00  0.00     0.018 A 
HETATM   47  C   UNK N   1      37.354  15.362  16.658  0.00  0.00     0.005 C 
HETATM   48  C   UNK N   1      36.143  15.139  17.540  0.00  0.00     0.006 C 
HETATM   49  C   UNK N   1      35.597  13.731  17.336  0.00  0.00     0.057 C 
HETATM   50  N   UNK N   1      34.804  12.196  15.591  0.00  0.00    -0.358 N 
HETATM   51  C   UNK N   1      34.669  11.749  14.321  0.00  0.00     0.044 A 
ATOM     52  HN  UNK N   1      34.366  11.671  16.348  1.00  0.00     0.166 HD
HETATM   53  C   UNK N   1      35.269  12.452  13.255  0.00  0.00     0.018 A 
HETATM   54  C   UNK N   1      33.927  10.589  14.070  0.00  0.00     0.030 A 
HETATM   55  C   UNK N   1      35.112  11.972  11.946  0.00  0.00     0.016 A 
HETATM   56  C   UNK N   1      34.370  10.811  11.703  0.00  0.00     0.001 A 
HETATM   57  C   UNK N   1      33.775  10.122  12.762  0.00  0.00     0.002 A 
ENDBRANCH  41  43
ENDBRANCH  40  41
ENDBRANCH  39  40
ENDBRANCH  35  39
ENDBRANCH  32  33
ENDBRANCH  31  32
ENDBRANCH  30  31
ENDBRANCH   1  30
TORSDOF 14
ENDMDL
MODEL 8
REMARK VINA RESULT:      -6.1     12.351     15.925
REMARK  14 active torsions:
REMARK  status: ('A' for Active; 'I' for Inactive)
REMARK    1  A    between atoms: N_1  and  C_2 
REMARK    2  A    between atoms: C_8  and  C_9 
REMARK    3  A    between atoms: N_15  and  C_16 
REMARK    4  A    between atoms: C_16  and  C_17 
REMARK    5  A    between atoms: C_17  and  C_18 
REMARK    6  A    between atoms: C_18  and  C_19 
REMARK    7  A    between atoms: C_19  and  C_20 
REMARK    8  A    between atoms: C_20  and  C_21 
REMARK    9  A    between atoms: C_21  and  C_22 
REMARK   10  A    between atoms: N_24  and  C_25 
REMARK   11  A    between atoms: C_25  and  C_26 
REMARK   12  A    between atoms: C_26  and  N_27 
REMARK   13  A    between atoms: N_27  and  C_28 
REMARK   14  A    between atoms: C_50  and  N_51 
ROOT
HETATM    1  C   UNK N   1      26.355  13.093   5.833  0.00  0.00     0.002 C 
ENDROOT
BRANCH   1   2
HETATM    2  C   UNK N   1      25.186  13.235   6.759  0.00  0.00     0.020 C 
BRANCH   2   3
HETATM    3  C   UNK N   1      23.937  13.207   5.914  0.00  0.00     0.129 C 
BRANCH   3   4
HETATM    4  N   UNK N   1      23.266  14.503   5.946  0.00  0.00    -0.345 N 
HETATM    5  C   UNK N   1      23.468  15.452   4.945  0.00  0.00     0.056 A 
HETATM    6  C   UNK N   1      22.696  16.662   5.006  0.00  0.00     0.005 A 
HETATM    7  C   UNK N   1      21.802  16.881   6.085  0.00  0.00    -0.011 A 
HETATM    8  C   UNK N   1      22.785  17.658   4.017  0.00  0.00     0.043 A 
HETATM    9  C   UNK N   1      21.045  18.067   6.141  0.00  0.00     0.015 A 
HETATM   10  C   UNK N   1      21.676  15.925   7.092  0.00  0.00     0.002 A 
HETATM   11  C   UNK N   1      21.153  19.029   5.140  0.00  0.00     0.030 A 
HETATM   12  C   UNK N   1      22.023  18.823   4.077  0.00  0.00     0.026 A 
HETATM   13  C   UNK N   1      22.412  14.729   7.003  0.00  0.00     0.048 A 
HETATM   14  C   UNK N   1      20.818  16.137   8.190  0.00  0.00     0.017 A 
HETATM   15  C   UNK N   1      22.265  13.769   8.031  0.00  0.00     0.059 A 
HETATM   16  C   UNK N   1      21.424  13.996   9.119  0.00  0.00     0.027 A 
HETATM   17  C   UNK N   1      20.700  15.182   9.200  0.00  0.00     0.030 A 
BRANCH   5  18
HETATM   18  C   UNK N   1      24.506  15.229   3.821  0.00  0.00    -0.008 A 
HETATM   19  C   UNK N   1      25.744  15.902   3.802  0.00  0.00     0.014 A 
HETATM   20  C   UNK N   1      26.653  15.763   2.751  0.00  0.00     0.001 A 
HETATM   21  C   UNK N   1      26.348  14.936   1.676  0.00  0.00     0.000 A 
HETATM   22  C   UNK N   1      25.137  14.248   1.660  0.00  0.00     0.001 A 
HETATM   23  C   UNK N   1      24.231  14.399   2.715  0.00  0.00     0.014 A 
ENDBRANCH   5  18
BRANCH  12  24
HETATM   24  N   UNK N   1      22.131  19.786   3.057  0.00  0.00    -0.399 N 
HETATM   25  H   UNK N   1      21.423  20.459   2.934  0.00  0.00     0.156 HD
HETATM   26  H   UNK N   1      22.917  19.788   2.463  0.00  0.00     0.156 HD
ENDBRANCH  12  24
BRANCH  16  27
HETATM   27  N   UNK N   1      21.319  13.033  10.141  0.00  0.00    -0.399 N 
HETATM   28  H   UNK N   1      21.387  12.075   9.926  0.00  0.00     0.156 HD
HETATM   29  H   UNK N   1      21.175  13.318  11.072  0.00  0.00     0.156 HD
ENDBRANCH  16  27
ENDBRANCH   3   4
ENDBRANCH   2   3
ENDBRANCH   1   2
BRANCH   1  30
HETATM   30  C   UNK N   1      26.018  12.020   4.816  0.00  0.00     0.000 C 
BRANCH  30  31
HETATM   31  C   UNK N   1      27.205  11.123   4.548  0.00  0.00     0.006 C 
BRANCH  31  32
HETATM   32  C   UNK N   1      27.989  11.572   3.321  0.00  0.00     0.059 C 
BRANCH  32  33
HETATM   33  C   UNK N   1      29.140  12.372   3.806  0.00  0.00     0.040 A 
HETATM   34  C   UNK N   1      29.421  13.648   3.408  0.00  0.00     0.134 A 
HETATM   35  N   UNK N   1      30.395  14.084   4.229  0.00  0.00    -0.283 N 
HETATM   36  N   UNK N   1      30.686  13.122   5.090  0.00  0.00    -0.020 NA
HETATM   37  N   UNK N   1      29.926  12.064   4.857  0.00  0.00    -0.287 N 
ATOM     38  HN  UNK N   1      29.933  11.184   5.373  1.00  0.00     0.184 HD
BRANCH  35  39
HETATM   39  C   UNK N   1      30.929  15.442   4.312  0.00  0.00     0.165 C 
BRANCH  39  40
HETATM   40  C   UNK N   1      29.915  16.495   3.851  0.00  0.00     0.141 C 
BRANCH  40  41
HETATM   41  N   UNK N   1      30.070  17.711   4.621  0.00  0.00    -0.387 N 
HETATM   42  H   UNK N   1      30.906  18.218   4.503  0.00  0.00     0.159 HD
BRANCH  41  43
HETATM   43  C   UNK N   1      29.109  18.236   5.537  0.00  0.00     0.049 A 
HETATM   44  C   UNK N   1      27.971  18.968   5.114  0.00  0.00    -0.008 A 
HETATM   45  C   UNK N   1      27.738  19.263   3.652  0.00  0.00     0.043 C 
HETATM   46  C   UNK N   1      27.059  19.445   6.089  0.00  0.00     0.018 A 
HETATM   47  C   UNK N   1      26.780  20.421   3.416  0.00  0.00     0.005 C 
HETATM   48  C   UNK N   1      25.517  20.197   4.220  0.00  0.00     0.006 C 
HETATM   49  C   UNK N   1      25.832  20.230   5.711  0.00  0.00     0.057 C 
HETATM   50  N   UNK N   1      27.281  19.204   7.407  0.00  0.00    -0.358 N 
HETATM   51  C   UNK N   1      28.360  18.511   7.840  0.00  0.00     0.044 A 
ATOM     52  HN  UNK N   1      26.614  19.559   8.093  1.00  0.00     0.166 HD
HETATM   53  C   UNK N   1      29.302  18.014   6.915  0.00  0.00     0.018 A 
HETATM   54  C   UNK N   1      28.533  18.284   9.210  0.00  0.00     0.030 A 
HETATM   55  C   UNK N   1      30.410  17.294   7.387  0.00  0.00     0.016 A 
HETATM   56  C   UNK N   1      30.576  17.072   8.759  0.00  0.00     0.001 A 
HETATM   57  C   UNK N   1      29.638  17.563   9.669  0.00  0.00     0.002 A 
ENDBRANCH  41  43
ENDBRANCH  40  41
ENDBRANCH  39  40
ENDBRANCH  35  39
ENDBRANCH  32  33
ENDBRANCH  31  32
ENDBRANCH  30  31
ENDBRANCH   1  30
TORSDOF 14
ENDMDL
MODEL 9
REMARK VINA RESULT:      -6.1      2.400      7.228
REMARK  14 active torsions:
REMARK  status: ('A' for Active; 'I' for Inactive)
REMARK    1  A    between atoms: N_1  and  C_2 
REMARK    2  A    between atoms: C_8  and  C_9 
REMARK    3  A    between atoms: N_15  and  C_16 
REMARK    4  A    between atoms: C_16  and  C_17 
REMARK    5  A    between atoms: C_17  and  C_18 
REMARK    6  A    between atoms: C_18  and  C_19 
REMARK    7  A    between atoms: C_19  and  C_20 
REMARK    8  A    between atoms: C_20  and  C_21 
REMARK    9  A    between atoms: C_21  and  C_22 
REMARK   10  A    between atoms: N_24  and  C_25 
REMARK   11  A    between atoms: C_25  and  C_26 
REMARK   12  A    between atoms: C_26  and  N_27 
REMARK   13  A    between atoms: N_27  and  C_28 
REMARK   14  A    between atoms: C_50  and  N_51 
ROOT
HETATM    1  C   UNK N   1      30.995  28.477  -2.560  0.00  0.00     0.002 C 
ENDROOT
BRANCH   1   2
HETATM    2  C   UNK N   1      30.445  27.455  -3.508  0.00  0.00     0.020 C 
BRANCH   2   3
HETATM    3  C   UNK N   1      31.612  26.651  -4.026  0.00  0.00     0.129 C 
BRANCH   3   4
HETATM    4  N   UNK N   1      31.271  26.011  -5.293  0.00  0.00    -0.345 N 
HETATM    5  C   UNK N   1      30.409  24.918  -5.348  0.00  0.00     0.056 A 
HETATM    6  C   UNK N   1      30.055  24.409  -6.645  0.00  0.00     0.005 A 
HETATM    7  C   UNK N   1      30.616  24.987  -7.812  0.00  0.00    -0.011 A 
HETATM    8  C   UNK N   1      29.150  23.345  -6.811  0.00  0.00     0.043 A 
HETATM    9  C   UNK N   1      30.266  24.489  -9.081  0.00  0.00     0.015 A 
HETATM   10  C   UNK N   1      31.518  26.045  -7.702  0.00  0.00     0.002 A 
HETATM   11  C   UNK N   1      29.361  23.438  -9.209  0.00  0.00     0.030 A 
HETATM   12  C   UNK N   1      28.802  22.868  -8.072  0.00  0.00     0.026 A 
HETATM   13  C   UNK N   1      31.831  26.556  -6.429  0.00  0.00     0.048 A 
HETATM   14  C   UNK N   1      32.114  26.611  -8.847  0.00  0.00     0.017 A 
HETATM   15  C   UNK N   1      32.742  27.632  -6.340  0.00  0.00     0.059 A 
HETATM   16  C   UNK N   1      33.336  28.175  -7.478  0.00  0.00     0.027 A 
HETATM   17  C   UNK N   1      33.022  27.664  -8.734  0.00  0.00     0.030 A 
BRANCH   5  18
HETATM   18  C   UNK N   1      29.869  24.252  -4.061  0.00  0.00    -0.008 A 
HETATM   19  C   UNK N   1      30.682  23.442  -3.241  0.00  0.00     0.014 A 
HETATM   20  C   UNK N   1      30.182  22.777  -2.120  0.00  0.00     0.001 A 
HETATM   21  C   UNK N   1      28.840  22.904  -1.780  0.00  0.00     0.000 A 
HETATM   22  C   UNK N   1      28.005  23.699  -2.561  0.00  0.00     0.001 A 
HETATM   23  C   UNK N   1      28.515  24.357  -3.686  0.00  0.00     0.014 A 
ENDBRANCH   5  18
BRANCH  12  24
HETATM   24  N   UNK N   1      27.880  21.812  -8.194  0.00  0.00    -0.399 N 
HETATM   25  H   UNK N   1      26.913  21.998  -8.219  0.00  0.00     0.156 HD
HETATM   26  H   UNK N   1      28.201  20.883  -8.254  0.00  0.00     0.156 HD
ENDBRANCH  12  24
BRANCH  16  27
HETATM   27  N   UNK N   1      34.261  29.231  -7.356  0.00  0.00    -0.399 N 
HETATM   28  H   UNK N   1      35.143  29.168  -7.787  0.00  0.00     0.156 HD
HETATM   29  H   UNK N   1      34.023  30.033  -6.836  0.00  0.00     0.156 HD
ENDBRANCH  16  27
ENDBRANCH   3   4
ENDBRANCH   2   3
ENDBRANCH   1   2
BRANCH   1  30
HETATM   30  C   UNK N   1      30.259  29.781  -2.801  0.00  0.00     0.000 C 
BRANCH  30  31
HETATM   31  C   UNK N   1      29.053  29.908  -1.899  0.00  0.00     0.006 C 
BRANCH  31  32
HETATM   32  C   UNK N   1      27.874  30.554  -2.615  0.00  0.00     0.059 C 
BRANCH  32  33
HETATM   33  C   UNK N   1      26.941  29.464  -2.991  0.00  0.00     0.040 A 
HETATM   34  C   UNK N   1      26.161  29.461  -4.112  0.00  0.00     0.134 A 
HETATM   35  N   UNK N   1      25.640  28.223  -4.196  0.00  0.00    -0.283 N 
HETATM   36  N   UNK N   1      26.087  27.505  -3.179  0.00  0.00    -0.020 NA
HETATM   37  N   UNK N   1      26.893  28.240  -2.428  0.00  0.00    -0.287 N 
ATOM     38  HN  UNK N   1      27.383  27.939  -1.587  1.00  0.00     0.184 HD
BRANCH  35  39
HETATM   39  C   UNK N   1      24.864  27.671  -5.305  0.00  0.00     0.165 C 
BRANCH  39  40
HETATM   40  C   UNK N   1      25.234  26.214  -5.606  0.00  0.00     0.141 C 
BRANCH  40  41
HETATM   41  N   UNK N   1      26.608  26.128  -6.055  0.00  0.00    -0.387 N 
HETATM   42  H   UNK N   1      27.270  25.769  -5.421  0.00  0.00     0.159 HD
BRANCH  41  43
HETATM   43  C   UNK N   1      27.079  26.521  -7.344  0.00  0.00     0.049 A 
HETATM   44  C   UNK N   1      26.638  25.903  -8.540  0.00  0.00    -0.008 A 
HETATM   45  C   UNK N   1      25.657  24.755  -8.504  0.00  0.00     0.043 C 
HETATM   46  C   UNK N   1      27.149  26.361  -9.781  0.00  0.00     0.018 A 
HETATM   47  C   UNK N   1      25.657  23.921  -9.775  0.00  0.00     0.005 C 
HETATM   48  C   UNK N   1      25.510  24.835 -10.974  0.00  0.00     0.006 C 
HETATM   49  C   UNK N   1      26.724  25.749 -11.089  0.00  0.00     0.057 C 
HETATM   50  N   UNK N   1      28.052  27.374  -9.814  0.00  0.00    -0.358 N 
HETATM   51  C   UNK N   1      28.494  27.982  -8.688  0.00  0.00     0.044 A 
ATOM     52  HN  UNK N   1      28.410  27.687 -10.717  1.00  0.00     0.166 HD
HETATM   53  C   UNK N   1      28.021  27.566  -7.426  0.00  0.00     0.018 A 
HETATM   54  C   UNK N   1      29.418  29.028  -8.783  0.00  0.00     0.030 A 
HETATM   55  C   UNK N   1      28.491  28.213  -6.273  0.00  0.00     0.016 A 
HETATM   56  C   UNK N   1      29.415  29.259  -6.376  0.00  0.00     0.001 A 
HETATM   57  C   UNK N   1      29.876  29.668  -7.629  0.00  0.00     0.002 A 
ENDBRANCH  41  43
ENDBRANCH  40  41
ENDBRANCH  39  40
ENDBRANCH  35  39
ENDBRANCH  32  33
ENDBRANCH  31  32
ENDBRANCH  30  31
ENDBRANCH   1  30
TORSDOF 14
ENDMDL
