MODEL 1
REMARK VINA RESULT:      -7.0      0.000      0.000
REMARK  14 active torsions:
REMARK  status: ('A' for Active; 'I' for Inactive)
REMARK    1  A    between atoms: C_9  and  C_8 
REMARK    2  A    between atoms: O_34  and  C_8 
REMARK    3  A    between atoms: C_17  and  C_9 
REMARK    4  A    between atoms: C_9  and  N_21 
REMARK    5  A    between atoms: O_32  and  C_10 
REMARK    6  A    between atoms: O_33  and  C_11 
REMARK    7  A    between atoms: C_15  and  C_12 
REMARK    8  A    between atoms: C_16  and  C_13 
REMARK    9  A    between atoms: C_19  and  C_13 
REMARK   10  A    between atoms: C_13  and  N_22 
REMARK   11  A    between atoms: C_14  and  C_18 
REMARK   12  A    between atoms: C_15  and  O_25 
REMARK   13  A    between atoms: O_30  and  C_18 
REMARK   14  A    between atoms: O_34  and  C_19 
ROOT
HETATM    1  C   UNK N   1      20.094  15.605   5.345  0.00  0.00     0.216 C 
ENDROOT
BRANCH   1   2
HETATM    2  C   UNK N   1      19.644  15.046   3.956  0.00  0.00     0.173 C 
HETATM    3  N   UNK N   1      19.435  16.140   3.007  0.00  0.00    -0.392 N 
HETATM    4  C   UNK N   1      20.532  16.268   2.034  0.00  0.00     0.194 C 
HETATM    5  H   UNK N   1      18.617  16.749   3.018  0.00  0.00     0.155 HD
HETATM    6  C   UNK N   1      21.612  15.190   2.313  0.00  0.00     0.033 C 
HETATM    7  C   UNK N   1      22.343  14.659   1.090  0.00  0.00     0.029 C 
HETATM    8  C   UNK N   1      22.693  15.752   3.213  0.00  0.00     0.029 C 
HETATM    9  S   UNK N   1      20.800  13.849   3.195  0.00  0.00    -0.130 SA
BRANCH   4  10
HETATM   10  C   UNK N   1      19.901  16.319   0.656  0.00  0.00     0.164 C 
HETATM   11  O   UNK N   1      20.328  17.121  -0.160  0.00  0.00    -0.648 OA
BRANCH  10  12
HETATM   12  O   UNK N   1      18.902  15.492   0.293  0.00  0.00    -0.775 OA
HETATM   13  H   UNK N   1      18.918  14.563   0.176  0.00  0.00     0.167 HD
ENDBRANCH  10  12
ENDBRANCH   4  10
ENDBRANCH   1   2
BRANCH   1  14
HETATM   14  C   UNK N   1      18.918  15.913   6.292  0.00  0.00     0.284 C 
HETATM   15  O   UNK N   1      17.789  15.939   5.822  0.00  0.00    -0.263 OA
BRANCH  14  16
HETATM   16  O   UNK N   1      19.030  16.138   7.625  0.00  0.00    -0.317 OA
BRANCH  16  17
HETATM   17  C   UNK N   1      19.418  17.298   8.243  0.00  0.00     0.214 C 
BRANCH  17  18
HETATM   18  C   UNK N   1      18.494  17.559   9.434  0.00  0.00     0.201 C 
BRANCH  18  19
HETATM   19  C   UNK N   1      18.881  18.792  10.215  0.00  0.00     0.198 C 
HETATM   20  O   UNK N   1      18.143  19.207  11.093  0.00  0.00    -0.646 OA
HETATM   21  O   UNK N   1      20.038  19.438   9.964  0.00  0.00    -0.646 OA
ENDBRANCH  18  19
BRANCH  18  22
HETATM   22  N   UNK N   1      17.133  17.703   8.951  0.00  0.00    -0.416 N 
HETATM   23  H   UNK N   1      16.615  16.965   8.473  0.00  0.00     0.150 HD
HETATM   24  H   UNK N   1      16.665  18.597   9.099  0.00  0.00     0.150 HD
ENDBRANCH  18  22
ENDBRANCH  17  18
ENDBRANCH  16  17
ENDBRANCH  14  16
ENDBRANCH   1  14
BRANCH   1  25
HETATM   25  N   UNK N   1      20.933  14.639   6.049  0.00  0.00    -0.354 N 
HETATM   26  C   UNK N   1      22.005  14.934   6.706  0.00  0.00     0.152 C 
ATOM     27  HN  UNK N   1      20.651  13.659   6.021  1.00  0.00     0.162 HD
BRANCH  26  28
HETATM   28  C   UNK N   1      22.673  13.916   7.553  0.00  0.00     0.081 A 
HETATM   29  C   UNK N   1      21.902  13.270   8.554  0.00  0.00     0.085 A 
HETATM   30  C   UNK N   1      22.524  12.376   9.440  0.00  0.00     0.038 A 
HETATM   31  C   UNK N   1      23.887  12.122   9.353  0.00  0.00     0.005 A 
HETATM   32  C   UNK N   1      24.650  12.750   8.373  0.00  0.00     0.038 A 
HETATM   33  C   UNK N   1      24.072  13.638   7.462  0.00  0.00     0.085 A 
BRANCH  29  34
HETATM   34  O   UNK N   1      20.586  13.568   8.689  0.00  0.00    -0.355 OA
HETATM   35  C   UNK N   1      20.004  13.923   9.885  0.00  0.00     0.210 C 
ENDBRANCH  29  34
BRANCH  33  36
HETATM   36  O   UNK N   1      24.898  14.159   6.515  0.00  0.00    -0.355 OA
HETATM   37  C   UNK N   1      25.895  15.080   6.739  0.00  0.00     0.210 C 
ENDBRANCH  33  36
ENDBRANCH  26  28
BRANCH  26  38
HETATM   38  O   UNK N   1      22.496  16.190   6.702  0.00  0.00    -0.346 OA
ATOM     39  HO  UNK N   1      21.927  16.899   6.978  1.00  0.00     0.219 HD
ENDBRANCH  26  38
ENDBRANCH   1  25
TORSDOF 14
ENDMDL
MODEL 2
REMARK VINA RESULT:      -6.7      0.545      2.224
REMARK  14 active torsions:
REMARK  status: ('A' for Active; 'I' for Inactive)
REMARK    1  A    between atoms: C_9  and  C_8 
REMARK    2  A    between atoms: O_34  and  C_8 
REMARK    3  A    between atoms: C_17  and  C_9 
REMARK    4  A    between atoms: C_9  and  N_21 
REMARK    5  A    between atoms: O_32  and  C_10 
REMARK    6  A    between atoms: O_33  and  C_11 
REMARK    7  A    between atoms: C_15  and  C_12 
REMARK    8  A    between atoms: C_16  and  C_13 
REMARK    9  A    between atoms: C_19  and  C_13 
REMARK   10  A    between atoms: C_13  and  N_22 
REMARK   11  A    between atoms: C_14  and  C_18 
REMARK   12  A    between atoms: C_15  and  O_25 
REMARK   13  A    between atoms: O_30  and  C_18 
REMARK   14  A    between atoms: O_34  and  C_19 
ROOT
HETATM    1  C   UNK N   1      20.256  15.532   5.476  0.00  0.00     0.216 C 
ENDROOT
BRANCH   1   2
HETATM    2  C   UNK N   1      19.783  14.889   4.132  0.00  0.00     0.173 C 
HETATM    3  N   UNK N   1      19.457  15.927   3.154  0.00  0.00    -0.392 N 
HETATM    4  C   UNK N   1      20.497  16.089   2.126  0.00  0.00     0.194 C 
HETATM    5  H   UNK N   1      18.601  16.481   3.181  0.00  0.00     0.155 HD
HETATM    6  C   UNK N   1      21.660  15.097   2.392  0.00  0.00     0.033 C 
HETATM    7  C   UNK N   1      22.369  14.567   1.156  0.00  0.00     0.029 C 
HETATM    8  C   UNK N   1      22.740  15.766   3.217  0.00  0.00     0.029 C 
HETATM    9  S   UNK N   1      20.982  13.742   3.362  0.00  0.00    -0.130 SA
BRANCH   4  10
HETATM   10  C   UNK N   1      19.802  16.042   0.778  0.00  0.00     0.164 C 
HETATM   11  O   UNK N   1      20.140  16.834  -0.088  0.00  0.00    -0.648 OA
BRANCH  10  12
HETATM   12  O   UNK N   1      18.842  15.141   0.497  0.00  0.00    -0.775 OA
HETATM   13  H   UNK N   1      17.912  15.250   0.496  0.00  0.00     0.167 HD
ENDBRANCH  10  12
ENDBRANCH   4  10
ENDBRANCH   1   2
BRANCH   1  14
HETATM   14  C   UNK N   1      19.094  15.964   6.391  0.00  0.00     0.284 C 
HETATM   15  O   UNK N   1      17.991  16.126   5.889  0.00  0.00    -0.263 OA
BRANCH  14  16
HETATM   16  O   UNK N   1      19.190  16.158   7.731  0.00  0.00    -0.317 OA
BRANCH  16  17
HETATM   17  C   UNK N   1      19.427  17.338   8.386  0.00  0.00     0.214 C 
BRANCH  17  18
HETATM   18  C   UNK N   1      18.348  17.543   9.449  0.00  0.00     0.201 C 
BRANCH  18  19
HETATM   19  C   UNK N   1      18.613  18.741  10.329  0.00  0.00     0.198 C 
HETATM   20  O   UNK N   1      17.777  19.085  11.149  0.00  0.00    -0.646 OA
HETATM   21  O   UNK N   1      19.768  19.431  10.232  0.00  0.00    -0.646 OA
ENDBRANCH  18  19
BRANCH  18  22
HETATM   22  N   UNK N   1      17.064  17.706   8.790  0.00  0.00    -0.416 N 
HETATM   23  H   UNK N   1      16.164  17.567   9.250  0.00  0.00     0.150 HD
HETATM   24  H   UNK N   1      17.063  17.975   7.806  0.00  0.00     0.150 HD
ENDBRANCH  18  22
ENDBRANCH  17  18
ENDBRANCH  16  17
ENDBRANCH  14  16
ENDBRANCH   1  14
BRANCH   1  25
HETATM   25  N   UNK N   1      21.051  14.587   6.255  0.00  0.00    -0.354 N 
HETATM   26  C   UNK N   1      22.187  14.857   6.806  0.00  0.00     0.152 C 
ATOM     27  HN  UNK N   1      20.681  13.644   6.374  1.00  0.00     0.162 HD
BRANCH  26  28
HETATM   28  C   UNK N   1      22.817  13.895   7.743  0.00  0.00     0.081 A 
HETATM   29  C   UNK N   1      23.904  13.116   7.270  0.00  0.00     0.085 A 
HETATM   30  C   UNK N   1      24.459  12.125   8.095  0.00  0.00     0.038 A 
HETATM   31  C   UNK N   1      23.952  11.894   9.367  0.00  0.00     0.005 A 
HETATM   32  C   UNK N   1      22.887  12.654   9.840  0.00  0.00     0.038 A 
HETATM   33  C   UNK N   1      22.310  13.660   9.059  0.00  0.00     0.085 A 
BRANCH  29  34
HETATM   34  O   UNK N   1      24.358  13.288   6.003  0.00  0.00    -0.355 OA
HETATM   35  C   UNK N   1      25.623  13.742   5.702  0.00  0.00     0.210 C 
ENDBRANCH  29  34
BRANCH  33  36
HETATM   36  O   UNK N   1      21.307  14.376   9.635  0.00  0.00    -0.355 OA
HETATM   37  C   UNK N   1      20.079  13.880  10.006  0.00  0.00     0.210 C 
ENDBRANCH  33  36
ENDBRANCH  26  28
BRANCH  26  38
HETATM   38  O   UNK N   1      22.787  16.048   6.607  0.00  0.00    -0.346 OA
ATOM     39  HO  UNK N   1      22.305  16.839   6.817  1.00  0.00     0.219 HD
ENDBRANCH  26  38
ENDBRANCH   1  25
TORSDOF 14
ENDMDL
MODEL 3
REMARK VINA RESULT:      -6.6      2.600      6.050
REMARK  14 active torsions:
REMARK  status: ('A' for Active; 'I' for Inactive)
REMARK    1  A    between atoms: C_9  and  C_8 
REMARK    2  A    between atoms: O_34  and  C_8 
REMARK    3  A    between atoms: C_17  and  C_9 
REMARK    4  A    between atoms: C_9  and  N_21 
REMARK    5  A    between atoms: O_32  and  C_10 
REMARK    6  A    between atoms: O_33  and  C_11 
REMARK    7  A    between atoms: C_15  and  C_12 
REMARK    8  A    between atoms: C_16  and  C_13 
REMARK    9  A    between atoms: C_19  and  C_13 
REMARK   10  A    between atoms: C_13  and  N_22 
REMARK   11  A    between atoms: C_14  and  C_18 
REMARK   12  A    between atoms: C_15  and  O_25 
REMARK   13  A    between atoms: O_30  and  C_18 
REMARK   14  A    between atoms: O_34  and  C_19 
ROOT
HETATM    1  C   UNK N   1      21.437  14.945   5.697  0.00  0.00     0.216 C 
ENDROOT
BRANCH   1   2
HETATM    2  C   UNK N   1      22.522  14.671   6.789  0.00  0.00     0.173 C 
HETATM    3  N   UNK N   1      21.891  14.401   8.081  0.00  0.00    -0.392 N 
HETATM    4  C   UNK N   1      21.901  12.972   8.434  0.00  0.00     0.194 C 
HETATM    5  H   UNK N   1      21.489  15.125   8.675  0.00  0.00     0.155 HD
HETATM    6  C   UNK N   1      22.581  12.156   7.304  0.00  0.00     0.033 C 
HETATM    7  C   UNK N   1      23.354  10.925   7.755  0.00  0.00     0.029 C 
HETATM    8  C   UNK N   1      21.542  11.641   6.330  0.00  0.00     0.029 C 
HETATM    9  S   UNK N   1      23.660  13.288   6.415  0.00  0.00    -0.130 SA
BRANCH   4  10
HETATM   10  C   UNK N   1      22.458  12.864   9.840  0.00  0.00     0.164 C 
HETATM   11  O   UNK N   1      21.787  12.317  10.701  0.00  0.00    -0.648 OA
BRANCH  10  12
HETATM   12  O   UNK N   1      23.679  13.328  10.165  0.00  0.00    -0.775 OA
HETATM   13  H   UNK N   1      24.003  13.604  11.000  0.00  0.00     0.167 HD
ENDBRANCH  10  12
ENDBRANCH   4  10
ENDBRANCH   1   2
BRANCH   1  14
HETATM   14  C   UNK N   1      20.024  15.153   6.276  0.00  0.00     0.284 C 
HETATM   15  O   UNK N   1      19.079  14.642   5.693  0.00  0.00    -0.263 OA
BRANCH  14  16
HETATM   16  O   UNK N   1      19.742  15.846   7.408  0.00  0.00    -0.317 OA
BRANCH  16  17
HETATM   17  C   UNK N   1      18.774  16.801   7.579  0.00  0.00     0.214 C 
BRANCH  17  18
HETATM   18  C   UNK N   1      18.892  17.382   8.988  0.00  0.00     0.201 C 
BRANCH  18  19
HETATM   19  C   UNK N   1      19.785  18.598   9.048  0.00  0.00     0.198 C 
HETATM   20  O   UNK N   1      20.433  18.921   8.066  0.00  0.00    -0.646 OA
HETATM   21  O   UNK N   1      19.871  19.341  10.171  0.00  0.00    -0.646 OA
ENDBRANCH  18  19
BRANCH  18  22
HETATM   22  N   UNK N   1      17.567  17.735   9.464  0.00  0.00    -0.416 N 
HETATM   23  H   UNK N   1      16.834  17.057   9.669  0.00  0.00     0.150 HD
HETATM   24  H   UNK N   1      17.356  18.724   9.602  0.00  0.00     0.150 HD
ENDBRANCH  18  22
ENDBRANCH  17  18
ENDBRANCH  16  17
ENDBRANCH  14  16
ENDBRANCH   1  14
BRANCH   1  25
HETATM   25  N   UNK N   1      21.746  16.159   4.948  0.00  0.00    -0.354 N 
HETATM   26  C   UNK N   1      22.168  17.262   5.472  0.00  0.00     0.152 C 
ATOM     27  HN  UNK N   1      21.623  16.135   3.936  1.00  0.00     0.162 HD
BRANCH  26  28
HETATM   28  C   UNK N   1      22.647  18.370   4.610  0.00  0.00     0.081 A 
HETATM   29  C   UNK N   1      21.695  19.051   3.806  0.00  0.00     0.085 A 
HETATM   30  C   UNK N   1      22.126  20.036   2.904  0.00  0.00     0.038 A 
HETATM   31  C   UNK N   1      23.475  20.348   2.784  0.00  0.00     0.005 A 
HETATM   32  C   UNK N   1      24.414  19.687   3.569  0.00  0.00     0.038 A 
HETATM   33  C   UNK N   1      24.031  18.707   4.489  0.00  0.00     0.085 A 
BRANCH  29  34
HETATM   34  O   UNK N   1      20.386  18.701   3.869  0.00  0.00    -0.355 OA
HETATM   35  C   UNK N   1      19.557  18.652   2.770  0.00  0.00     0.210 C 
ENDBRANCH  29  34
BRANCH  33  36
HETATM   36  O   UNK N   1      25.023  18.158   5.241  0.00  0.00    -0.355 OA
HETATM   37  C   UNK N   1      25.860  17.141   4.843  0.00  0.00     0.210 C 
ENDBRANCH  33  36
ENDBRANCH  26  28
BRANCH  26  38
HETATM   38  O   UNK N   1      22.258  17.402   6.810  0.00  0.00    -0.346 OA
ATOM     39  HO  UNK N   1      22.176  16.628   7.353  1.00  0.00     0.219 HD
ENDBRANCH  26  38
ENDBRANCH   1  25
TORSDOF 14
ENDMDL
MODEL 4
REMARK VINA RESULT:      -6.5     14.019     16.315
REMARK  14 active torsions:
REMARK  status: ('A' for Active; 'I' for Inactive)
REMARK    1  A    between atoms: C_9  and  C_8 
REMARK    2  A    between atoms: O_34  and  C_8 
REMARK    3  A    between atoms: C_17  and  C_9 
REMARK    4  A    between atoms: C_9  and  N_21 
REMARK    5  A    between atoms: O_32  and  C_10 
REMARK    6  A    between atoms: O_33  and  C_11 
REMARK    7  A    between atoms: C_15  and  C_12 
REMARK    8  A    between atoms: C_16  and  C_13 
REMARK    9  A    between atoms: C_19  and  C_13 
REMARK   10  A    between atoms: C_13  and  N_22 
REMARK   11  A    between atoms: C_14  and  C_18 
REMARK   12  A    between atoms: C_15  and  O_25 
REMARK   13  A    between atoms: O_30  and  C_18 
REMARK   14  A    between atoms: O_34  and  C_19 
ROOT
HETATM    1  C   UNK N   1      36.683  14.091  10.724  0.00  0.00     0.216 C 
ENDROOT
BRANCH   1   2
HETATM    2  C   UNK N   1      36.176  12.951   9.783  0.00  0.00     0.173 C 
HETATM    3  N   UNK N   1      36.355  13.327   8.380  0.00  0.00    -0.392 N 
HETATM    4  C   UNK N   1      37.498  12.650   7.749  0.00  0.00     0.194 C 
HETATM    5  H   UNK N   1      35.751  13.988   7.891  0.00  0.00     0.155 HD
HETATM    6  C   UNK N   1      38.197  11.725   8.781  0.00  0.00     0.033 C 
HETATM    7  C   UNK N   1      38.814  10.456   8.214  0.00  0.00     0.029 C 
HETATM    8  C   UNK N   1      39.338  12.458   9.454  0.00  0.00     0.029 C 
HETATM    9  S   UNK N   1      36.976  11.326  10.039  0.00  0.00    -0.130 SA
BRANCH   4  10
HETATM   10  C   UNK N   1      36.996  12.040   6.455  0.00  0.00     0.164 C 
HETATM   11  O   UNK N   1      35.914  11.471   6.450  0.00  0.00    -0.648 OA
BRANCH  10  12
HETATM   12  O   UNK N   1      37.689  12.126   5.304  0.00  0.00    -0.775 OA
HETATM   13  H   UNK N   1      38.535  11.781   5.098  0.00  0.00     0.167 HD
ENDBRANCH  10  12
ENDBRANCH   4  10
ENDBRANCH   1   2
BRANCH   1  14
HETATM   14  C   UNK N   1      35.941  15.427  10.524  0.00  0.00     0.284 C 
HETATM   15  O   UNK N   1      36.559  16.465  10.712  0.00  0.00    -0.263 OA
BRANCH  14  16
HETATM   16  O   UNK N   1      34.648  15.547  10.130  0.00  0.00    -0.317 OA
BRANCH  16  17
HETATM   17  C   UNK N   1      34.186  15.944   8.903  0.00  0.00     0.214 C 
BRANCH  17  18
HETATM   18  C   UNK N   1      33.751  17.407   8.984  0.00  0.00     0.201 C 
BRANCH  18  19
HETATM   19  C   UNK N   1      34.544  18.306   8.066  0.00  0.00     0.198 C 
HETATM   20  O   UNK N   1      34.475  18.148   6.858  0.00  0.00    -0.646 OA
HETATM   21  O   UNK N   1      35.321  19.291   8.560  0.00  0.00    -0.646 OA
ENDBRANCH  18  19
BRANCH  18  22
HETATM   22  N   UNK N   1      32.342  17.498   8.647  0.00  0.00    -0.416 N 
HETATM   23  H   UNK N   1      31.641  17.948   9.236  0.00  0.00     0.150 HD
HETATM   24  H   UNK N   1      32.033  17.087   7.766  0.00  0.00     0.150 HD
ENDBRANCH  18  22
ENDBRANCH  17  18
ENDBRANCH  16  17
ENDBRANCH  14  16
ENDBRANCH   1  14
BRANCH   1  25
HETATM   25  N   UNK N   1      36.492  13.733  12.127  0.00  0.00    -0.354 N 
HETATM   26  C   UNK N   1      35.356  13.433  12.664  0.00  0.00     0.152 C 
ATOM     27  HN  UNK N   1      37.317  13.716  12.727  1.00  0.00     0.162 HD
BRANCH  26  28
HETATM   28  C   UNK N   1      35.295  12.887  14.042  0.00  0.00     0.081 A 
HETATM   29  C   UNK N   1      36.028  13.554  15.058  0.00  0.00     0.085 A 
HETATM   30  C   UNK N   1      36.076  13.009  16.350  0.00  0.00     0.038 A 
HETATM   31  C   UNK N   1      35.420  11.820  16.645  0.00  0.00     0.005 A 
HETATM   32  C   UNK N   1      34.699  11.160  15.655  0.00  0.00     0.038 A 
HETATM   33  C   UNK N   1      34.613  11.671  14.357  0.00  0.00     0.085 A 
BRANCH  29  34
HETATM   34  O   UNK N   1      36.728  14.677  14.759  0.00  0.00    -0.355 OA
HETATM   35  C   UNK N   1      37.326  15.477  15.706  0.00  0.00     0.210 C 
ENDBRANCH  29  34
BRANCH  33  36
HETATM   36  O   UNK N   1      33.842  10.973  13.479  0.00  0.00    -0.355 OA
HETATM   37  C   UNK N   1      34.271   9.933  12.688  0.00  0.00     0.210 C 
ENDBRANCH  33  36
ENDBRANCH  26  28
BRANCH  26  38
HETATM   38  O   UNK N   1      34.210  13.532  11.960  0.00  0.00    -0.346 OA
ATOM     39  HO  UNK N   1      34.229  13.328  11.033  1.00  0.00     0.219 HD
ENDBRANCH  26  38
ENDBRANCH   1  25
TORSDOF 14
ENDMDL
MODEL 5
REMARK VINA RESULT:      -6.5      3.504      6.850
REMARK  14 active torsions:
REMARK  status: ('A' for Active; 'I' for Inactive)
REMARK    1  A    between atoms: C_9  and  C_8 
REMARK    2  A    between atoms: O_34  and  C_8 
REMARK    3  A    between atoms: C_17  and  C_9 
REMARK    4  A    between atoms: C_9  and  N_21 
REMARK    5  A    between atoms: O_32  and  C_10 
REMARK    6  A    between atoms: O_33  and  C_11 
REMARK    7  A    between atoms: C_15  and  C_12 
REMARK    8  A    between atoms: C_16  and  C_13 
REMARK    9  A    between atoms: C_19  and  C_13 
REMARK   10  A    between atoms: C_13  and  N_22 
REMARK   11  A    between atoms: C_14  and  C_18 
REMARK   12  A    between atoms: C_15  and  O_25 
REMARK   13  A    between atoms: O_30  and  C_18 
REMARK   14  A    between atoms: O_34  and  C_19 
ROOT
HETATM    1  C   UNK N   1      22.873  16.482   5.698  0.00  0.00     0.216 C 
ENDROOT
BRANCH   1   2
HETATM    2  C   UNK N   1      22.947  15.559   6.957  0.00  0.00     0.173 C 
HETATM    3  N   UNK N   1      21.766  15.747   7.800  0.00  0.00    -0.392 N 
HETATM    4  C   UNK N   1      20.794  14.650   7.676  0.00  0.00     0.194 C 
HETATM    5  H   UNK N   1      21.630  16.554   8.409  0.00  0.00     0.155 HD
HETATM    6  C   UNK N   1      21.314  13.599   6.660  0.00  0.00     0.033 C 
HETATM    7  C   UNK N   1      20.927  12.156   6.949  0.00  0.00     0.029 C 
HETATM    8  C   UNK N   1      20.768  13.890   5.278  0.00  0.00     0.029 C 
HETATM    9  S   UNK N   1      23.103  13.772   6.595  0.00  0.00    -0.130 SA
BRANCH   4  10
HETATM   10  C   UNK N   1      20.458  14.191   9.082  0.00  0.00     0.164 C 
HETATM   11  O   UNK N   1      19.302  14.270   9.468  0.00  0.00    -0.648 OA
BRANCH  10  12
HETATM   12  O   UNK N   1      21.386  13.676   9.910  0.00  0.00    -0.775 OA
HETATM   13  H   UNK N   1      21.528  13.850  10.819  0.00  0.00     0.167 HD
ENDBRANCH  10  12
ENDBRANCH   4  10
ENDBRANCH   1   2
BRANCH   1  14
HETATM   14  C   UNK N   1      21.696  17.475   5.734  0.00  0.00     0.284 C 
HETATM   15  O   UNK N   1      21.728  18.380   6.556  0.00  0.00    -0.263 OA
BRANCH  14  16
HETATM   16  O   UNK N   1      20.625  17.443   4.903  0.00  0.00    -0.317 OA
BRANCH  16  17
HETATM   17  C   UNK N   1      20.635  17.402   3.533  0.00  0.00     0.214 C 
BRANCH  17  18
HETATM   18  C   UNK N   1      19.619  18.411   2.997  0.00  0.00     0.201 C 
BRANCH  18  19
HETATM   19  C   UNK N   1      20.206  19.789   2.806  0.00  0.00     0.198 C 
HETATM   20  O   UNK N   1      20.519  20.162   1.688  0.00  0.00    -0.646 OA
HETATM   21  O   UNK N   1      20.382  20.619   3.854  0.00  0.00    -0.646 OA
ENDBRANCH  18  19
BRANCH  18  22
HETATM   22  N   UNK N   1      19.100  17.929   1.730  0.00  0.00    -0.416 N 
HETATM   23  H   UNK N   1      19.056  18.490   0.880  0.00  0.00     0.150 HD
HETATM   24  H   UNK N   1      18.759  16.969   1.688  0.00  0.00     0.150 HD
ENDBRANCH  18  22
ENDBRANCH  17  18
ENDBRANCH  16  17
ENDBRANCH  14  16
ENDBRANCH   1  14
BRANCH   1  25
HETATM   25  N   UNK N   1      24.081  17.294   5.576  0.00  0.00    -0.354 N 
HETATM   26  C   UNK N   1      24.899  17.254   4.578  0.00  0.00     0.152 C 
ATOM     27  HN  UNK N   1      24.293  17.942   6.334  1.00  0.00     0.162 HD
BRANCH  26  28
HETATM   28  C   UNK N   1      25.983  18.259   4.451  0.00  0.00     0.081 A 
HETATM   29  C   UNK N   1      27.143  18.094   5.251  0.00  0.00     0.085 A 
HETATM   30  C   UNK N   1      28.144  19.079   5.233  0.00  0.00     0.038 A 
HETATM   31  C   UNK N   1      28.008  20.216   4.447  0.00  0.00     0.005 A 
HETATM   32  C   UNK N   1      26.874  20.385   3.659  0.00  0.00     0.038 A 
HETATM   33  C   UNK N   1      25.857  19.426   3.635  0.00  0.00     0.085 A 
BRANCH  29  34
HETATM   34  O   UNK N   1      27.250  17.021   6.073  0.00  0.00    -0.355 OA
HETATM   35  C   UNK N   1      27.965  17.030   7.249  0.00  0.00     0.210 C 
ENDBRANCH  29  34
BRANCH  33  36
HETATM   36  O   UNK N   1      24.815  19.667   2.794  0.00  0.00    -0.355 OA
HETATM   37  C   UNK N   1      23.878  20.662   2.943  0.00  0.00     0.210 C 
ENDBRANCH  33  36
ENDBRANCH  26  28
BRANCH  26  38
HETATM   38  O   UNK N   1      24.741  16.352   3.588  0.00  0.00    -0.346 OA
ATOM     39  HO  UNK N   1      24.084  16.520   2.923  1.00  0.00     0.219 HD
ENDBRANCH  26  38
ENDBRANCH   1  25
TORSDOF 14
ENDMDL
MODEL 6
REMARK VINA RESULT:      -6.4      3.565      6.676
REMARK  14 active torsions:
REMARK  status: ('A' for Active; 'I' for Inactive)
REMARK    1  A    between atoms: C_9  and  C_8 
REMARK    2  A    between atoms: O_34  and  C_8 
REMARK    3  A    between atoms: C_17  and  C_9 
REMARK    4  A    between atoms: C_9  and  N_21 
REMARK    5  A    between atoms: O_32  and  C_10 
REMARK    6  A    between atoms: O_33  and  C_11 
REMARK    7  A    between atoms: C_15  and  C_12 
REMARK    8  A    between atoms: C_16  and  C_13 
REMARK    9  A    between atoms: C_19  and  C_13 
REMARK   10  A    between atoms: C_13  and  N_22 
REMARK   11  A    between atoms: C_14  and  C_18 
REMARK   12  A    between atoms: C_15  and  O_25 
REMARK   13  A    between atoms: O_30  and  C_18 
REMARK   14  A    between atoms: O_34  and  C_19 
ROOT
HETATM    1  C   UNK N   1      22.651  16.700   5.620  0.00  0.00     0.216 C 
ENDROOT
BRANCH   1   2
HETATM    2  C   UNK N   1      22.551  15.601   6.727  0.00  0.00     0.173 C 
HETATM    3  N   UNK N   1      21.368  14.767   6.517  0.00  0.00    -0.392 N 
HETATM    4  C   UNK N   1      21.691  13.449   5.948  0.00  0.00     0.194 C 
HETATM    5  H   UNK N   1      20.419  15.066   6.741  0.00  0.00     0.155 HD
HETATM    6  C   UNK N   1      23.222  13.334   5.725  0.00  0.00     0.033 C 
HETATM    7  C   UNK N   1      23.809  11.942   5.902  0.00  0.00     0.029 C 
HETATM    8  C   UNK N   1      23.579  13.742   4.311  0.00  0.00     0.029 C 
HETATM    9  S   UNK N   1      24.005  14.497   6.851  0.00  0.00    -0.130 SA
BRANCH   4  10
HETATM   10  C   UNK N   1      21.006  12.410   6.814  0.00  0.00     0.164 C 
HETATM   11  O   UNK N   1      21.003  12.559   8.026  0.00  0.00    -0.648 OA
BRANCH  10  12
HETATM   12  O   UNK N   1      20.377  11.341   6.289  0.00  0.00    -0.775 OA
HETATM   13  H   UNK N   1      19.858  10.692   6.720  0.00  0.00     0.167 HD
ENDBRANCH  10  12
ENDBRANCH   4  10
ENDBRANCH   1   2
BRANCH   1  14
HETATM   14  C   UNK N   1      21.627  17.838   5.793  0.00  0.00     0.284 C 
HETATM   15  O   UNK N   1      21.160  18.032   6.907  0.00  0.00    -0.263 OA
BRANCH  14  16
HETATM   16  O   UNK N   1      21.213  18.669   4.804  0.00  0.00    -0.317 OA
BRANCH  16  17
HETATM   17  C   UNK N   1      21.032  18.363   3.481  0.00  0.00     0.214 C 
BRANCH  17  18
HETATM   18  C   UNK N   1      20.062  19.371   2.864  0.00  0.00     0.201 C 
BRANCH  18  19
HETATM   19  C   UNK N   1      20.662  20.127   1.703  0.00  0.00     0.198 C 
HETATM   20  O   UNK N   1      20.830  19.561   0.636  0.00  0.00    -0.646 OA
HETATM   21  O   UNK N   1      21.007  21.425   1.824  0.00  0.00    -0.646 OA
ENDBRANCH  18  19
BRANCH  18  22
HETATM   22  N   UNK N   1      18.873  18.668   2.418  0.00  0.00    -0.416 N 
HETATM   23  H   UNK N   1      18.149  18.316   3.044  0.00  0.00     0.150 HD
HETATM   24  H   UNK N   1      18.755  18.518   1.416  0.00  0.00     0.150 HD
ENDBRANCH  18  22
ENDBRANCH  17  18
ENDBRANCH  16  17
ENDBRANCH  14  16
ENDBRANCH   1  14
BRANCH   1  25
HETATM   25  N   UNK N   1      23.965  17.336   5.634  0.00  0.00    -0.354 N 
HETATM   26  C   UNK N   1      24.740  17.451   4.607  0.00  0.00     0.152 C 
ATOM     27  HN  UNK N   1      24.295  17.720   6.519  1.00  0.00     0.162 HD
BRANCH  26  28
HETATM   28  C   UNK N   1      25.961  18.290   4.675  0.00  0.00     0.081 A 
HETATM   29  C   UNK N   1      26.073  19.381   3.775  0.00  0.00     0.085 A 
HETATM   30  C   UNK N   1      27.257  20.135   3.741  0.00  0.00     0.038 A 
HETATM   31  C   UNK N   1      28.323  19.821   4.575  0.00  0.00     0.005 A 
HETATM   32  C   UNK N   1      28.221  18.754   5.462  0.00  0.00     0.038 A 
HETATM   33  C   UNK N   1      27.058  17.982   5.539  0.00  0.00     0.085 A 
BRANCH  29  34
HETATM   34  O   UNK N   1      25.063  19.649   2.909  0.00  0.00    -0.355 OA
HETATM   35  C   UNK N   1      24.155  20.667   3.090  0.00  0.00     0.210 C 
ENDBRANCH  29  34
BRANCH  33  36
HETATM   36  O   UNK N   1      27.045  16.994   6.474  0.00  0.00    -0.355 OA
HETATM   37  C   UNK N   1      27.804  16.966   7.620  0.00  0.00     0.210 C 
ENDBRANCH  33  36
ENDBRANCH  26  28
BRANCH  26  38
HETATM   38  O   UNK N   1      24.417  16.880   3.429  0.00  0.00    -0.346 OA
ATOM     39  HO  UNK N   1      24.955  16.165   3.110  1.00  0.00     0.219 HD
ENDBRANCH  26  38
ENDBRANCH   1  25
TORSDOF 14
ENDMDL
MODEL 7
REMARK VINA RESULT:      -6.4      2.774      5.050
REMARK  14 active torsions:
REMARK  status: ('A' for Active; 'I' for Inactive)
REMARK    1  A    between atoms: C_9  and  C_8 
REMARK    2  A    between atoms: O_34  and  C_8 
REMARK    3  A    between atoms: C_17  and  C_9 
REMARK    4  A    between atoms: C_9  and  N_21 
REMARK    5  A    between atoms: O_32  and  C_10 
REMARK    6  A    between atoms: O_33  and  C_11 
REMARK    7  A    between atoms: C_15  and  C_12 
REMARK    8  A    between atoms: C_16  and  C_13 
REMARK    9  A    between atoms: C_19  and  C_13 
REMARK   10  A    between atoms: C_13  and  N_22 
REMARK   11  A    between atoms: C_14  and  C_18 
REMARK   12  A    between atoms: C_15  and  O_25 
REMARK   13  A    between atoms: O_30  and  C_18 
REMARK   14  A    between atoms: O_34  and  C_19 
ROOT
HETATM    1  C   UNK N   1      22.468  15.533   4.749  0.00  0.00     0.216 C 
ENDROOT
BRANCH   1   2
HETATM    2  C   UNK N   1      21.116  16.097   4.205  0.00  0.00     0.173 C 
HETATM    3  N   UNK N   1      21.341  16.889   2.995  0.00  0.00    -0.392 N 
HETATM    4  C   UNK N   1      20.956  16.176   1.767  0.00  0.00     0.194 C 
HETATM    5  H   UNK N   1      21.723  17.834   3.001  0.00  0.00     0.155 HD
HETATM    6  C   UNK N   1      20.423  14.763   2.123  0.00  0.00     0.033 C 
HETATM    7  C   UNK N   1      19.331  14.222   1.212  0.00  0.00     0.029 C 
HETATM    8  C   UNK N   1      21.544  13.746   2.050  0.00  0.00     0.029 C 
HETATM    9  S   UNK N   1      19.849  14.833   3.826  0.00  0.00    -0.130 SA
BRANCH   4  10
HETATM   10  C   UNK N   1      20.060  17.107   0.973  0.00  0.00     0.164 C 
HETATM   11  O   UNK N   1      20.317  17.314  -0.203  0.00  0.00    -0.648 OA
BRANCH  10  12
HETATM   12  O   UNK N   1      18.975  17.693   1.514  0.00  0.00    -0.775 OA
HETATM   13  H   UNK N   1      18.212  17.295   1.883  0.00  0.00     0.167 HD
ENDBRANCH  10  12
ENDBRANCH   4  10
ENDBRANCH   1   2
BRANCH   1  14
HETATM   14  C   UNK N   1      23.536  16.619   4.981  0.00  0.00     0.284 C 
HETATM   15  O   UNK N   1      24.694  16.265   5.153  0.00  0.00    -0.263 OA
BRANCH  14  16
HETATM   16  O   UNK N   1      23.298  17.955   4.988  0.00  0.00    -0.317 OA
BRANCH  16  17
HETATM   17  C   UNK N   1      24.221  18.964   4.902  0.00  0.00     0.214 C 
BRANCH  17  18
HETATM   18  C   UNK N   1      24.734  19.048   3.464  0.00  0.00     0.201 C 
BRANCH  18  19
HETATM   19  C   UNK N   1      24.638  20.440   2.887  0.00  0.00     0.198 C 
HETATM   20  O   UNK N   1      23.609  21.082   3.026  0.00  0.00    -0.646 OA
HETATM   21  O   UNK N   1      25.677  20.992   2.228  0.00  0.00    -0.646 OA
ENDBRANCH  18  19
BRANCH  18  22
HETATM   22  N   UNK N   1      26.117  18.609   3.432  0.00  0.00    -0.416 N 
HETATM   23  H   UNK N   1      26.406  17.635   3.344  0.00  0.00     0.150 HD
HETATM   24  H   UNK N   1      26.846  19.320   3.501  0.00  0.00     0.150 HD
ENDBRANCH  18  22
ENDBRANCH  17  18
ENDBRANCH  16  17
ENDBRANCH  14  16
ENDBRANCH   1  14
BRANCH   1  25
HETATM   25  N   UNK N   1      22.277  14.875   6.038  0.00  0.00    -0.354 N 
HETATM   26  C   UNK N   1      21.881  15.467   7.116  0.00  0.00     0.152 C 
ATOM     27  HN  UNK N   1      22.470  13.875   6.093  1.00  0.00     0.162 HD
BRANCH  26  28
HETATM   28  C   UNK N   1      21.523  14.677   8.320  0.00  0.00     0.081 A 
HETATM   29  C   UNK N   1      22.486  13.770   8.834  0.00  0.00     0.085 A 
HETATM   30  C   UNK N   1      22.147  12.934   9.909  0.00  0.00     0.038 A 
HETATM   31  C   UNK N   1      20.877  12.979  10.472  0.00  0.00     0.005 A 
HETATM   32  C   UNK N   1      19.928  13.866   9.975  0.00  0.00     0.038 A 
HETATM   33  C   UNK N   1      20.224  14.726   8.913  0.00  0.00     0.085 A 
BRANCH  29  34
HETATM   34  O   UNK N   1      23.703  13.672   8.244  0.00  0.00    -0.355 OA
HETATM   35  C   UNK N   1      24.853  13.332   8.921  0.00  0.00     0.210 C 
ENDBRANCH  29  34
BRANCH  33  36
HETATM   36  O   UNK N   1      19.240  15.588   8.537  0.00  0.00    -0.355 OA
HETATM   37  C   UNK N   1      18.938  16.778   9.156  0.00  0.00     0.210 C 
ENDBRANCH  33  36
ENDBRANCH  26  28
BRANCH  26  38
HETATM   38  O   UNK N   1      21.705  16.803   7.148  0.00  0.00    -0.346 OA
ATOM     39  HO  UNK N   1      21.925  17.307   6.374  1.00  0.00     0.219 HD
ENDBRANCH  26  38
ENDBRANCH   1  25
TORSDOF 14
ENDMDL
MODEL 8
REMARK VINA RESULT:      -6.4      2.462      3.669
REMARK  14 active torsions:
REMARK  status: ('A' for Active; 'I' for Inactive)
REMARK    1  A    between atoms: C_9  and  C_8 
REMARK    2  A    between atoms: O_34  and  C_8 
REMARK    3  A    between atoms: C_17  and  C_9 
REMARK    4  A    between atoms: C_9  and  N_21 
REMARK    5  A    between atoms: O_32  and  C_10 
REMARK    6  A    between atoms: O_33  and  C_11 
REMARK    7  A    between atoms: C_15  and  C_12 
REMARK    8  A    between atoms: C_16  and  C_13 
REMARK    9  A    between atoms: C_19  and  C_13 
REMARK   10  A    between atoms: C_13  and  N_22 
REMARK   11  A    between atoms: C_14  and  C_18 
REMARK   12  A    between atoms: C_15  and  O_25 
REMARK   13  A    between atoms: O_30  and  C_18 
REMARK   14  A    between atoms: O_34  and  C_19 
ROOT
HETATM    1  C   UNK N   1      20.474  14.428   4.920  0.00  0.00     0.216 C 
ENDROOT
BRANCH   1   2
HETATM    2  C   UNK N   1      19.747  13.537   3.862  0.00  0.00     0.173 C 
HETATM    3  N   UNK N   1      19.013  14.371   2.908  0.00  0.00    -0.392 N 
HETATM    4  C   UNK N   1      19.691  14.481   1.607  0.00  0.00     0.194 C 
HETATM    5  H   UNK N   1      18.126  14.826   3.122  0.00  0.00     0.155 HD
HETATM    6  C   UNK N   1      21.015  13.673   1.633  0.00  0.00     0.033 C 
HETATM    7  C   UNK N   1      21.423  13.037   0.313  0.00  0.00     0.029 C 
HETATM    8  C   UNK N   1      22.171  14.573   2.018  0.00  0.00     0.029 C 
HETATM    9  S   UNK N   1      20.840  12.420   2.911  0.00  0.00    -0.130 SA
BRANCH   4  10
HETATM   10  C   UNK N   1      18.664  14.153   0.541  0.00  0.00     0.164 C 
HETATM   11  O   UNK N   1      18.262  13.003   0.442  0.00  0.00    -0.648 OA
BRANCH  10  12
HETATM   12  O   UNK N   1      18.161  15.090  -0.284  0.00  0.00    -0.775 OA
HETATM   13  H   UNK N   1      18.431  15.319  -1.152  0.00  0.00     0.167 HD
ENDBRANCH  10  12
ENDBRANCH   4  10
ENDBRANCH   1   2
BRANCH   1  14
HETATM   14  C   UNK N   1      19.721  15.732   5.246  0.00  0.00     0.284 C 
HETATM   15  O   UNK N   1      18.640  15.650   5.813  0.00  0.00    -0.263 OA
BRANCH  14  16
HETATM   16  O   UNK N   1      20.174  16.981   4.972  0.00  0.00    -0.317 OA
BRANCH  16  17
HETATM   17  C   UNK N   1      20.660  17.447   3.778  0.00  0.00     0.214 C 
BRANCH  17  18
HETATM   18  C   UNK N   1      19.693  18.493   3.221  0.00  0.00     0.201 C 
BRANCH  18  19
HETATM   19  C   UNK N   1      20.356  19.824   2.963  0.00  0.00     0.198 C 
HETATM   20  O   UNK N   1      20.308  20.698   3.813  0.00  0.00    -0.646 OA
HETATM   21  O   UNK N   1      21.013  20.060   1.809  0.00  0.00    -0.646 OA
ENDBRANCH  18  19
BRANCH  18  22
HETATM   22  N   UNK N   1      19.121  17.993   1.985  0.00  0.00    -0.416 N 
HETATM   23  H   UNK N   1      19.364  17.096   1.564  0.00  0.00     0.150 HD
HETATM   24  H   UNK N   1      18.432  18.574   1.507  0.00  0.00     0.150 HD
ENDBRANCH  18  22
ENDBRANCH  17  18
ENDBRANCH  16  17
ENDBRANCH  14  16
ENDBRANCH   1  14
BRANCH   1  25
HETATM   25  N   UNK N   1      20.615  13.719   6.189  0.00  0.00    -0.354 N 
HETATM   26  C   UNK N   1      21.728  13.561   6.826  0.00  0.00     0.152 C 
ATOM     27  HN  UNK N   1      19.774  13.319   6.604  1.00  0.00     0.162 HD
BRANCH  26  28
HETATM   28  C   UNK N   1      21.736  13.005   8.201  0.00  0.00     0.081 A 
HETATM   29  C   UNK N   1      20.779  13.498   9.126  0.00  0.00     0.085 A 
HETATM   30  C   UNK N   1      20.821  13.070  10.463  0.00  0.00     0.038 A 
HETATM   31  C   UNK N   1      21.793  12.175  10.892  0.00  0.00     0.005 A 
HETATM   32  C   UNK N   1      22.735  11.687   9.992  0.00  0.00     0.038 A 
HETATM   33  C   UNK N   1      22.725  12.075   8.649  0.00  0.00     0.085 A 
BRANCH  29  34
HETATM   34  O   UNK N   1      19.871  14.424   8.730  0.00  0.00    -0.355 OA
HETATM   35  C   UNK N   1      19.940  15.755   9.076  0.00  0.00     0.210 C 
ENDBRANCH  29  34
BRANCH  33  36
HETATM   36  O   UNK N   1      23.659  11.501   7.843  0.00  0.00    -0.355 OA
HETATM   37  C   UNK N   1      23.667  10.187   7.437  0.00  0.00     0.210 C 
ENDBRANCH  33  36
ENDBRANCH  26  28
BRANCH  26  38
HETATM   38  O   UNK N   1      22.896  13.971   6.291  0.00  0.00    -0.346 OA
ATOM     39  HO  UNK N   1      23.479  14.496   6.827  1.00  0.00     0.219 HD
ENDBRANCH  26  38
ENDBRANCH   1  25
TORSDOF 14
ENDMDL
MODEL 9
REMARK VINA RESULT:      -6.4      2.421      4.105
REMARK  14 active torsions:
REMARK  status: ('A' for Active; 'I' for Inactive)
REMARK    1  A    between atoms: C_9  and  C_8 
REMARK    2  A    between atoms: O_34  and  C_8 
REMARK    3  A    between atoms: C_17  and  C_9 
REMARK    4  A    between atoms: C_9  and  N_21 
REMARK    5  A    between atoms: O_32  and  C_10 
REMARK    6  A    between atoms: O_33  and  C_11 
REMARK    7  A    between atoms: C_15  and  C_12 
REMARK    8  A    between atoms: C_16  and  C_13 
REMARK    9  A    between atoms: C_19  and  C_13 
REMARK   10  A    between atoms: C_13  and  N_22 
REMARK   11  A    between atoms: C_14  and  C_18 
REMARK   12  A    between atoms: C_15  and  O_25 
REMARK   13  A    between atoms: O_30  and  C_18 
REMARK   14  A    between atoms: O_34  and  C_19 
ROOT
HETATM    1  C   UNK N   1      20.597  14.465   4.895  0.00  0.00     0.216 C 
ENDROOT
BRANCH   1   2
HETATM    2  C   UNK N   1      19.690  13.615   3.948  0.00  0.00     0.173 C 
HETATM    3  N   UNK N   1      18.989  14.480   2.997  0.00  0.00    -0.392 N 
HETATM    4  C   UNK N   1      19.574  14.436   1.648  0.00  0.00     0.194 C 
HETATM    5  H   UNK N   1      18.181  15.051   3.244  0.00  0.00     0.155 HD
HETATM    6  C   UNK N   1      20.791  13.475   1.632  0.00  0.00     0.033 C 
HETATM    7  C   UNK N   1      21.019  12.723   0.329  0.00  0.00     0.029 C 
HETATM    8  C   UNK N   1      22.071  14.245   1.878  0.00  0.00     0.029 C 
HETATM    9  S   UNK N   1      20.568  12.323   2.995  0.00  0.00    -0.130 SA
BRANCH   4  10
HETATM   10  C   UNK N   1      18.436  14.179   0.678  0.00  0.00     0.164 C 
HETATM   11  O   UNK N   1      17.756  13.175   0.819  0.00  0.00    -0.648 OA
BRANCH  10  12
HETATM   12  O   UNK N   1      18.135  15.034  -0.317  0.00  0.00    -0.775 OA
HETATM   13  H   UNK N   1      18.644  15.268  -1.068  0.00  0.00     0.167 HD
ENDBRANCH  10  12
ENDBRANCH   4  10
ENDBRANCH   1   2
BRANCH   1  14
HETATM   14  C   UNK N   1      20.066  15.892   5.134  0.00  0.00     0.284 C 
HETATM   15  O   UNK N   1      18.994  16.021   5.709  0.00  0.00    -0.263 OA
BRANCH  14  16
HETATM   16  O   UNK N   1      20.708  17.031   4.775  0.00  0.00    -0.317 OA
BRANCH  16  17
HETATM   17  C   UNK N   1      20.946  17.488   3.505  0.00  0.00     0.214 C 
BRANCH  17  18
HETATM   18  C   UNK N   1      19.833  18.459   3.108  0.00  0.00     0.201 C 
BRANCH  18  19
HETATM   19  C   UNK N   1      20.336  19.863   2.877  0.00  0.00     0.198 C 
HETATM   20  O   UNK N   1      20.341  20.663   3.798  0.00  0.00    -0.646 OA
HETATM   21  O   UNK N   1      20.792  20.246   1.666  0.00  0.00    -0.646 OA
ENDBRANCH  18  19
BRANCH  18  22
HETATM   22  N   UNK N   1      19.193  17.972   1.901  0.00  0.00    -0.416 N 
HETATM   23  H   UNK N   1      19.080  18.524   1.051  0.00  0.00     0.150 HD
HETATM   24  H   UNK N   1      18.833  17.017   1.902  0.00  0.00     0.150 HD
ENDBRANCH  18  22
ENDBRANCH  17  18
ENDBRANCH  16  17
ENDBRANCH  14  16
ENDBRANCH   1  14
BRANCH   1  25
HETATM   25  N   UNK N   1      20.695  13.848   6.215  0.00  0.00    -0.354 N 
HETATM   26  C   UNK N   1      21.792  13.701   6.881  0.00  0.00     0.152 C 
ATOM     27  HN  UNK N   1      19.834  13.508   6.644  1.00  0.00     0.162 HD
BRANCH  26  28
HETATM   28  C   UNK N   1      21.761  13.248   8.293  0.00  0.00     0.081 A 
HETATM   29  C   UNK N   1      22.746  12.320   8.719  0.00  0.00     0.085 A 
HETATM   30  C   UNK N   1      22.687  11.792  10.018  0.00  0.00     0.038 A 
HETATM   31  C   UNK N   1      21.671  12.163  10.890  0.00  0.00     0.005 A 
HETATM   32  C   UNK N   1      20.702  13.074  10.482  0.00  0.00     0.038 A 
HETATM   33  C   UNK N   1      20.727  13.634   9.201  0.00  0.00     0.085 A 
BRANCH  29  34
HETATM   34  O   UNK N   1      23.699  11.901   7.849  0.00  0.00    -0.355 OA
HETATM   35  C   UNK N   1      23.770  10.617   7.357  0.00  0.00     0.210 C 
ENDBRANCH  29  34
BRANCH  33  36
HETATM   36  O   UNK N   1      19.760  14.550   8.921  0.00  0.00    -0.355 OA
HETATM   37  C   UNK N   1      19.890  15.914   9.042  0.00  0.00     0.210 C 
ENDBRANCH  33  36
ENDBRANCH  26  28
BRANCH  26  38
HETATM   38  O   UNK N   1      22.981  14.031   6.337  0.00  0.00    -0.346 OA
ATOM     39  HO  UNK N   1      23.230  13.627   5.514  1.00  0.00     0.219 HD
ENDBRANCH  26  38
ENDBRANCH   1  25
TORSDOF 14
ENDMDL
