MODEL 1
REMARK VINA RESULT:      -6.7      0.000      0.000
REMARK  9 active torsions:
REMARK  status: ('A' for Active; 'I' for Inactive)
REMARK    1  A    between atoms: C_5  and  C_3 
REMARK    2  A    between atoms: O_18  and  C_3 
REMARK    3  A    between atoms: C_6  and  C_4 
REMARK    4  A    between atoms: O_19  and  C_4 
REMARK    5  A    between atoms: C_7  and  O_20 
REMARK    6  A    between atoms: C_8  and  O_21 
REMARK    7  A    between atoms: C_11  and  O_24 
REMARK    8  A    between atoms: C_12  and  O_26 
REMARK    9  A    between atoms: C_14  and  O_26 
ROOT
HETATM    1  C   UNK N   1      35.168  15.818  10.721  0.00  0.00     0.106 A 
HETATM    2  C   UNK N   1      34.697  14.992   9.706  0.00  0.00     0.110 A 
HETATM    3  C   UNK N   1      33.606  15.492   7.435  0.00  0.00     0.146 C 
HETATM    4  C   UNK N   1      32.446  17.773   7.997  0.00  0.00     0.185 C 
HETATM    5  C   UNK N   1      33.892  18.187   8.336  0.00  0.00     0.217 C 
HETATM    6  C   UNK N   1      32.351  16.422   7.174  0.00  0.00     0.181 C 
HETATM    7  C   UNK N   1      34.425  17.044   9.133  0.00  0.00     0.115 A 
HETATM    8  N   UNK N   1      34.977  17.108  10.358  0.00  0.00    -0.352 N 
ATOM      9  HN  UNK N   1      35.201  17.944  10.896  1.00  0.00     0.166 HD
HETATM   10  N   UNK N   1      34.237  15.788   8.727  0.00  0.00    -0.334 N 
HETATM   11  O   UNK N   1      31.751  17.625   9.207  0.00  0.00    -0.390 OA
HETATM   12  O   UNK N   1      34.632  18.353   7.162  0.00  0.00    -0.385 OA
HETATM   13  H   UNK N   1      31.205  17.591  10.007  0.00  0.00     0.210 HD
HETATM   14  H   UNK N   1      35.184  18.429   6.368  0.00  0.00     0.210 HD
ENDROOT
BRANCH   6  15
HETATM   15  O   UNK N   1      31.148  15.722   7.472  0.00  0.00    -0.348 OA
BRANCH  15  16
HETATM   16  C   UNK N   1      29.970  16.211   6.829  0.00  0.00     0.292 C 
HETATM   17  C   UNK N   1      30.181  16.809   5.396  0.00  0.00     0.204 C 
HETATM   18  C   UNK N   1      28.785  17.243   4.923  0.00  0.00     0.183 C 
HETATM   19  C   UNK N   1      28.210  18.327   5.862  0.00  0.00     0.180 C 
HETATM   20  C   UNK N   1      28.908  18.294   7.249  0.00  0.00     0.179 C 
HETATM   21  O   UNK N   1      29.130  16.971   7.706  0.00  0.00    -0.348 OA
BRANCH  17  22
HETATM   22  O   UNK N   1      30.705  15.835   4.542  0.00  0.00    -0.388 OA
HETATM   23  H   UNK N   1      31.661  15.793   4.381  0.00  0.00     0.210 HD
ENDBRANCH  17  22
BRANCH  18  24
HETATM   24  O   UNK N   1      28.792  17.699   3.602  0.00  0.00    -0.390 OA
HETATM   25  H   UNK N   1      28.839  18.587   3.214  0.00  0.00     0.210 HD
ENDBRANCH  18  24
BRANCH  19  26
HETATM   26  O   UNK N   1      26.829  18.144   5.975  0.00  0.00    -0.390 OA
HETATM   27  H   UNK N   1      26.027  18.218   5.434  0.00  0.00     0.210 HD
ENDBRANCH  19  26
BRANCH  20  28
HETATM   28  C   UNK N   1      28.123  19.065   8.308  0.00  0.00     0.198 C 
BRANCH  28  29
HETATM   29  O   UNK N   1      27.433  18.193   9.153  0.00  0.00    -0.398 OA
HETATM   30  H   UNK N   1      26.839  17.430   9.070  0.00  0.00     0.209 HD
ENDBRANCH  28  29
ENDBRANCH  20  28
ENDBRANCH  15  16
ENDBRANCH   6  15
BRANCH   3  31
HETATM   31  C   UNK N   1      33.383  13.996   7.195  0.00  0.00     0.192 C 
BRANCH  31  32
HETATM   32  O   UNK N   1      32.591  13.784   6.064  0.00  0.00    -0.399 OA
HETATM   33  H   UNK N   1      32.170  13.849   5.192  0.00  0.00     0.209 HD
ENDBRANCH  31  32
ENDBRANCH   3  31
TORSDOF 9
ENDMDL
MODEL 2
REMARK VINA RESULT:      -6.4     12.349     15.615
REMARK  9 active torsions:
REMARK  status: ('A' for Active; 'I' for Inactive)
REMARK    1  A    between atoms: C_5  and  C_3 
REMARK    2  A    between atoms: O_18  and  C_3 
REMARK    3  A    between atoms: C_6  and  C_4 
REMARK    4  A    between atoms: O_19  and  C_4 
REMARK    5  A    between atoms: C_7  and  O_20 
REMARK    6  A    between atoms: C_8  and  O_21 
REMARK    7  A    between atoms: C_11  and  O_24 
REMARK    8  A    between atoms: C_12  and  O_26 
REMARK    9  A    between atoms: C_14  and  O_26 
ROOT
HETATM    1  C   UNK N   1      26.064  28.453  -4.366  0.00  0.00     0.106 A 
HETATM    2  C   UNK N   1      27.340  28.003  -4.689  0.00  0.00     0.110 A 
HETATM    3  C   UNK N   1      28.218  25.727  -5.496  0.00  0.00     0.146 C 
HETATM    4  C   UNK N   1      26.449  24.151  -4.376  0.00  0.00     0.185 C 
HETATM    5  C   UNK N   1      25.470  25.008  -5.204  0.00  0.00     0.217 C 
HETATM    6  C   UNK N   1      27.963  24.321  -4.813  0.00  0.00     0.181 C 
HETATM    7  C   UNK N   1      25.930  26.410  -4.984  0.00  0.00     0.115 A 
HETATM    8  N   UNK N   1      25.186  27.438  -4.538  0.00  0.00    -0.352 N 
ATOM      9  HN  UNK N   1      24.181  27.450  -4.367  1.00  0.00     0.166 HD
HETATM   10  N   UNK N   1      27.224  26.720  -5.071  0.00  0.00    -0.334 N 
HETATM   11  O   UNK N   1      26.313  24.529  -3.032  0.00  0.00    -0.390 OA
HETATM   12  O   UNK N   1      25.560  24.669  -6.557  0.00  0.00    -0.385 OA
HETATM   13  H   UNK N   1      26.199  24.694  -2.084  0.00  0.00     0.210 HD
HETATM   14  H   UNK N   1      25.635  24.489  -7.507  0.00  0.00     0.210 HD
ENDROOT
BRANCH   6  15
HETATM   15  O   UNK N   1      28.841  24.142  -3.708  0.00  0.00    -0.348 OA
BRANCH  15  16
HETATM   16  C   UNK N   1      29.570  22.914  -3.687  0.00  0.00     0.292 C 
HETATM   17  C   UNK N   1      30.866  22.912  -2.806  0.00  0.00     0.204 C 
HETATM   18  C   UNK N   1      31.449  21.497  -2.936  0.00  0.00     0.183 C 
HETATM   19  C   UNK N   1      31.817  21.198  -4.407  0.00  0.00     0.180 C 
HETATM   20  C   UNK N   1      31.043  22.131  -5.378  0.00  0.00     0.179 C 
HETATM   21  O   UNK N   1      29.695  22.316  -4.983  0.00  0.00    -0.348 OA
BRANCH  17  22
HETATM   22  O   UNK N   1      30.541  23.186  -1.474  0.00  0.00    -0.388 OA
HETATM   23  H   UNK N   1      31.223  23.508  -0.864  0.00  0.00     0.210 HD
ENDBRANCH  17  22
BRANCH  18  24
HETATM   24  O   UNK N   1      32.559  21.303  -2.109  0.00  0.00    -0.390 OA
HETATM   25  H   UNK N   1      33.064  20.513  -1.862  0.00  0.00     0.210 HD
ENDBRANCH  18  24
BRANCH  19  26
HETATM   26  O   UNK N   1      31.562  19.850  -4.674  0.00  0.00    -0.390 OA
HETATM   27  H   UNK N   1      30.963  19.141  -4.391  0.00  0.00     0.210 HD
ENDBRANCH  19  26
BRANCH  20  28
HETATM   28  C   UNK N   1      31.077  21.621  -6.818  0.00  0.00     0.198 C 
BRANCH  28  29
HETATM   29  O   UNK N   1      30.063  20.689  -7.043  0.00  0.00    -0.398 OA
HETATM   30  H   UNK N   1      29.271  20.363  -6.587  0.00  0.00     0.209 HD
ENDBRANCH  28  29
ENDBRANCH  20  28
ENDBRANCH  15  16
ENDBRANCH   6  15
BRANCH   3  31
HETATM   31  C   UNK N   1      29.659  26.243  -5.430  0.00  0.00     0.192 C 
BRANCH  31  32
HETATM   32  O   UNK N   1      30.548  25.313  -5.975  0.00  0.00    -0.399 OA
HETATM   33  H   UNK N   1      31.343  24.842  -6.271  0.00  0.00     0.209 HD
ENDBRANCH  31  32
ENDBRANCH   3  31
TORSDOF 9
ENDMDL
MODEL 3
REMARK VINA RESULT:      -6.3      1.683      3.036
REMARK  9 active torsions:
REMARK  status: ('A' for Active; 'I' for Inactive)
REMARK    1  A    between atoms: C_5  and  C_3 
REMARK    2  A    between atoms: O_18  and  C_3 
REMARK    3  A    between atoms: C_6  and  C_4 
REMARK    4  A    between atoms: O_19  and  C_4 
REMARK    5  A    between atoms: C_7  and  O_20 
REMARK    6  A    between atoms: C_8  and  O_21 
REMARK    7  A    between atoms: C_11  and  O_24 
REMARK    8  A    between atoms: C_12  and  O_26 
REMARK    9  A    between atoms: C_14  and  O_26 
ROOT
HETATM    1  C   UNK N   1      36.013  13.784   8.015  0.00  0.00     0.106 A 
HETATM    2  C   UNK N   1      35.367  14.476   6.997  0.00  0.00     0.110 A 
HETATM    3  C   UNK N   1      34.124  16.724   6.952  0.00  0.00     0.146 C 
HETATM    4  C   UNK N   1      33.261  16.800   9.425  0.00  0.00     0.185 C 
HETATM    5  C   UNK N   1      34.768  16.686   9.733  0.00  0.00     0.217 C 
HETATM    6  C   UNK N   1      32.951  17.175   7.917  0.00  0.00     0.181 C 
HETATM    7  C   UNK N   1      35.254  15.618   8.812  0.00  0.00     0.115 A 
HETATM    8  N   UNK N   1      35.921  14.502   9.158  0.00  0.00    -0.352 N 
ATOM      9  HN  UNK N   1      36.280  14.253  10.079  1.00  0.00     0.166 HD
HETATM   10  N   UNK N   1      34.900  15.618   7.527  0.00  0.00    -0.334 N 
HETATM   11  O   UNK N   1      32.672  15.562   9.722  0.00  0.00    -0.390 OA
HETATM   12  O   UNK N   1      35.408  17.898   9.459  0.00  0.00    -0.385 OA
HETATM   13  H   UNK N   1      32.203  14.757   9.990  0.00  0.00     0.210 HD
HETATM   14  H   UNK N   1      35.887  18.710   9.231  0.00  0.00     0.210 HD
ENDROOT
BRANCH   6  15
HETATM   15  O   UNK N   1      31.717  16.611   7.490  0.00  0.00    -0.348 OA
BRANCH  15  16
HETATM   16  C   UNK N   1      30.596  17.496   7.495  0.00  0.00     0.292 C 
HETATM   17  C   UNK N   1      29.502  17.196   8.576  0.00  0.00     0.204 C 
HETATM   18  C   UNK N   1      28.429  18.279   8.386  0.00  0.00     0.183 C 
HETATM   19  C   UNK N   1      27.808  18.182   6.975  0.00  0.00     0.180 C 
HETATM   20  C   UNK N   1      28.751  17.427   5.999  0.00  0.00     0.179 C 
HETATM   21  O   UNK N   1      30.109  17.789   6.179  0.00  0.00    -0.348 OA
BRANCH  17  22
HETATM   22  O   UNK N   1      30.058  17.277   9.856  0.00  0.00    -0.388 OA
HETATM   23  H   UNK N   1      30.657  16.582  10.170  0.00  0.00     0.210 HD
ENDBRANCH  17  22
BRANCH  18  24
HETATM   24  O   UNK N   1      27.431  18.211   9.362  0.00  0.00    -0.390 OA
HETATM   25  H   UNK N   1      26.689  18.795   9.584  0.00  0.00     0.210 HD
ENDBRANCH  18  24
BRANCH  19  26
HETATM   26  O   UNK N   1      27.517  19.471   6.518  0.00  0.00    -0.390 OA
HETATM   27  H   UNK N   1      27.329  20.355   6.871  0.00  0.00     0.210 HD
ENDBRANCH  19  26
BRANCH  20  28
HETATM   28  C   UNK N   1      28.364  17.647   4.538  0.00  0.00     0.198 C 
BRANCH  28  29
HETATM   29  O   UNK N   1      28.759  18.912   4.099  0.00  0.00    -0.398 OA
HETATM   30  H   UNK N   1      29.080  19.740   4.489  0.00  0.00     0.209 HD
ENDBRANCH  28  29
ENDBRANCH  20  28
ENDBRANCH  15  16
ENDBRANCH   6  15
BRANCH   3  31
HETATM   31  C   UNK N   1      33.726  16.492   5.491  0.00  0.00     0.192 C 
BRANCH  31  32
HETATM   32  O   UNK N   1      32.983  17.568   4.998  0.00  0.00    -0.399 OA
HETATM   33  H   UNK N   1      32.295  18.123   4.599  0.00  0.00     0.209 HD
ENDBRANCH  31  32
ENDBRANCH   3  31
TORSDOF 9
ENDMDL
MODEL 4
REMARK VINA RESULT:      -6.3      3.788      5.894
REMARK  9 active torsions:
REMARK  status: ('A' for Active; 'I' for Inactive)
REMARK    1  A    between atoms: C_5  and  C_3 
REMARK    2  A    between atoms: O_18  and  C_3 
REMARK    3  A    between atoms: C_6  and  C_4 
REMARK    4  A    between atoms: O_19  and  C_4 
REMARK    5  A    between atoms: C_7  and  O_20 
REMARK    6  A    between atoms: C_8  and  O_21 
REMARK    7  A    between atoms: C_11  and  O_24 
REMARK    8  A    between atoms: C_12  and  O_26 
REMARK    9  A    between atoms: C_14  and  O_26 
ROOT
HETATM    1  C   UNK N   1      36.309  11.546  13.516  0.00  0.00     0.106 A 
HETATM    2  C   UNK N   1      35.396  11.505  12.467  0.00  0.00     0.110 A 
HETATM    3  C   UNK N   1      35.538  12.271  10.019  0.00  0.00     0.146 C 
HETATM    4  C   UNK N   1      37.249  14.239  10.273  0.00  0.00     0.185 C 
HETATM    5  C   UNK N   1      38.136  13.116  10.847  0.00  0.00     0.217 C 
HETATM    6  C   UNK N   1      35.972  13.703   9.501  0.00  0.00     0.181 C 
HETATM    7  C   UNK N   1      37.234  12.370  11.773  0.00  0.00     0.115 A 
HETATM    8  N   UNK N   1      37.457  12.108  13.073  0.00  0.00    -0.352 N 
ATOM      9  HN  UNK N   1      38.305  12.293  13.608  1.00  0.00     0.166 HD
HETATM   10  N   UNK N   1      36.003  12.030  11.390  0.00  0.00    -0.334 N 
HETATM   11  O   UNK N   1      36.835  15.045  11.343  0.00  0.00    -0.390 OA
HETATM   12  O   UNK N   1      38.583  12.281   9.819  0.00  0.00    -0.385 OA
HETATM   13  H   UNK N   1      36.591  15.679  12.034  0.00  0.00     0.210 HD
HETATM   14  H   UNK N   1      38.868  11.657   9.134  0.00  0.00     0.210 HD
ENDROOT
BRANCH   6  15
HETATM   15  O   UNK N   1      34.886  14.616   9.607  0.00  0.00    -0.348 OA
BRANCH  15  16
HETATM   16  C   UNK N   1      34.867  15.672   8.645  0.00  0.00     0.292 C 
HETATM   17  C   UNK N   1      34.611  17.107   9.220  0.00  0.00     0.204 C 
HETATM   18  C   UNK N   1      34.653  18.049   8.007  0.00  0.00     0.183 C 
HETATM   19  C   UNK N   1      33.539  17.683   7.001  0.00  0.00     0.180 C 
HETATM   20  C   UNK N   1      33.060  16.220   7.204  0.00  0.00     0.179 C 
HETATM   21  O   UNK N   1      34.136  15.334   7.460  0.00  0.00    -0.348 OA
BRANCH  17  22
HETATM   22  O   UNK N   1      35.612  17.443  10.135  0.00  0.00    -0.388 OA
HETATM   23  H   UNK N   1      35.645  17.008  11.002  0.00  0.00     0.210 HD
ENDBRANCH  17  22
BRANCH  18  24
HETATM   24  O   UNK N   1      34.551  19.393   8.377  0.00  0.00    -0.390 OA
HETATM   25  H   UNK N   1      34.265  19.828   9.196  0.00  0.00     0.210 HD
ENDBRANCH  18  24
BRANCH  19  26
HETATM   26  O   UNK N   1      34.012  17.895   5.703  0.00  0.00    -0.390 OA
HETATM   27  H   UNK N   1      34.635  17.504   5.070  0.00  0.00     0.210 HD
ENDBRANCH  19  26
BRANCH  20  28
HETATM   28  C   UNK N   1      32.261  15.704   6.008  0.00  0.00     0.198 C 
BRANCH  28  29
HETATM   29  O   UNK N   1      33.108  15.210   5.015  0.00  0.00    -0.398 OA
HETATM   30  H   UNK N   1      33.708  15.565   4.340  0.00  0.00     0.209 HD
ENDBRANCH  28  29
ENDBRANCH  20  28
ENDBRANCH  15  16
ENDBRANCH   6  15
BRANCH   3  31
HETATM   31  C   UNK N   1      34.065  11.908   9.804  0.00  0.00     0.192 C 
BRANCH  31  32
HETATM   32  O   UNK N   1      33.617  12.353   8.558  0.00  0.00    -0.399 OA
HETATM   33  H   UNK N   1      33.153  12.814   7.841  0.00  0.00     0.209 HD
ENDBRANCH  31  32
ENDBRANCH   3  31
TORSDOF 9
ENDMDL
MODEL 5
REMARK VINA RESULT:      -6.3      3.848      7.124
REMARK  9 active torsions:
REMARK  status: ('A' for Active; 'I' for Inactive)
REMARK    1  A    between atoms: C_5  and  C_3 
REMARK    2  A    between atoms: O_18  and  C_3 
REMARK    3  A    between atoms: C_6  and  C_4 
REMARK    4  A    between atoms: O_19  and  C_4 
REMARK    5  A    between atoms: C_7  and  O_20 
REMARK    6  A    between atoms: C_8  and  O_21 
REMARK    7  A    between atoms: C_11  and  O_24 
REMARK    8  A    between atoms: C_12  and  O_26 
REMARK    9  A    between atoms: C_14  and  O_26 
ROOT
HETATM    1  C   UNK N   1      32.755  16.962   4.011  0.00  0.00     0.106 A 
HETATM    2  C   UNK N   1      33.040  17.629   5.197  0.00  0.00     0.110 A 
HETATM    3  C   UNK N   1      34.595  17.072   7.165  0.00  0.00     0.146 C 
HETATM    4  C   UNK N   1      34.540  14.455   7.041  0.00  0.00     0.185 C 
HETATM    5  C   UNK N   1      35.063  14.720   5.615  0.00  0.00     0.217 C 
HETATM    6  C   UNK N   1      34.626  15.721   7.991  0.00  0.00     0.181 C 
HETATM    7  C   UNK N   1      34.199  15.823   5.104  0.00  0.00     0.115 A 
HETATM    8  N   UNK N   1      33.476  15.818   3.970  0.00  0.00    -0.352 N 
ATOM      9  HN  UNK N   1      33.472  15.107   3.238  1.00  0.00     0.166 HD
HETATM   10  N   UNK N   1      33.945  16.891   5.861  0.00  0.00    -0.334 N 
HETATM   11  O   UNK N   1      33.202  14.049   6.935  0.00  0.00    -0.390 OA
HETATM   12  O   UNK N   1      36.400  15.125   5.660  0.00  0.00    -0.385 OA
HETATM   13  H   UNK N   1      32.304  13.685   6.912  0.00  0.00     0.210 HD
HETATM   14  H   UNK N   1      37.312  15.455   5.663  0.00  0.00     0.210 HD
ENDROOT
BRANCH   6  15
HETATM   15  O   UNK N   1      33.582  15.710   8.958  0.00  0.00    -0.348 OA
BRANCH  15  16
HETATM   16  C   UNK N   1      33.885  15.052  10.190  0.00  0.00     0.292 C 
HETATM   17  C   UNK N   1      35.192  15.532  10.909  0.00  0.00     0.204 C 
HETATM   18  C   UNK N   1      35.283  14.697  12.196  0.00  0.00     0.183 C 
HETATM   19  C   UNK N   1      35.395  13.194  11.856  0.00  0.00     0.180 C 
HETATM   20  C   UNK N   1      34.867  12.902  10.425  0.00  0.00     0.179 C 
HETATM   21  O   UNK N   1      33.690  13.634  10.129  0.00  0.00    -0.348 OA
BRANCH  17  22
HETATM   22  O   UNK N   1      35.098  16.893  11.216  0.00  0.00    -0.388 OA
HETATM   23  H   UNK N   1      34.320  17.401  10.938  0.00  0.00     0.210 HD
ENDBRANCH  17  22
BRANCH  18  24
HETATM   24  O   UNK N   1      36.348  15.093  13.009  0.00  0.00    -0.390 OA
HETATM   25  H   UNK N   1      37.308  15.103  12.874  0.00  0.00     0.210 HD
ENDBRANCH  18  24
BRANCH  19  26
HETATM   26  O   UNK N   1      34.704  12.457  12.822  0.00  0.00    -0.390 OA
HETATM   27  H   UNK N   1      34.809  12.159  13.739  0.00  0.00     0.210 HD
ENDBRANCH  19  26
BRANCH  20  28
HETATM   28  C   UNK N   1      34.601  11.415  10.201  0.00  0.00     0.198 C 
BRANCH  28  29
HETATM   29  O   UNK N   1      33.342  11.053  10.681  0.00  0.00    -0.398 OA
HETATM   30  H   UNK N   1      32.972  10.462  11.356  0.00  0.00     0.209 HD
ENDBRANCH  28  29
ENDBRANCH  20  28
ENDBRANCH  15  16
ENDBRANCH   6  15
BRANCH   3  31
HETATM   31  C   UNK N   1      34.096  18.302   7.928  0.00  0.00     0.192 C 
BRANCH  31  32
HETATM   32  O   UNK N   1      35.167  19.066   8.401  0.00  0.00    -0.399 OA
HETATM   33  H   UNK N   1      35.873  19.723   8.502  0.00  0.00     0.209 HD
ENDBRANCH  31  32
ENDBRANCH   3  31
TORSDOF 9
ENDMDL
MODEL 6
REMARK VINA RESULT:      -6.2      4.653      7.155
REMARK  9 active torsions:
REMARK  status: ('A' for Active; 'I' for Inactive)
REMARK    1  A    between atoms: C_5  and  C_3 
REMARK    2  A    between atoms: O_18  and  C_3 
REMARK    3  A    between atoms: C_6  and  C_4 
REMARK    4  A    between atoms: O_19  and  C_4 
REMARK    5  A    between atoms: C_7  and  O_20 
REMARK    6  A    between atoms: C_8  and  O_21 
REMARK    7  A    between atoms: C_11  and  O_24 
REMARK    8  A    between atoms: C_12  and  O_26 
REMARK    9  A    between atoms: C_14  and  O_26 
ROOT
HETATM    1  C   UNK N   1      36.898   9.703  13.898  0.00  0.00     0.106 A 
HETATM    2  C   UNK N   1      37.415  10.268  12.737  0.00  0.00     0.110 A 
HETATM    3  C   UNK N   1      37.555  12.695  11.908  0.00  0.00     0.146 C 
HETATM    4  C   UNK N   1      35.437  13.687  13.090  0.00  0.00     0.185 C 
HETATM    5  C   UNK N   1      36.170  13.194  14.355  0.00  0.00     0.217 C 
HETATM    6  C   UNK N   1      36.358  13.728  11.801  0.00  0.00     0.181 C 
HETATM    7  C   UNK N   1      36.641  11.824  13.998  0.00  0.00     0.115 A 
HETATM    8  N   UNK N   1      36.397  10.689  14.677  0.00  0.00    -0.352 N 
ATOM      9  HN  UNK N   1      35.936  10.592  15.581  1.00  0.00     0.166 HD
HETATM   10  N   UNK N   1      37.238  11.596  12.827  0.00  0.00    -0.334 N 
HETATM   11  O   UNK N   1      34.359  12.819  12.858  0.00  0.00    -0.390 OA
HETATM   12  O   UNK N   1      37.256  14.028  14.637  0.00  0.00    -0.385 OA
HETATM   13  H   UNK N   1      33.555  12.302  12.702  0.00  0.00     0.210 HD
HETATM   14  H   UNK N   1      38.043  14.559  14.830  0.00  0.00     0.210 HD
ENDROOT
BRANCH   6  15
HETATM   15  O   UNK N   1      35.602  13.485  10.620  0.00  0.00    -0.348 OA
BRANCH  15  16
HETATM   16  C   UNK N   1      35.214  14.646   9.883  0.00  0.00     0.292 C 
HETATM   17  C   UNK N   1      33.676  14.942   9.849  0.00  0.00     0.204 C 
HETATM   18  C   UNK N   1      33.524  16.228   9.022  0.00  0.00     0.183 C 
HETATM   19  C   UNK N   1      34.046  16.010   7.584  0.00  0.00     0.180 C 
HETATM   20  C   UNK N   1      35.024  14.805   7.521  0.00  0.00     0.179 C 
HETATM   21  O   UNK N   1      35.902  14.769   8.633  0.00  0.00    -0.348 OA
BRANCH  17  22
HETATM   22  O   UNK N   1      33.196  15.137  11.147  0.00  0.00    -0.388 OA
HETATM   23  H   UNK N   1      33.818  15.224  11.887  0.00  0.00     0.210 HD
ENDBRANCH  17  22
BRANCH  18  24
HETATM   24  O   UNK N   1      32.204  16.687   8.996  0.00  0.00    -0.390 OA
HETATM   25  H   UNK N   1      31.381  16.341   9.375  0.00  0.00     0.210 HD
ENDBRANCH  18  24
BRANCH  19  26
HETATM   26  O   UNK N   1      34.649  17.188   7.136  0.00  0.00    -0.390 OA
HETATM   27  H   UNK N   1      35.252  17.490   6.439  0.00  0.00     0.210 HD
ENDBRANCH  19  26
BRANCH  20  28
HETATM   28  C   UNK N   1      35.846  14.797   6.233  0.00  0.00     0.198 C 
BRANCH  28  29
HETATM   29  O   UNK N   1      35.044  15.073   5.125  0.00  0.00    -0.398 OA
HETATM   30  H   UNK N   1      34.111  14.991   4.874  0.00  0.00     0.209 HD
ENDBRANCH  28  29
ENDBRANCH  20  28
ENDBRANCH  15  16
ENDBRANCH   6  15
BRANCH   3  31
HETATM   31  C   UNK N   1      38.142  12.223  10.574  0.00  0.00     0.192 C 
BRANCH  31  32
HETATM   32  O   UNK N   1      38.336  13.298   9.704  0.00  0.00    -0.399 OA
HETATM   33  H   UNK N   1      38.608  13.865   8.965  0.00  0.00     0.209 HD
ENDBRANCH  31  32
ENDBRANCH   3  31
TORSDOF 9
ENDMDL
MODEL 7
REMARK VINA RESULT:      -6.1      2.750      4.114
REMARK  9 active torsions:
REMARK  status: ('A' for Active; 'I' for Inactive)
REMARK    1  A    between atoms: C_5  and  C_3 
REMARK    2  A    between atoms: O_18  and  C_3 
REMARK    3  A    between atoms: C_6  and  C_4 
REMARK    4  A    between atoms: O_19  and  C_4 
REMARK    5  A    between atoms: C_7  and  O_20 
REMARK    6  A    between atoms: C_8  and  O_21 
REMARK    7  A    between atoms: C_11  and  O_24 
REMARK    8  A    between atoms: C_12  and  O_26 
REMARK    9  A    between atoms: C_14  and  O_26 
ROOT
HETATM    1  C   UNK N   1      35.862  12.213  13.002  0.00  0.00     0.106 A 
HETATM    2  C   UNK N   1      36.082  12.013  11.644  0.00  0.00     0.110 A 
HETATM    3  C   UNK N   1      36.214  13.633   9.654  0.00  0.00     0.146 C 
HETATM    4  C   UNK N   1      34.620  15.524  10.522  0.00  0.00     0.185 C 
HETATM    5  C   UNK N   1      35.630  15.552  11.687  0.00  0.00     0.217 C 
HETATM    6  C   UNK N   1      35.140  14.727   9.254  0.00  0.00     0.181 C 
HETATM    7  C   UNK N   1      35.848  14.114  12.020  0.00  0.00     0.115 A 
HETATM    8  N   UNK N   1      35.698  13.538  13.226  0.00  0.00    -0.352 N 
ATOM      9  HN  UNK N   1      35.504  13.997  14.116  1.00  0.00     0.166 HD
HETATM   10  N   UNK N   1      36.066  13.220  11.055  0.00  0.00    -0.334 N 
HETATM   11  O   UNK N   1      33.443  14.924  10.992  0.00  0.00    -0.390 OA
HETATM   12  O   UNK N   1      36.825  16.146  11.274  0.00  0.00    -0.385 OA
HETATM   13  H   UNK N   1      32.582  14.594  11.290  0.00  0.00     0.210 HD
HETATM   14  H   UNK N   1      37.683  16.509  11.003  0.00  0.00     0.210 HD
ENDROOT
BRANCH   6  15
HETATM   15  O   UNK N   1      34.061  14.124   8.548  0.00  0.00    -0.348 OA
BRANCH  15  16
HETATM   16  C   UNK N   1      33.372  14.971   7.628  0.00  0.00     0.292 C 
HETATM   17  C   UNK N   1      34.231  16.114   6.988  0.00  0.00     0.204 C 
HETATM   18  C   UNK N   1      33.280  16.861   6.040  0.00  0.00     0.183 C 
HETATM   19  C   UNK N   1      32.101  17.472   6.830  0.00  0.00     0.180 C 
HETATM   20  C   UNK N   1      31.909  16.755   8.193  0.00  0.00     0.179 C 
HETATM   21  O   UNK N   1      32.069  15.351   8.086  0.00  0.00    -0.348 OA
BRANCH  17  22
HETATM   22  O   UNK N   1      35.302  15.568   6.275  0.00  0.00    -0.388 OA
HETATM   23  H   UNK N   1      35.959  16.151   5.862  0.00  0.00     0.210 HD
ENDBRANCH  17  22
BRANCH  18  24
HETATM   24  O   UNK N   1      33.937  17.850   5.302  0.00  0.00    -0.390 OA
HETATM   25  H   UNK N   1      33.888  18.114   4.370  0.00  0.00     0.210 HD
ENDBRANCH  18  24
BRANCH  19  26
HETATM   26  O   UNK N   1      30.946  17.409   6.044  0.00  0.00    -0.390 OA
HETATM   27  H   UNK N   1      30.380  17.992   5.516  0.00  0.00     0.210 HD
ENDBRANCH  19  26
BRANCH  20  28
HETATM   28  C   UNK N   1      30.547  17.057   8.816  0.00  0.00     0.198 C 
BRANCH  28  29
HETATM   29  O   UNK N   1      30.353  18.432   8.954  0.00  0.00    -0.398 OA
HETATM   30  H   UNK N   1      30.020  19.048   9.626  0.00  0.00     0.209 HD
ENDBRANCH  28  29
ENDBRANCH  20  28
ENDBRANCH  15  16
ENDBRANCH   6  15
BRANCH   3  31
HETATM   31  C   UNK N   1      36.352  12.456   8.684  0.00  0.00     0.192 C 
BRANCH  31  32
HETATM   32  O   UNK N   1      36.255  12.886   7.359  0.00  0.00    -0.399 OA
HETATM   33  H   UNK N   1      36.448  13.210   6.465  0.00  0.00     0.209 HD
ENDBRANCH  31  32
ENDBRANCH   3  31
TORSDOF 9
ENDMDL
MODEL 8
REMARK VINA RESULT:      -6.0      2.632      4.363
REMARK  9 active torsions:
REMARK  status: ('A' for Active; 'I' for Inactive)
REMARK    1  A    between atoms: C_5  and  C_3 
REMARK    2  A    between atoms: O_18  and  C_3 
REMARK    3  A    between atoms: C_6  and  C_4 
REMARK    4  A    between atoms: O_19  and  C_4 
REMARK    5  A    between atoms: C_7  and  O_20 
REMARK    6  A    between atoms: C_8  and  O_21 
REMARK    7  A    between atoms: C_11  and  O_24 
REMARK    8  A    between atoms: C_12  and  O_26 
REMARK    9  A    between atoms: C_14  and  O_26 
ROOT
HETATM    1  C   UNK N   1      35.957  11.933  12.135  0.00  0.00     0.106 A 
HETATM    2  C   UNK N   1      35.929  11.990  10.746  0.00  0.00     0.110 A 
HETATM    3  C   UNK N   1      35.866  13.958   9.096  0.00  0.00     0.146 C 
HETATM    4  C   UNK N   1      34.611  15.726  10.568  0.00  0.00     0.185 C 
HETATM    5  C   UNK N   1      35.800  15.471  11.517  0.00  0.00     0.217 C 
HETATM    6  C   UNK N   1      34.840  15.165   9.104  0.00  0.00     0.181 C 
HETATM    7  C   UNK N   1      35.945  13.986  11.537  0.00  0.00     0.115 A 
HETATM    8  N   UNK N   1      35.949  13.195  12.624  0.00  0.00    -0.352 N 
ATOM      9  HN  UNK N   1      35.947  13.482  13.602  1.00  0.00     0.166 HD
HETATM   10  N   UNK N   1      35.919  13.288  10.401  0.00  0.00    -0.334 N 
HETATM   11  O   UNK N   1      33.482  15.109  11.126  0.00  0.00    -0.390 OA
HETATM   12  O   UNK N   1      36.957  16.070  11.010  0.00  0.00    -0.385 OA
HETATM   13  H   UNK N   1      32.657  14.774  11.509  0.00  0.00     0.210 HD
HETATM   14  H   UNK N   1      37.785  16.433  10.660  0.00  0.00     0.210 HD
ENDROOT
BRANCH   6  15
HETATM   15  O   UNK N   1      33.610  14.770   8.507  0.00  0.00    -0.348 OA
BRANCH  15  16
HETATM   16  C   UNK N   1      32.988  15.743   7.666  0.00  0.00     0.292 C 
HETATM   17  C   UNK N   1      31.495  16.075   8.006  0.00  0.00     0.204 C 
HETATM   18  C   UNK N   1      31.068  17.141   6.985  0.00  0.00     0.183 C 
HETATM   19  C   UNK N   1      31.165  16.582   5.548  0.00  0.00     0.180 C 
HETATM   20  C   UNK N   1      32.125  15.363   5.486  0.00  0.00     0.179 C 
HETATM   21  O   UNK N   1      33.285  15.553   6.277  0.00  0.00    -0.348 OA
BRANCH  17  22
HETATM   22  O   UNK N   1      31.400  16.578   9.306  0.00  0.00    -0.388 OA
HETATM   23  H   UNK N   1      31.868  16.137  10.033  0.00  0.00     0.210 HD
ENDBRANCH  17  22
BRANCH  18  24
HETATM   24  O   UNK N   1      29.781  17.626   7.233  0.00  0.00    -0.390 OA
HETATM   25  H   UNK N   1      29.455  18.438   7.652  0.00  0.00     0.210 HD
ENDBRANCH  18  24
BRANCH  19  26
HETATM   26  O   UNK N   1      31.574  17.606   4.689  0.00  0.00    -0.390 OA
HETATM   27  H   UNK N   1      31.666  18.572   4.682  0.00  0.00     0.210 HD
ENDBRANCH  19  26
BRANCH  20  28
HETATM   28  C   UNK N   1      32.545  15.033   4.054  0.00  0.00     0.198 C 
BRANCH  28  29
HETATM   29  O   UNK N   1      33.616  15.830   3.649  0.00  0.00    -0.398 OA
HETATM   30  H   UNK N   1      33.923  16.266   2.839  0.00  0.00     0.209 HD
ENDBRANCH  28  29
ENDBRANCH  20  28
ENDBRANCH  15  16
ENDBRANCH   6  15
BRANCH   3  31
HETATM   31  C   UNK N   1      35.737  12.987   7.919  0.00  0.00     0.192 C 
BRANCH  31  32
HETATM   32  O   UNK N   1      35.643  13.679   6.708  0.00  0.00    -0.399 OA
HETATM   33  H   UNK N   1      35.675  14.355   6.013  0.00  0.00     0.209 HD
ENDBRANCH  31  32
ENDBRANCH   3  31
TORSDOF 9
ENDMDL
MODEL 9
REMARK VINA RESULT:      -6.0      4.125      7.661
REMARK  9 active torsions:
REMARK  status: ('A' for Active; 'I' for Inactive)
REMARK    1  A    between atoms: C_5  and  C_3 
REMARK    2  A    between atoms: O_18  and  C_3 
REMARK    3  A    between atoms: C_6  and  C_4 
REMARK    4  A    between atoms: O_19  and  C_4 
REMARK    5  A    between atoms: C_7  and  O_20 
REMARK    6  A    between atoms: C_8  and  O_21 
REMARK    7  A    between atoms: C_11  and  O_24 
REMARK    8  A    between atoms: C_12  and  O_26 
REMARK    9  A    between atoms: C_14  and  O_26 
ROOT
HETATM    1  C   UNK N   1      34.126  16.105   5.358  0.00  0.00     0.106 A 
HETATM    2  C   UNK N   1      33.795  14.963   6.078  0.00  0.00     0.110 A 
HETATM    3  C   UNK N   1      32.947  14.617   8.479  0.00  0.00     0.146 C 
HETATM    4  C   UNK N   1      34.036  16.701   9.635  0.00  0.00     0.185 C 
HETATM    5  C   UNK N   1      33.223  17.458   8.565  0.00  0.00     0.217 C 
HETATM    6  C   UNK N   1      33.603  15.186   9.803  0.00  0.00     0.181 C 
HETATM    7  C   UNK N   1      33.469  16.694   7.306  0.00  0.00     0.115 A 
HETATM    8  N   UNK N   1      33.934  17.189   6.145  0.00  0.00    -0.352 N 
ATOM      9  HN  UNK N   1      34.105  18.166   5.909  1.00  0.00     0.166 HD
HETATM   10  N   UNK N   1      33.390  15.363   7.295  0.00  0.00    -0.334 N 
HETATM   11  O   UNK N   1      35.387  16.755   9.260  0.00  0.00    -0.390 OA
HETATM   12  O   UNK N   1      31.864  17.440   8.891  0.00  0.00    -0.385 OA
HETATM   13  H   UNK N   1      36.338  16.834   9.091  0.00  0.00     0.210 HD
HETATM   14  H   UNK N   1      30.911  17.402   9.066  0.00  0.00     0.210 HD
ENDROOT
BRANCH   6  15
HETATM   15  O   UNK N   1      34.706  14.376  10.195  0.00  0.00    -0.348 OA
BRANCH  15  16
HETATM   16  C   UNK N   1      34.843  14.152  11.599  0.00  0.00     0.292 C 
HETATM   17  C   UNK N   1      36.221  14.568  12.219  0.00  0.00     0.204 C 
HETATM   18  C   UNK N   1      36.111  14.245  13.718  0.00  0.00     0.183 C 
HETATM   19  C   UNK N   1      35.878  12.733  13.928  0.00  0.00     0.180 C 
HETATM   20  C   UNK N   1      35.306  12.070  12.645  0.00  0.00     0.179 C 
HETATM   21  O   UNK N   1      34.329  12.880  12.014  0.00  0.00    -0.348 OA
BRANCH  17  22
HETATM   22  O   UNK N   1      36.439  15.935  12.028  0.00  0.00    -0.388 OA
HETATM   23  H   UNK N   1      36.743  16.486  12.767  0.00  0.00     0.210 HD
ENDBRANCH  17  22
BRANCH  18  24
HETATM   24  O   UNK N   1      37.233  14.669  14.433  0.00  0.00    -0.390 OA
HETATM   25  H   UNK N   1      37.345  15.283  15.176  0.00  0.00     0.210 HD
ENDBRANCH  18  24
BRANCH  19  26
HETATM   26  O   UNK N   1      35.031  12.551  15.025  0.00  0.00    -0.390 OA
HETATM   27  H   UNK N   1      35.058  12.594  15.994  0.00  0.00     0.210 HD
ENDBRANCH  19  26
BRANCH  20  28
HETATM   28  C   UNK N   1      34.708  10.692  12.926  0.00  0.00     0.198 C 
BRANCH  28  29
HETATM   29  O   UNK N   1      33.389  10.799  13.369  0.00  0.00    -0.398 OA
HETATM   30  H   UNK N   1      32.845  11.434  13.862  0.00  0.00     0.209 HD
ENDBRANCH  28  29
ENDBRANCH  20  28
ENDBRANCH  15  16
ENDBRANCH   6  15
BRANCH   3  31
HETATM   31  C   UNK N   1      33.024  13.097   8.303  0.00  0.00     0.192 C 
BRANCH  31  32
HETATM   32  O   UNK N   1      32.551  12.438   9.441  0.00  0.00    -0.399 OA
HETATM   33  H   UNK N   1      32.095  12.207  10.265  0.00  0.00     0.209 HD
ENDBRANCH  31  32
ENDBRANCH   3  31
TORSDOF 9
ENDMDL
