REMARK  19 active torsions:
REMARK  status: ('A' for Active; 'I' for Inactive)
REMARK    1  A    between atoms: C_2  and  C_4 
REMARK    2  A    between atoms: C_4  and  C_5 
REMARK    3  A    between atoms: C_5  and  O_7 
REMARK    4  A    between atoms: C_8  and  O_7 
REMARK    5  A    between atoms: C_9  and  O_10 
REMARK    6  A    between atoms: C_11  and  O_10 
REMARK    7  A    between atoms: C_24  and  C_26 
REMARK    8  A    between atoms: C_24  and  C_29 
REMARK    9  A    between atoms: C_26  and  O_27 
REMARK   10  A    between atoms: C_32  and  O_33 
REMARK   11  A    between atoms: C_37  and  C_38 
REMARK   12  A    between atoms: C_38  and  O_39 
REMARK   13  A    between atoms: O_39  and  O_40 
REMARK   14  A    between atoms: C_41  and  O_42 
REMARK   15  A    between atoms: O_42  and  S_43 
REMARK   16  A    between atoms: S_43  and  O_44 
REMARK   17  A    between atoms: C_47  and  O_48 
REMARK   18  A    between atoms: O_48  and  S_49 
REMARK   19  A    between atoms: S_49  and  O_50 
ROOT
HETATM    1  C   UNK N   1       6.004   3.707   0.804  0.00  0.00     0.160 C 
HETATM    2  O   UNK N   1       5.943   3.568   2.143  0.00  0.00    -0.775 OA
HETATM    3  O   UNK N   1       7.061   4.032   0.285  0.00  0.00    -0.649 OA
HETATM    4  H   UNK N   1       5.838   3.556   3.074  0.00  0.00     0.167 HD
ENDROOT
BRANCH   1   5
HETATM    5  C   UNK N   1       4.778   3.472  -0.063  0.00  0.00     0.137 C 
HETATM    6  C   UNK N   1       3.557   3.073   0.828  0.00  0.00     0.024 C 
HETATM    7  C   UNK N   1       2.224   3.756   0.482  0.00  0.00     0.008 C 
HETATM    8  C   UNK N   1       3.378   1.549   1.149  0.00  0.00    -0.032 C 
HETATM    9  C   UNK N   1       1.570   3.069  -0.705  0.00  0.00     0.013 C 
HETATM   10  C   UNK N   1       1.130   1.680  -0.283  0.00  0.00    -0.005 C 
HETATM   11  C   UNK N   1       0.537   0.909  -1.454  0.00  0.00     0.021 C 
HETATM   12  C   UNK N   1       2.372   0.850   0.177  0.00  0.00     0.005 C 
HETATM   13  C   UNK N   1      -0.087   1.739   0.665  0.00  0.00     0.155 C 
HETATM   14  C   UNK N   1      -0.156  -0.257  -0.751  0.00  0.00     0.017 C 
HETATM   15  C   UNK N   1       0.931  -1.231  -0.277  0.00  0.00     0.009 C 
HETATM   16  C   UNK N   1      -0.751   0.432   0.428  0.00  0.00    -0.056 C 
HETATM   17  C   UNK N   1       1.983  -0.574   0.638  0.00  0.00     0.007 C 
HETATM   18  C   UNK N   1      -2.032   0.260   0.749  0.00  0.00     0.017 C 
HETATM   19  C   UNK N   1       4.730   0.813   1.059  0.00  0.00     0.042 C 
HETATM   20  C   UNK N   1       2.907   1.444   2.591  0.00  0.00     0.016 C 
HETATM   21  C   UNK N   1       5.504   1.062  -0.256  0.00  0.00     0.127 C 
HETATM   22  C   UNK N   1       5.064   2.314  -1.025  0.00  0.00     0.064 C 
BRANCH  13  23
HETATM   23  O   UNK N   1       0.246   1.932   2.004  0.00  0.00    -0.390 OA
HETATM   24  H   UNK N   1       0.479   1.798   2.936  0.00  0.00     0.210 HD
ENDBRANCH  13  23
BRANCH  21  25
HETATM   25  O   UNK N   1       5.508  -0.045  -1.107  0.00  0.00    -0.353 OA
BRANCH  25  26
HETATM   26  C   UNK N   1       6.836  -0.521  -1.252  0.00  0.00     0.293 C 
HETATM   27  C   UNK N   1       7.284  -1.699  -0.377  0.00  0.00     0.220 C 
HETATM   28  C   UNK N   1       8.276  -1.261   0.721  0.00  0.00     0.211 C 
HETATM   29  C   UNK N   1       9.261  -0.167   0.266  0.00  0.00     0.208 C 
HETATM   30  C   UNK N   1       8.440   0.918  -0.460  0.00  0.00     0.184 C 
HETATM   31  O   UNK N   1       7.834   0.412  -1.631  0.00  0.00    -0.348 OA
BRANCH  27  32
HETATM   32  O   UNK N   1       6.171  -2.321   0.149  0.00  0.00    -0.308 OA
BRANCH  32  33
HETATM   33  C   UNK N   1       5.835  -3.592  -0.175  0.00  0.00     0.259 C 
HETATM   34  O   UNK N   1       6.639  -4.335  -0.714  0.00  0.00    -0.265 OA
BRANCH  33  35
HETATM   35  C   UNK N   1       4.436  -4.073   0.031  0.00  0.00     0.115 C 
BRANCH  35  36
HETATM   36  C   UNK N   1       3.423  -3.268  -0.783  0.00  0.00    -0.013 C 
HETATM   37  C   UNK N   1       3.859  -3.058  -2.226  0.00  0.00     0.010 C 
HETATM   38  C   UNK N   1       2.111  -4.024  -0.790  0.00  0.00     0.010 C 
ENDBRANCH  35  36
ENDBRANCH  33  35
ENDBRANCH  32  33
ENDBRANCH  27  32
BRANCH  28  39
HETATM   39  O   UNK N   1       8.906  -2.321   1.422  0.00  0.00    -0.253 OA
BRANCH  39  40
HETATM   40  S   UNK N   1       9.459  -3.552   0.322  0.00  0.00     0.240 S 
HETATM   41  O   UNK N   1      10.954  -3.550  -0.021  0.00  0.00    -0.579 OA
HETATM   42  O   UNK N   1       9.070  -4.974   0.751  0.00  0.00    -0.579 OA
BRANCH  40  43
HETATM   43  O   UNK N   1      10.257  -3.744   1.829  0.00  0.00    -0.274 OA
HETATM   44  H   UNK N   1      10.388  -4.188   2.681  0.00  0.00     0.234 HD
ENDBRANCH  40  43
ENDBRANCH  39  40
ENDBRANCH  28  39
BRANCH  29  45
HETATM   45  O   UNK N   1      10.280  -0.700  -0.547  0.00  0.00    -0.253 OA
BRANCH  45  46
HETATM   46  S   UNK N   1      11.709   0.254  -0.300  0.00  0.00     0.240 S 
HETATM   47  O   UNK N   1      11.947   0.743   1.138  0.00  0.00    -0.579 OA
HETATM   48  O   UNK N   1      12.994  -0.413  -0.812  0.00  0.00    -0.579 OA
BRANCH  46  49
HETATM   49  O   UNK N   1      11.879  -1.160   0.656  0.00  0.00    -0.274 OA
HETATM   50  H   UNK N   1      11.234  -1.642   1.196  0.00  0.00     0.234 HD
ENDBRANCH  46  49
ENDBRANCH  45  46
ENDBRANCH  29  45
BRANCH  30  51
HETATM   51  C   UNK N   1       9.253   2.163  -0.783  0.00  0.00     0.244 C 
BRANCH  51  52
HETATM   52  O   UNK N   1       9.736   2.736   0.396  0.00  0.00    -0.241 OA
BRANCH  52  53
HETATM   53  O   UNK N   1       9.926   4.004   0.099  0.00  0.00    -0.251 OA
HETATM   54  H   UNK N   1      10.806   4.350  -0.120  0.00  0.00     0.253 HD
ENDBRANCH  52  53
ENDBRANCH  51  52
ENDBRANCH  30  51
ENDBRANCH  25  26
ENDBRANCH  21  25
BRANCH   5  55
HETATM   55  C   UNK N   1       4.524   4.769  -0.816  0.00  0.00     0.160 C 
HETATM   56  O   UNK N   1       4.536   4.797  -2.038  0.00  0.00    -0.649 OA
BRANCH  55  57
HETATM   57  O   UNK N   1       4.289   5.907  -0.132  0.00  0.00    -0.775 OA
HETATM   58  H   UNK N   1       4.893   6.444   0.343  0.00  0.00     0.167 HD
ENDBRANCH  55  57
ENDBRANCH   5  55
ENDBRANCH   1   5
TORSDOF 19
