MODEL 1
REMARK VINA RESULT:      -5.9      0.000      0.000
REMARK  18 active torsions:
REMARK  status: ('A' for Active; 'I' for Inactive)
REMARK    1  A    between atoms: C_2  and  C_1 
REMARK    2  A    between atoms: C_3  and  C_1 
REMARK    3  A    between atoms: N_18  and  C_2 
REMARK    4  A    between atoms: O_30  and  C_3 
REMARK    5  A    between atoms: C_6  and  C_4 
REMARK    6  A    between atoms: N_19  and  C_4 
REMARK    7  A    between atoms: C_7  and  C_5 
REMARK    8  A    between atoms: O_20  and  C_5 
REMARK    9  A    between atoms: C_9  and  C_6 
REMARK   10  A    between atoms: C_6  and  O_21 
REMARK   11  A    between atoms: C_9  and  C_7 
REMARK   12  A    between atoms: C_7  and  O_22 
REMARK   13  A    between atoms: C_9  and  O_23 
REMARK   14  A    between atoms: O_24  and  C_11 
REMARK   15  A    between atoms: O_25  and  C_12 
REMARK   16  A    between atoms: P_31  and  O_27 
REMARK   17  A    between atoms: P_31  and  O_28 
REMARK   18  A    between atoms: P_31  and  O_30 
ROOT
HETATM    1  C   UNK N   1      35.558  13.018  14.010  0.00  0.00     0.135 A 
HETATM    2  C   UNK N   1      36.168  14.064  13.394  0.00  0.00     0.146 A 
HETATM    3  C   UNK N   1      35.651  12.880  15.392  0.00  0.00     0.174 A 
HETATM    4  C   UNK N   1      37.009  14.840  15.434  0.00  0.00     0.224 A 
HETATM    5  C   UNK N   1      35.149  12.911  11.901  0.00  0.00     0.331 A 
HETATM    6  N   UNK N   1      36.898  14.976  14.078  0.00  0.00    -0.306 N 
ATOM      7  HN  UNK N   1      37.356  15.748  13.593  1.00  0.00     0.171 HD
HETATM    8  N   UNK N   1      36.383  13.804  16.081  0.00  0.00    -0.301 N 
ATOM      9  HN  UNK N   1      36.467  13.723  17.094  1.00  0.00     0.171 HD
HETATM   10  N   UNK N   1      34.923  12.269  13.087  0.00  0.00    -0.292 N 
HETATM   11  N   UNK N   1      35.906  14.033  12.069  0.00  0.00    -0.281 N 
HETATM   12  O   UNK N   1      34.720  12.533  10.826  0.00  0.00    -0.246 OA
ENDROOT
BRANCH  11  13
HETATM   13  C   UNK N   1      36.299  14.962  11.011  0.00  0.00     0.170 C 
BRANCH  13  14
HETATM   14  C   UNK N   1      35.213  16.005  10.721  0.00  0.00     0.168 C 
BRANCH  14  15
HETATM   15  C   UNK N   1      34.512  15.681   9.381  0.00  0.00     0.179 C 
BRANCH  15  16
HETATM   16  C   UNK N   1      33.004  15.374   9.514  0.00  0.00     0.173 C 
BRANCH  16  17
HETATM   17  C   UNK N   1      32.535  14.283   8.559  0.00  0.00     0.198 C 
BRANCH  17  18
HETATM   18  O   UNK N   1      32.452  13.063   9.234  0.00  0.00    -0.398 OA
HETATM   19  H   UNK N   1      32.102  12.276   8.787  0.00  0.00     0.209 HD
ENDBRANCH  17  18
ENDBRANCH  16  17
BRANCH  16  20
HETATM   20  O   UNK N   1      32.721  14.989  10.829  0.00  0.00    -0.391 OA
HETATM   21  H   UNK N   1      32.319  14.200  11.225  0.00  0.00     0.210 HD
ENDBRANCH  16  20
ENDBRANCH  15  16
BRANCH  15  22
HETATM   22  O   UNK N   1      35.170  14.613   8.762  0.00  0.00    -0.390 OA
HETATM   23  H   UNK N   1      36.106  14.548   8.512  0.00  0.00     0.210 HD
ENDBRANCH  15  22
ENDBRANCH  14  15
BRANCH  14  24
HETATM   24  O   UNK N   1      35.815  17.259  10.654  0.00  0.00    -0.391 OA
HETATM   25  H   UNK N   1      36.780  17.355  10.694  0.00  0.00     0.210 HD
ENDBRANCH  14  24
ENDBRANCH  13  14
ENDBRANCH  11  13
BRANCH  10  26
HETATM   26  C   UNK N   1      34.153  11.051  13.297  0.00  0.00     0.136 C 
BRANCH  26  27
HETATM   27  C   UNK N   1      34.952   9.819  12.872  0.00  0.00     0.047 C 
BRANCH  27  28
HETATM   28  C   UNK N   1      34.347   9.073  11.675  0.00  0.00     0.182 C 
BRANCH  28  29
HETATM   29  O   UNK N   1      33.108   9.596  11.281  0.00  0.00    -0.297 OA
BRANCH  29  30
HETATM   30  P   UNK N   1      33.055   9.555   9.538  0.00  0.00     0.390 P 
HETATM   31  O   UNK N   1      31.640  10.005   9.080  0.00  0.00    -0.632 OA
BRANCH  30  32
HETATM   32  O   UNK N   1      34.216  10.623   8.815  0.00  0.00    -0.307 OA
HETATM   33  H   UNK N   1      34.195  11.531   8.477  0.00  0.00     0.222 HD
ENDBRANCH  30  32
BRANCH  30  34
HETATM   34  O   UNK N   1      33.259   7.931   8.961  0.00  0.00    -0.307 OA
HETATM   35  H   UNK N   1      33.172   7.650   8.038  0.00  0.00     0.222 HD
ENDBRANCH  30  34
ENDBRANCH  29  30
ENDBRANCH  28  29
ENDBRANCH  27  28
ENDBRANCH  26  27
ENDBRANCH  10  26
BRANCH   3  36
HETATM   36  O   UNK N   1      35.028  11.887  16.045  0.00  0.00    -0.344 OA
HETATM   37  H   UNK N   1      34.455  11.256  15.656  0.00  0.00     0.219 HD
ENDBRANCH   3  36
BRANCH   4  38
HETATM   38  O   UNK N   1      37.725  15.732  16.138  0.00  0.00    -0.332 OA
HETATM   39  H   UNK N   1      37.300  16.376  16.669  0.00  0.00     0.221 HD
ENDBRANCH   4  38
TORSDOF 18
ENDMDL
MODEL 2
REMARK VINA RESULT:      -5.8     12.606     15.603
REMARK  18 active torsions:
REMARK  status: ('A' for Active; 'I' for Inactive)
REMARK    1  A    between atoms: C_2  and  C_1 
REMARK    2  A    between atoms: C_3  and  C_1 
REMARK    3  A    between atoms: N_18  and  C_2 
REMARK    4  A    between atoms: O_30  and  C_3 
REMARK    5  A    between atoms: C_6  and  C_4 
REMARK    6  A    between atoms: N_19  and  C_4 
REMARK    7  A    between atoms: C_7  and  C_5 
REMARK    8  A    between atoms: O_20  and  C_5 
REMARK    9  A    between atoms: C_9  and  C_6 
REMARK   10  A    between atoms: C_6  and  O_21 
REMARK   11  A    between atoms: C_9  and  C_7 
REMARK   12  A    between atoms: C_7  and  O_22 
REMARK   13  A    between atoms: C_9  and  O_23 
REMARK   14  A    between atoms: O_24  and  C_11 
REMARK   15  A    between atoms: O_25  and  C_12 
REMARK   16  A    between atoms: P_31  and  O_27 
REMARK   17  A    between atoms: P_31  and  O_28 
REMARK   18  A    between atoms: P_31  and  O_30 
ROOT
HETATM    1  C   UNK N   1      21.266  16.376   7.369  0.00  0.00     0.135 A 
HETATM    2  C   UNK N   1      20.806  15.319   8.089  0.00  0.00     0.146 A 
HETATM    3  C   UNK N   1      20.615  17.603   7.452  0.00  0.00     0.174 A 
HETATM    4  C   UNK N   1      19.051  16.605   8.950  0.00  0.00     0.224 A 
HETATM    5  C   UNK N   1      22.550  14.687   7.014  0.00  0.00     0.331 A 
HETATM    6  N   UNK N   1      19.707  15.407   8.875  0.00  0.00    -0.306 N 
ATOM      7  HN  UNK N   1      19.374  14.597   9.398  1.00  0.00     0.171 HD
HETATM    8  N   UNK N   1      19.511  17.692   8.249  0.00  0.00    -0.301 N 
ATOM      9  HN  UNK N   1      19.017  18.581   8.324  1.00  0.00     0.171 HD
HETATM   10  N   UNK N   1      22.355  15.996   6.671  0.00  0.00    -0.292 N 
HETATM   11  N   UNK N   1      21.611  14.251   7.902  0.00  0.00    -0.281 N 
HETATM   12  O   UNK N   1      23.457  13.997   6.585  0.00  0.00    -0.246 OA
ENDROOT
BRANCH  11  13
HETATM   13  C   UNK N   1      21.554  12.915   8.493  0.00  0.00     0.170 C 
BRANCH  13  14
HETATM   14  C   UNK N   1      21.698  12.949  10.019  0.00  0.00     0.168 C 
BRANCH  14  15
HETATM   15  C   UNK N   1      22.705  11.871  10.480  0.00  0.00     0.179 C 
BRANCH  15  16
HETATM   16  C   UNK N   1      23.622  12.315  11.642  0.00  0.00     0.173 C 
BRANCH  16  17
HETATM   17  C   UNK N   1      23.134  11.829  13.001  0.00  0.00     0.198 C 
BRANCH  17  18
HETATM   18  O   UNK N   1      23.823  12.493  14.019  0.00  0.00    -0.398 OA
HETATM   19  H   UNK N   1      23.480  13.325  14.383  0.00  0.00     0.209 HD
ENDBRANCH  17  18
ENDBRANCH  16  17
BRANCH  16  20
HETATM   20  O   UNK N   1      24.919  11.839  11.419  0.00  0.00    -0.391 OA
HETATM   21  H   UNK N   1      25.595  11.443  11.991  0.00  0.00     0.210 HD
ENDBRANCH  16  20
ENDBRANCH  15  16
BRANCH  15  22
HETATM   22  O   UNK N   1      23.475  11.460   9.387  0.00  0.00    -0.390 OA
HETATM   23  H   UNK N   1      23.173  11.059   8.556  0.00  0.00     0.210 HD
ENDBRANCH  15  22
ENDBRANCH  14  15
BRANCH  14  24
HETATM   24  O   UNK N   1      20.448  12.707  10.584  0.00  0.00    -0.391 OA
HETATM   25  H   UNK N   1      20.132  13.224  11.343  0.00  0.00     0.210 HD
ENDBRANCH  14  24
ENDBRANCH  13  14
ENDBRANCH  11  13
BRANCH  10  26
HETATM   26  C   UNK N   1      23.160  16.798   5.761  0.00  0.00     0.136 C 
BRANCH  26  27
HETATM   27  C   UNK N   1      22.661  16.661   4.323  0.00  0.00     0.047 C 
BRANCH  27  28
HETATM   28  C   UNK N   1      22.455  18.004   3.609  0.00  0.00     0.182 C 
BRANCH  28  29
HETATM   29  O   UNK N   1      21.331  18.699   4.078  0.00  0.00    -0.297 OA
BRANCH  29  30
HETATM   30  P   UNK N   1      21.077  20.057   3.013  0.00  0.00     0.390 P 
HETATM   31  O   UNK N   1      22.442  20.762   2.784  0.00  0.00    -0.632 OA
BRANCH  30  32
HETATM   32  O   UNK N   1      20.457  19.577   1.464  0.00  0.00    -0.307 OA
HETATM   33  H   UNK N   1      20.320  20.020   0.613  0.00  0.00     0.222 HD
ENDBRANCH  30  32
BRANCH  30  34
HETATM   34  O   UNK N   1      20.041  21.231   3.760  0.00  0.00    -0.307 OA
HETATM   35  H   UNK N   1      20.068  22.187   3.596  0.00  0.00     0.222 HD
ENDBRANCH  30  34
ENDBRANCH  29  30
ENDBRANCH  28  29
ENDBRANCH  27  28
ENDBRANCH  26  27
ENDBRANCH  10  26
BRANCH   3  36
HETATM   36  O   UNK N   1      21.062  18.684   6.792  0.00  0.00    -0.344 OA
HETATM   37  H   UNK N   1      20.719  19.551   6.875  0.00  0.00     0.219 HD
ENDBRANCH   3  36
BRANCH   4  38
HETATM   38  O   UNK N   1      17.960  16.720   9.723  0.00  0.00    -0.332 OA
HETATM   39  H   UNK N   1      17.634  15.987  10.206  0.00  0.00     0.221 HD
ENDBRANCH   4  38
TORSDOF 18
ENDMDL
MODEL 3
REMARK VINA RESULT:      -5.6      6.619      9.389
REMARK  18 active torsions:
REMARK  status: ('A' for Active; 'I' for Inactive)
REMARK    1  A    between atoms: C_2  and  C_1 
REMARK    2  A    between atoms: C_3  and  C_1 
REMARK    3  A    between atoms: N_18  and  C_2 
REMARK    4  A    between atoms: O_30  and  C_3 
REMARK    5  A    between atoms: C_6  and  C_4 
REMARK    6  A    between atoms: N_19  and  C_4 
REMARK    7  A    between atoms: C_7  and  C_5 
REMARK    8  A    between atoms: O_20  and  C_5 
REMARK    9  A    between atoms: C_9  and  C_6 
REMARK   10  A    between atoms: C_6  and  O_21 
REMARK   11  A    between atoms: C_9  and  C_7 
REMARK   12  A    between atoms: C_7  and  O_22 
REMARK   13  A    between atoms: C_9  and  O_23 
REMARK   14  A    between atoms: O_24  and  C_11 
REMARK   15  A    between atoms: O_25  and  C_12 
REMARK   16  A    between atoms: P_31  and  O_27 
REMARK   17  A    between atoms: P_31  and  O_28 
REMARK   18  A    between atoms: P_31  and  O_30 
ROOT
HETATM    1  C   UNK N   1      30.833  17.350   7.422  0.00  0.00     0.135 A 
HETATM    2  C   UNK N   1      29.631  17.585   6.831  0.00  0.00     0.146 A 
HETATM    3  C   UNK N   1      30.929  17.329   8.810  0.00  0.00     0.174 A 
HETATM    4  C   UNK N   1      28.599  17.828   8.917  0.00  0.00     0.224 A 
HETATM    5  C   UNK N   1      31.082  17.257   5.286  0.00  0.00     0.331 A 
HETATM    6  N   UNK N   1      28.512  17.831   7.552  0.00  0.00    -0.306 N 
ATOM      7  HN  UNK N   1      27.623  18.015   7.087  1.00  0.00     0.171 HD
HETATM    8  N   UNK N   1      29.797  17.571   9.534  0.00  0.00    -0.301 N 
ATOM      9  HN  UNK N   1      29.844  17.563  10.553  1.00  0.00     0.171 HD
HETATM   10  N   UNK N   1      31.765  17.157   6.466  0.00  0.00    -0.292 N 
HETATM   11  N   UNK N   1      29.756  17.508   5.489  0.00  0.00    -0.281 N 
HETATM   12  O   UNK N   1      31.592  17.131   4.188  0.00  0.00    -0.246 OA
ENDROOT
BRANCH  11  13
HETATM   13  C   UNK N   1      28.744  17.638   4.442  0.00  0.00     0.170 C 
BRANCH  13  14
HETATM   14  C   UNK N   1      27.928  18.928   4.579  0.00  0.00     0.168 C 
BRANCH  14  15
HETATM   15  C   UNK N   1      26.438  18.589   4.819  0.00  0.00     0.179 C 
BRANCH  15  16
HETATM   16  C   UNK N   1      25.568  19.803   5.215  0.00  0.00     0.173 C 
BRANCH  16  17
HETATM   17  C   UNK N   1      26.294  20.777   6.136  0.00  0.00     0.198 C 
BRANCH  17  18
HETATM   18  O   UNK N   1      26.543  20.169   7.369  0.00  0.00    -0.398 OA
HETATM   19  H   UNK N   1      26.720  19.216   7.421  0.00  0.00     0.209 HD
ENDBRANCH  17  18
ENDBRANCH  16  17
BRANCH  16  20
HETATM   20  O   UNK N   1      25.158  20.479   4.059  0.00  0.00    -0.391 OA
HETATM   21  H   UNK N   1      24.779  20.191   3.214  0.00  0.00     0.210 HD
ENDBRANCH  16  20
ENDBRANCH  15  16
BRANCH  15  22
HETATM   22  O   UNK N   1      26.343  17.588   5.791  0.00  0.00    -0.390 OA
HETATM   23  H   UNK N   1      27.018  16.945   6.059  0.00  0.00     0.210 HD
ENDBRANCH  15  22
ENDBRANCH  14  15
BRANCH  14  24
HETATM   24  O   UNK N   1      28.067  19.664   3.405  0.00  0.00    -0.391 OA
HETATM   25  H   UNK N   1      27.644  19.377   2.580  0.00  0.00     0.210 HD
ENDBRANCH  14  24
ENDBRANCH  13  14
ENDBRANCH  11  13
BRANCH  10  26
HETATM   26  C   UNK N   1      33.184  16.888   6.642  0.00  0.00     0.136 C 
BRANCH  26  27
HETATM   27  C   UNK N   1      33.449  15.386   6.738  0.00  0.00     0.047 C 
BRANCH  27  28
HETATM   28  C   UNK N   1      33.969  14.935   8.110  0.00  0.00     0.182 C 
BRANCH  28  29
HETATM   29  O   UNK N   1      35.286  15.352   8.352  0.00  0.00    -0.297 OA
BRANCH  29  30
HETATM   30  P   UNK N   1      35.312  16.109   9.924  0.00  0.00     0.390 P 
HETATM   31  O   UNK N   1      35.098  17.636   9.736  0.00  0.00    -0.632 OA
BRANCH  30  32
HETATM   32  O   UNK N   1      34.054  15.518  10.964  0.00  0.00    -0.307 OA
HETATM   33  H   UNK N   1      33.105  15.348  10.864  0.00  0.00     0.222 HD
ENDBRANCH  30  32
BRANCH  30  34
HETATM   34  O   UNK N   1      36.870  15.923  10.663  0.00  0.00    -0.307 OA
HETATM   35  H   UNK N   1      37.438  16.649  10.963  0.00  0.00     0.222 HD
ENDBRANCH  30  34
ENDBRANCH  29  30
ENDBRANCH  28  29
ENDBRANCH  27  28
ENDBRANCH  26  27
ENDBRANCH  10  26
BRANCH   3  36
HETATM   36  O   UNK N   1      32.086  17.058   9.432  0.00  0.00    -0.344 OA
HETATM   37  H   UNK N   1      32.934  17.066   9.032  0.00  0.00     0.219 HD
ENDBRANCH   3  36
BRANCH   4  38
HETATM   38  O   UNK N   1      27.504  18.067   9.656  0.00  0.00    -0.332 OA
HETATM   39  H   UNK N   1      27.262  18.942   9.886  0.00  0.00     0.221 HD
ENDBRANCH   4  38
TORSDOF 18
ENDMDL
MODEL 4
REMARK VINA RESULT:      -5.6      6.412      9.505
REMARK  18 active torsions:
REMARK  status: ('A' for Active; 'I' for Inactive)
REMARK    1  A    between atoms: C_2  and  C_1 
REMARK    2  A    between atoms: C_3  and  C_1 
REMARK    3  A    between atoms: N_18  and  C_2 
REMARK    4  A    between atoms: O_30  and  C_3 
REMARK    5  A    between atoms: C_6  and  C_4 
REMARK    6  A    between atoms: N_19  and  C_4 
REMARK    7  A    between atoms: C_7  and  C_5 
REMARK    8  A    between atoms: O_20  and  C_5 
REMARK    9  A    between atoms: C_9  and  C_6 
REMARK   10  A    between atoms: C_6  and  O_21 
REMARK   11  A    between atoms: C_9  and  C_7 
REMARK   12  A    between atoms: C_7  and  O_22 
REMARK   13  A    between atoms: C_9  and  O_23 
REMARK   14  A    between atoms: O_24  and  C_11 
REMARK   15  A    between atoms: O_25  and  C_12 
REMARK   16  A    between atoms: P_31  and  O_27 
REMARK   17  A    between atoms: P_31  and  O_28 
REMARK   18  A    between atoms: P_31  and  O_30 
ROOT
HETATM    1  C   UNK N   1      29.752  17.123   6.992  0.00  0.00     0.135 A 
HETATM    2  C   UNK N   1      30.914  17.506   7.583  0.00  0.00     0.146 A 
HETATM    3  C   UNK N   1      28.540  17.358   7.635  0.00  0.00     0.174 A 
HETATM    4  C   UNK N   1      29.758  18.312   9.451  0.00  0.00     0.224 A 
HETATM    5  C   UNK N   1      31.387  16.635   5.682  0.00  0.00     0.331 A 
HETATM    6  N   UNK N   1      30.942  18.092   8.804  0.00  0.00    -0.306 N 
ATOM      7  HN  UNK N   1      31.828  18.361   9.232  1.00  0.00     0.171 HD
HETATM    8  N   UNK N   1      28.570  17.953   8.863  0.00  0.00    -0.301 N 
ATOM      9  HN  UNK N   1      27.694  18.134   9.354  1.00  0.00     0.171 HD
HETATM   10  N   UNK N   1      30.027  16.557   5.800  0.00  0.00    -0.292 N 
HETATM   11  N   UNK N   1      31.956  17.232   6.768  0.00  0.00    -0.281 N 
HETATM   12  O   UNK N   1      32.013  16.229   4.720  0.00  0.00    -0.246 OA
ENDROOT
BRANCH  11  13
HETATM   13  C   UNK N   1      33.382  17.501   6.943  0.00  0.00     0.170 C 
BRANCH  13  14
HETATM   14  C   UNK N   1      34.142  16.282   7.479  0.00  0.00     0.168 C 
BRANCH  14  15
HETATM   15  C   UNK N   1      34.762  16.608   8.857  0.00  0.00     0.179 C 
BRANCH  15  16
HETATM   16  C   UNK N   1      35.171  15.366   9.678  0.00  0.00     0.173 C 
BRANCH  16  17
HETATM   17  C   UNK N   1      33.988  14.472  10.030  0.00  0.00     0.198 C 
BRANCH  17  18
HETATM   18  O   UNK N   1      33.373  14.935  11.196  0.00  0.00    -0.398 OA
HETATM   19  H   UNK N   1      32.416  15.096  11.216  0.00  0.00     0.209 HD
ENDBRANCH  17  18
ENDBRANCH  16  17
BRANCH  16  20
HETATM   20  O   UNK N   1      36.113  14.622   8.957  0.00  0.00    -0.391 OA
HETATM   21  H   UNK N   1      36.431  13.707   9.015  0.00  0.00     0.210 HD
ENDBRANCH  16  20
ENDBRANCH  15  16
BRANCH  15  22
HETATM   22  O   UNK N   1      33.870  17.399   9.589  0.00  0.00    -0.390 OA
HETATM   23  H   UNK N   1      34.074  18.085  10.244  0.00  0.00     0.210 HD
ENDBRANCH  15  22
ENDBRANCH  14  15
BRANCH  14  24
HETATM   24  O   UNK N   1      35.144  15.954   6.570  0.00  0.00    -0.391 OA
HETATM   25  H   UNK N   1      35.134  15.107   6.095  0.00  0.00     0.210 HD
ENDBRANCH  14  24
ENDBRANCH  13  14
ENDBRANCH  11  13
BRANCH  10  26
HETATM   26  C   UNK N   1      29.089  15.995   4.839  0.00  0.00     0.136 C 
BRANCH  26  27
HETATM   27  C   UNK N   1      28.893  16.937   3.652  0.00  0.00     0.047 C 
BRANCH  27  28
HETATM   28  C   UNK N   1      27.762  17.955   3.850  0.00  0.00     0.182 C 
BRANCH  28  29
HETATM   29  O   UNK N   1      28.162  19.068   4.602  0.00  0.00    -0.297 OA
BRANCH  29  30
HETATM   30  P   UNK N   1      26.757  20.076   4.831  0.00  0.00     0.390 P 
HETATM   31  O   UNK N   1      27.195  21.366   5.578  0.00  0.00    -0.632 OA
BRANCH  30  32
HETATM   32  O   UNK N   1      26.031  20.550   3.327  0.00  0.00    -0.307 OA
HETATM   33  H   UNK N   1      25.664  20.078   2.564  0.00  0.00     0.222 HD
ENDBRANCH  30  32
BRANCH  30  34
HETATM   34  O   UNK N   1      25.602  19.287   5.857  0.00  0.00    -0.307 OA
HETATM   35  H   UNK N   1      25.211  18.415   5.694  0.00  0.00     0.222 HD
ENDBRANCH  30  34
ENDBRANCH  29  30
ENDBRANCH  28  29
ENDBRANCH  27  28
ENDBRANCH  26  27
ENDBRANCH  10  26
BRANCH   3  36
HETATM   36  O   UNK N   1      27.367  17.035   7.068  0.00  0.00    -0.344 OA
HETATM   37  H   UNK N   1      27.199  17.005   6.147  0.00  0.00     0.219 HD
ENDBRANCH   3  36
BRANCH   4  38
HETATM   38  O   UNK N   1      29.757  18.893  10.661  0.00  0.00    -0.332 OA
HETATM   39  H   UNK N   1      29.927  19.809  10.753  0.00  0.00     0.221 HD
ENDBRANCH   4  38
TORSDOF 18
ENDMDL
MODEL 5
REMARK VINA RESULT:      -5.5     12.973     15.960
REMARK  18 active torsions:
REMARK  status: ('A' for Active; 'I' for Inactive)
REMARK    1  A    between atoms: C_2  and  C_1 
REMARK    2  A    between atoms: C_3  and  C_1 
REMARK    3  A    between atoms: N_18  and  C_2 
REMARK    4  A    between atoms: O_30  and  C_3 
REMARK    5  A    between atoms: C_6  and  C_4 
REMARK    6  A    between atoms: N_19  and  C_4 
REMARK    7  A    between atoms: C_7  and  C_5 
REMARK    8  A    between atoms: O_20  and  C_5 
REMARK    9  A    between atoms: C_9  and  C_6 
REMARK   10  A    between atoms: C_6  and  O_21 
REMARK   11  A    between atoms: C_9  and  C_7 
REMARK   12  A    between atoms: C_7  and  O_22 
REMARK   13  A    between atoms: C_9  and  O_23 
REMARK   14  A    between atoms: O_24  and  C_11 
REMARK   15  A    between atoms: O_25  and  C_12 
REMARK   16  A    between atoms: P_31  and  O_27 
REMARK   17  A    between atoms: P_31  and  O_28 
REMARK   18  A    between atoms: P_31  and  O_30 
ROOT
HETATM    1  C   UNK N   1      21.384  18.409   3.017  0.00  0.00     0.135 A 
HETATM    2  C   UNK N   1      22.213  19.485   3.078  0.00  0.00     0.146 A 
HETATM    3  C   UNK N   1      20.221  18.475   2.255  0.00  0.00     0.174 A 
HETATM    4  C   UNK N   1      20.784  20.726   1.702  0.00  0.00     0.224 A 
HETATM    5  C   UNK N   1      23.080  17.907   4.242  0.00  0.00     0.331 A 
HETATM    6  N   UNK N   1      21.932  20.646   2.439  0.00  0.00    -0.306 N 
ATOM      7  HN  UNK N   1      22.564  21.444   2.508  1.00  0.00     0.171 HD
HETATM    8  N   UNK N   1      19.943  19.644   1.608  0.00  0.00    -0.301 N 
ATOM      9  HN  UNK N   1      19.096  19.716   1.045  1.00  0.00     0.171 HD
HETATM   10  N   UNK N   1      21.903  17.408   3.757  0.00  0.00    -0.292 N 
HETATM   11  N   UNK N   1      23.299  19.187   3.823  0.00  0.00    -0.281 N 
HETATM   12  O   UNK N   1      23.844  17.283   4.955  0.00  0.00    -0.246 OA
ENDROOT
BRANCH  11  13
HETATM   13  C   UNK N   1      24.477  19.995   4.133  0.00  0.00     0.170 C 
BRANCH  13  14
HETATM   14  C   UNK N   1      25.531  19.938   3.022  0.00  0.00     0.168 C 
BRANCH  14  15
HETATM   15  C   UNK N   1      26.949  20.020   3.632  0.00  0.00     0.179 C 
BRANCH  15  16
HETATM   16  C   UNK N   1      27.549  18.652   4.026  0.00  0.00     0.173 C 
BRANCH  16  17
HETATM   17  C   UNK N   1      27.757  18.508   5.529  0.00  0.00     0.198 C 
BRANCH  17  18
HETATM   18  O   UNK N   1      26.557  18.140   6.143  0.00  0.00    -0.398 OA
HETATM   19  H   UNK N   1      26.107  17.318   5.889  0.00  0.00     0.209 HD
ENDBRANCH  17  18
ENDBRANCH  16  17
BRANCH  16  20
HETATM   20  O   UNK N   1      26.708  17.628   3.576  0.00  0.00    -0.391 OA
HETATM   21  H   UNK N   1      25.767  17.429   3.702  0.00  0.00     0.210 HD
ENDBRANCH  16  20
ENDBRANCH  15  16
BRANCH  15  22
HETATM   22  O   UNK N   1      26.927  20.876   4.738  0.00  0.00    -0.390 OA
HETATM   23  H   UNK N   1      27.619  21.486   5.039  0.00  0.00     0.210 HD
ENDBRANCH  15  22
ENDBRANCH  14  15
BRANCH  14  24
HETATM   24  O   UNK N   1      25.319  21.011   2.160  0.00  0.00    -0.391 OA
HETATM   25  H   UNK N   1      24.422  21.325   1.961  0.00  0.00     0.210 HD
ENDBRANCH  14  24
ENDBRANCH  13  14
ENDBRANCH  11  13
BRANCH  10  26
HETATM   26  C   UNK N   1      21.347  16.083   3.984  0.00  0.00     0.136 C 
BRANCH  26  27
HETATM   27  C   UNK N   1      20.510  16.052   5.262  0.00  0.00     0.047 C 
BRANCH  27  28
HETATM   28  C   UNK N   1      21.047  15.089   6.330  0.00  0.00     0.182 C 
BRANCH  28  29
HETATM   29  O   UNK N   1      20.032  14.561   7.141  0.00  0.00    -0.297 OA
BRANCH  29  30
HETATM   30  P   UNK N   1      20.419  14.970   8.792  0.00  0.00     0.390 P 
HETATM   31  O   UNK N   1      19.217  14.570   9.690  0.00  0.00    -0.632 OA
BRANCH  30  32
HETATM   32  O   UNK N   1      21.822  14.128   9.371  0.00  0.00    -0.307 OA
HETATM   33  H   UNK N   1      22.706  14.392   9.670  0.00  0.00     0.222 HD
ENDBRANCH  30  32
BRANCH  30  34
HETATM   34  O   UNK N   1      20.608  16.686   8.966  0.00  0.00    -0.307 OA
HETATM   35  H   UNK N   1      21.428  17.136   9.221  0.00  0.00     0.222 HD
ENDBRANCH  30  34
ENDBRANCH  29  30
ENDBRANCH  28  29
ENDBRANCH  27  28
ENDBRANCH  26  27
ENDBRANCH  10  26
BRANCH   3  36
HETATM   36  O   UNK N   1      19.398  17.422   2.133  0.00  0.00    -0.344 OA
HETATM   37  H   UNK N   1      19.424  16.790   1.442  0.00  0.00     0.219 HD
ENDBRANCH   3  36
BRANCH   4  38
HETATM   38  O   UNK N   1      20.483  21.864   1.057  0.00  0.00    -0.332 OA
HETATM   39  H   UNK N   1      20.752  22.694   1.398  0.00  0.00     0.221 HD
ENDBRANCH   4  38
TORSDOF 18
ENDMDL
MODEL 6
REMARK VINA RESULT:      -5.5      6.537      9.683
REMARK  18 active torsions:
REMARK  status: ('A' for Active; 'I' for Inactive)
REMARK    1  A    between atoms: C_2  and  C_1 
REMARK    2  A    between atoms: C_3  and  C_1 
REMARK    3  A    between atoms: N_18  and  C_2 
REMARK    4  A    between atoms: O_30  and  C_3 
REMARK    5  A    between atoms: C_6  and  C_4 
REMARK    6  A    between atoms: N_19  and  C_4 
REMARK    7  A    between atoms: C_7  and  C_5 
REMARK    8  A    between atoms: O_20  and  C_5 
REMARK    9  A    between atoms: C_9  and  C_6 
REMARK   10  A    between atoms: C_6  and  O_21 
REMARK   11  A    between atoms: C_9  and  C_7 
REMARK   12  A    between atoms: C_7  and  O_22 
REMARK   13  A    between atoms: C_9  and  O_23 
REMARK   14  A    between atoms: O_24  and  C_11 
REMARK   15  A    between atoms: O_25  and  C_12 
REMARK   16  A    between atoms: P_31  and  O_27 
REMARK   17  A    between atoms: P_31  and  O_28 
REMARK   18  A    between atoms: P_31  and  O_30 
ROOT
HETATM    1  C   UNK N   1      32.003  17.226   6.068  0.00  0.00     0.135 A 
HETATM    2  C   UNK N   1      30.877  17.212   5.306  0.00  0.00     0.146 A 
HETATM    3  C   UNK N   1      33.250  17.290   5.455  0.00  0.00     0.174 A 
HETATM    4  C   UNK N   1      32.146  17.275   3.341  0.00  0.00     0.224 A 
HETATM    5  C   UNK N   1      30.289  17.171   7.367  0.00  0.00     0.331 A 
HETATM    6  N   UNK N   1      30.924  17.229   3.953  0.00  0.00    -0.306 N 
ATOM      7  HN  UNK N   1      30.066  17.208   3.401  1.00  0.00     0.171 HD
HETATM    8  N   UNK N   1      33.295  17.313   4.090  0.00  0.00    -0.301 N 
ATOM      9  HN  UNK N   1      34.199  17.358   3.620  1.00  0.00     0.171 HD
HETATM   10  N   UNK N   1      31.656  17.185   7.370  0.00  0.00    -0.292 N 
HETATM   11  N   UNK N   1      29.785  17.202   6.100  0.00  0.00    -0.281 N 
HETATM   12  O   UNK N   1      29.604  17.143   8.373  0.00  0.00    -0.246 OA
ENDROOT
BRANCH  11  13
HETATM   13  C   UNK N   1      28.366  17.231   5.749  0.00  0.00     0.170 C 
BRANCH  13  14
HETATM   14  C   UNK N   1      27.903  18.628   5.319  0.00  0.00     0.168 C 
BRANCH  14  15
HETATM   15  C   UNK N   1      26.877  19.182   6.334  0.00  0.00     0.179 C 
BRANCH  15  16
HETATM   16  C   UNK N   1      26.334  20.585   5.985  0.00  0.00     0.173 C 
BRANCH  16  17
HETATM   17  C   UNK N   1      26.446  21.569   7.144  0.00  0.00     0.198 C 
BRANCH  17  18
HETATM   18  O   UNK N   1      25.669  21.129   8.218  0.00  0.00    -0.398 OA
HETATM   19  H   UNK N   1      25.923  21.344   9.129  0.00  0.00     0.209 HD
ENDBRANCH  17  18
ENDBRANCH  16  17
BRANCH  16  20
HETATM   20  O   UNK N   1      27.030  21.091   4.881  0.00  0.00    -0.391 OA
HETATM   21  H   UNK N   1      27.968  21.253   4.697  0.00  0.00     0.210 HD
ENDBRANCH  16  20
ENDBRANCH  15  16
BRANCH  15  22
HETATM   22  O   UNK N   1      27.448  19.188   7.611  0.00  0.00    -0.390 OA
HETATM   23  H   UNK N   1      27.083  19.556   8.431  0.00  0.00     0.210 HD
ENDBRANCH  15  22
ENDBRANCH  14  15
BRANCH  14  24
HETATM   24  O   UNK N   1      27.320  18.529   4.058  0.00  0.00    -0.391 OA
HETATM   25  H   UNK N   1      27.459  17.746   3.501  0.00  0.00     0.210 HD
ENDBRANCH  14  24
ENDBRANCH  13  14
ENDBRANCH  11  13
BRANCH  10  26
HETATM   26  C   UNK N   1      32.536  17.170   8.530  0.00  0.00     0.136 C 
BRANCH  26  27
HETATM   27  C   UNK N   1      32.660  15.760   9.104  0.00  0.00     0.047 C 
BRANCH  27  28
HETATM   28  C   UNK N   1      33.962  15.046   8.715  0.00  0.00     0.182 C 
BRANCH  28  29
HETATM   29  O   UNK N   1      35.085  15.878   8.815  0.00  0.00    -0.297 OA
BRANCH  29  30
HETATM   30  P   UNK N   1      35.615  15.842  10.477  0.00  0.00     0.390 P 
HETATM   31  O   UNK N   1      35.021  14.575  11.152  0.00  0.00    -0.632 OA
BRANCH  30  32
HETATM   32  O   UNK N   1      37.343  15.763  10.619  0.00  0.00    -0.307 OA
HETATM   33  H   UNK N   1      37.971  15.139  11.015  0.00  0.00     0.222 HD
ENDBRANCH  30  32
BRANCH  30  34
HETATM   34  O   UNK N   1      34.980  17.201  11.348  0.00  0.00    -0.307 OA
HETATM   35  H   UNK N   1      35.383  18.082  11.382  0.00  0.00     0.222 HD
ENDBRANCH  30  34
ENDBRANCH  29  30
ENDBRANCH  28  29
ENDBRANCH  27  28
ENDBRANCH  26  27
ENDBRANCH  10  26
BRANCH   3  36
HETATM   36  O   UNK N   1      34.384  17.350   6.170  0.00  0.00    -0.344 OA
HETATM   37  H   UNK N   1      34.548  17.939   6.880  0.00  0.00     0.219 HD
ENDBRANCH   3  36
BRANCH   4  38
HETATM   38  O   UNK N   1      32.221  17.296   2.001  0.00  0.00    -0.332 OA
HETATM   39  H   UNK N   1      32.477  18.074   1.547  0.00  0.00     0.221 HD
ENDBRANCH   4  38
TORSDOF 18
ENDMDL
MODEL 7
REMARK VINA RESULT:      -5.4     12.870     16.158
REMARK  18 active torsions:
REMARK  status: ('A' for Active; 'I' for Inactive)
REMARK    1  A    between atoms: C_2  and  C_1 
REMARK    2  A    between atoms: C_3  and  C_1 
REMARK    3  A    between atoms: N_18  and  C_2 
REMARK    4  A    between atoms: O_30  and  C_3 
REMARK    5  A    between atoms: C_6  and  C_4 
REMARK    6  A    between atoms: N_19  and  C_4 
REMARK    7  A    between atoms: C_7  and  C_5 
REMARK    8  A    between atoms: O_20  and  C_5 
REMARK    9  A    between atoms: C_9  and  C_6 
REMARK   10  A    between atoms: C_6  and  O_21 
REMARK   11  A    between atoms: C_9  and  C_7 
REMARK   12  A    between atoms: C_7  and  O_22 
REMARK   13  A    between atoms: C_9  and  O_23 
REMARK   14  A    between atoms: O_24  and  C_11 
REMARK   15  A    between atoms: O_25  and  C_12 
REMARK   16  A    between atoms: P_31  and  O_27 
REMARK   17  A    between atoms: P_31  and  O_28 
REMARK   18  A    between atoms: P_31  and  O_30 
ROOT
HETATM    1  C   UNK N   1      22.004  18.561   3.894  0.00  0.00     0.135 A 
HETATM    2  C   UNK N   1      21.134  17.531   4.067  0.00  0.00     0.146 A 
HETATM    3  C   UNK N   1      21.603  19.694   3.193  0.00  0.00     0.174 A 
HETATM    4  C   UNK N   1      19.485  18.654   2.845  0.00  0.00     0.224 A 
HETATM    5  C   UNK N   1      22.968  17.030   5.058  0.00  0.00     0.331 A 
HETATM    6  N   UNK N   1      19.882  17.552   3.550  0.00  0.00    -0.306 N 
ATOM      7  HN  UNK N   1      19.250  16.763   3.684  1.00  0.00     0.171 HD
HETATM    8  N   UNK N   1      20.339  19.716   2.678  0.00  0.00    -0.301 N 
ATOM      9  HN  UNK N   1      20.024  20.535   2.158  1.00  0.00     0.171 HD
HETATM   10  N   UNK N   1      23.172  18.260   4.497  0.00  0.00    -0.292 N 
HETATM   11  N   UNK N   1      21.708  16.565   4.816  0.00  0.00    -0.281 N 
HETATM   12  O   UNK N   1      23.806  16.425   5.702  0.00  0.00    -0.246 OA
ENDROOT
BRANCH  11  13
HETATM   13  C   UNK N   1      21.159  15.301   5.302  0.00  0.00     0.170 C 
BRANCH  13  14
HETATM   14  C   UNK N   1      20.664  15.401   6.750  0.00  0.00     0.168 C 
BRANCH  14  15
HETATM   15  C   UNK N   1      19.541  16.457   6.855  0.00  0.00     0.179 C 
BRANCH  15  16
HETATM   16  C   UNK N   1      19.064  16.734   8.297  0.00  0.00     0.173 C 
BRANCH  16  17
HETATM   17  C   UNK N   1      19.572  18.063   8.845  0.00  0.00     0.198 C 
BRANCH  17  18
HETATM   18  O   UNK N   1      20.435  18.659   7.922  0.00  0.00    -0.398 OA
HETATM   19  H   UNK N   1      21.309  18.275   7.747  0.00  0.00     0.209 HD
ENDBRANCH  17  18
ENDBRANCH  16  17
BRANCH  16  20
HETATM   20  O   UNK N   1      17.665  16.724   8.335  0.00  0.00    -0.391 OA
HETATM   21  H   UNK N   1      16.989  17.419   8.320  0.00  0.00     0.210 HD
ENDBRANCH  16  20
ENDBRANCH  15  16
BRANCH  15  22
HETATM   22  O   UNK N   1      18.461  16.065   6.056  0.00  0.00    -0.390 OA
HETATM   23  H   UNK N   1      17.535  15.940   6.316  0.00  0.00     0.210 HD
ENDBRANCH  15  22
ENDBRANCH  14  15
BRANCH  14  24
HETATM   24  O   UNK N   1      21.739  15.764   7.557  0.00  0.00    -0.391 OA
HETATM   25  H   UNK N   1      21.955  16.698   7.714  0.00  0.00     0.210 HD
ENDBRANCH  14  24
ENDBRANCH  13  14
ENDBRANCH  11  13
BRANCH  10  26
HETATM   26  C   UNK N   1      24.383  19.065   4.555  0.00  0.00     0.136 C 
BRANCH  26  27
HETATM   27  C   UNK N   1      25.353  18.674   3.441  0.00  0.00     0.047 C 
BRANCH  27  28
HETATM   28  C   UNK N   1      26.552  17.848   3.926  0.00  0.00     0.182 C 
BRANCH  28  29
HETATM   29  O   UNK N   1      27.564  18.641   4.484  0.00  0.00    -0.297 OA
BRANCH  29  30
HETATM   30  P   UNK N   1      27.696  18.208   6.169  0.00  0.00     0.390 P 
HETATM   31  O   UNK N   1      29.148  17.728   6.439  0.00  0.00    -0.632 OA
BRANCH  30  32
HETATM   32  O   UNK N   1      27.371  19.548   7.224  0.00  0.00    -0.307 OA
HETATM   33  H   UNK N   1      26.569  19.992   7.541  0.00  0.00     0.222 HD
ENDBRANCH  30  32
BRANCH  30  34
HETATM   34  O   UNK N   1      26.662  16.863   6.535  0.00  0.00    -0.307 OA
HETATM   35  H   UNK N   1      26.399  16.585   7.425  0.00  0.00     0.222 HD
ENDBRANCH  30  34
ENDBRANCH  29  30
ENDBRANCH  28  29
ENDBRANCH  27  28
ENDBRANCH  26  27
ENDBRANCH  10  26
BRANCH   3  36
HETATM   36  O   UNK N   1      22.415  20.751   3.037  0.00  0.00    -0.344 OA
HETATM   37  H   UNK N   1      22.782  21.261   3.732  0.00  0.00     0.219 HD
ENDBRANCH   3  36
BRANCH   4  38
HETATM   38  O   UNK N   1      18.249  18.702   2.325  0.00  0.00    -0.332 OA
HETATM   39  H   UNK N   1      17.521  18.328   2.781  0.00  0.00     0.221 HD
ENDBRANCH   4  38
TORSDOF 18
ENDMDL
MODEL 8
REMARK VINA RESULT:      -5.4      2.576      6.259
REMARK  18 active torsions:
REMARK  status: ('A' for Active; 'I' for Inactive)
REMARK    1  A    between atoms: C_2  and  C_1 
REMARK    2  A    between atoms: C_3  and  C_1 
REMARK    3  A    between atoms: N_18  and  C_2 
REMARK    4  A    between atoms: O_30  and  C_3 
REMARK    5  A    between atoms: C_6  and  C_4 
REMARK    6  A    between atoms: N_19  and  C_4 
REMARK    7  A    between atoms: C_7  and  C_5 
REMARK    8  A    between atoms: O_20  and  C_5 
REMARK    9  A    between atoms: C_9  and  C_6 
REMARK   10  A    between atoms: C_6  and  O_21 
REMARK   11  A    between atoms: C_9  and  C_7 
REMARK   12  A    between atoms: C_7  and  O_22 
REMARK   13  A    between atoms: C_9  and  O_23 
REMARK   14  A    between atoms: O_24  and  C_11 
REMARK   15  A    between atoms: O_25  and  C_12 
REMARK   16  A    between atoms: P_31  and  O_27 
REMARK   17  A    between atoms: P_31  and  O_28 
REMARK   18  A    between atoms: P_31  and  O_30 
ROOT
HETATM    1  C   UNK N   1      36.280  13.885  11.167  0.00  0.00     0.135 A 
HETATM    2  C   UNK N   1      36.214  12.812  11.999  0.00  0.00     0.146 A 
HETATM    3  C   UNK N   1      36.462  15.159  11.697  0.00  0.00     0.174 A 
HETATM    4  C   UNK N   1      36.453  14.190  13.875  0.00  0.00     0.224 A 
HETATM    5  C   UNK N   1      36.044  12.105   9.982  0.00  0.00     0.331 A 
HETATM    6  N   UNK N   1      36.291  12.939  13.345  0.00  0.00    -0.306 N 
ATOM      7  HN  UNK N   1      36.228  12.121  13.951  1.00  0.00     0.171 HD
HETATM    8  N   UNK N   1      36.545  15.285  13.053  0.00  0.00    -0.301 N 
ATOM      9  HN  UNK N   1      36.676  16.209  13.463  1.00  0.00     0.171 HD
HETATM   10  N   UNK N   1      36.159  13.464   9.892  0.00  0.00    -0.292 N 
HETATM   11  N   UNK N   1      36.090  11.677  11.277  0.00  0.00    -0.281 N 
HETATM   12  O   UNK N   1      35.924  11.364   9.024  0.00  0.00    -0.246 OA
ENDROOT
BRANCH  11  13
HETATM   13  C   UNK N   1      36.028  10.285  11.717  0.00  0.00     0.170 C 
BRANCH  13  14
HETATM   14  C   UNK N   1      34.715   9.960  12.438  0.00  0.00     0.168 C 
BRANCH  14  15
HETATM   15  C   UNK N   1      34.988   9.661  13.930  0.00  0.00     0.179 C 
BRANCH  15  16
HETATM   16  C   UNK N   1      34.130  10.491  14.910  0.00  0.00     0.173 C 
BRANCH  16  17
HETATM   17  C   UNK N   1      34.790  10.667  16.272  0.00  0.00     0.198 C 
BRANCH  17  18
HETATM   18  O   UNK N   1      35.644  11.772  16.247  0.00  0.00    -0.398 OA
HETATM   19  H   UNK N   1      35.777  12.273  15.427  0.00  0.00     0.209 HD
ENDBRANCH  17  18
ENDBRANCH  16  17
BRANCH  16  20
HETATM   20  O   UNK N   1      33.875  11.750  14.354  0.00  0.00    -0.391 OA
HETATM   21  H   UNK N   1      33.109  12.142  13.907  0.00  0.00     0.210 HD
ENDBRANCH  16  20
ENDBRANCH  15  16
BRANCH  15  22
HETATM   22  O   UNK N   1      36.348   9.851  14.197  0.00  0.00    -0.390 OA
HETATM   23  H   UNK N   1      37.021   9.181  14.396  0.00  0.00     0.210 HD
ENDBRANCH  15  22
ENDBRANCH  14  15
BRANCH  14  24
HETATM   24  O   UNK N   1      34.141   8.849  11.825  0.00  0.00    -0.391 OA
HETATM   25  H   UNK N   1      33.970   8.834  10.870  0.00  0.00     0.210 HD
ENDBRANCH  14  24
ENDBRANCH  13  14
ENDBRANCH  11  13
BRANCH  10  26
HETATM   26  C   UNK N   1      36.162  14.270   8.680  0.00  0.00     0.136 C 
BRANCH  26  27
HETATM   27  C   UNK N   1      34.786  14.263   8.015  0.00  0.00     0.047 C 
BRANCH  27  28
HETATM   28  C   UNK N   1      33.940  15.504   8.332  0.00  0.00     0.182 C 
BRANCH  28  29
HETATM   29  O   UNK N   1      34.694  16.543   8.896  0.00  0.00    -0.297 OA
BRANCH  29  30
HETATM   30  P   UNK N   1      34.255  18.014   8.068  0.00  0.00     0.390 P 
HETATM   31  O   UNK N   1      34.470  17.802   6.545  0.00  0.00    -0.632 OA
BRANCH  30  32
HETATM   32  O   UNK N   1      32.592  18.444   8.320  0.00  0.00    -0.307 OA
HETATM   33  H   UNK N   1      32.132  19.152   8.796  0.00  0.00     0.222 HD
ENDBRANCH  30  32
BRANCH  30  34
HETATM   34  O   UNK N   1      35.310  19.311   8.532  0.00  0.00    -0.307 OA
HETATM   35  H   UNK N   1      36.106  19.218   9.079  0.00  0.00     0.222 HD
ENDBRANCH  30  34
ENDBRANCH  29  30
ENDBRANCH  28  29
ENDBRANCH  27  28
ENDBRANCH  26  27
ENDBRANCH  10  26
BRANCH   3  36
HETATM   36  O   UNK N   1      36.577  16.239  10.908  0.00  0.00    -0.344 OA
HETATM   37  H   UNK N   1      36.923  16.243  10.038  0.00  0.00     0.219 HD
ENDBRANCH   3  36
BRANCH   4  38
HETATM   38  O   UNK N   1      36.534  14.344  15.206  0.00  0.00    -0.332 OA
HETATM   39  H   UNK N   1      36.341  13.633  15.784  0.00  0.00     0.221 HD
ENDBRANCH   4  38
TORSDOF 18
ENDMDL
MODEL 9
REMARK VINA RESULT:      -5.3     18.954     22.204
REMARK  18 active torsions:
REMARK  status: ('A' for Active; 'I' for Inactive)
REMARK    1  A    between atoms: C_2  and  C_1 
REMARK    2  A    between atoms: C_3  and  C_1 
REMARK    3  A    between atoms: N_18  and  C_2 
REMARK    4  A    between atoms: O_30  and  C_3 
REMARK    5  A    between atoms: C_6  and  C_4 
REMARK    6  A    between atoms: N_19  and  C_4 
REMARK    7  A    between atoms: C_7  and  C_5 
REMARK    8  A    between atoms: O_20  and  C_5 
REMARK    9  A    between atoms: C_9  and  C_6 
REMARK   10  A    between atoms: C_6  and  O_21 
REMARK   11  A    between atoms: C_9  and  C_7 
REMARK   12  A    between atoms: C_7  and  O_22 
REMARK   13  A    between atoms: C_9  and  O_23 
REMARK   14  A    between atoms: O_24  and  C_11 
REMARK   15  A    between atoms: O_25  and  C_12 
REMARK   16  A    between atoms: P_31  and  O_27 
REMARK   17  A    between atoms: P_31  and  O_28 
REMARK   18  A    between atoms: P_31  and  O_30 
ROOT
HETATM    1  C   UNK N   1      27.476  22.337  -7.093  0.00  0.00     0.135 A 
HETATM    2  C   UNK N   1      26.501  22.990  -6.407  0.00  0.00     0.146 A 
HETATM    3  C   UNK N   1      27.144  21.582  -8.214  0.00  0.00     0.174 A 
HETATM    4  C   UNK N   1      24.858  22.156  -7.850  0.00  0.00     0.224 A 
HETATM    5  C   UNK N   1      28.380  23.423  -5.471  0.00  0.00     0.331 A 
HETATM    6  N   UNK N   1      25.196  22.909  -6.760  0.00  0.00    -0.306 N 
ATOM      7  HN  UNK N   1      24.479  23.399  -6.223  1.00  0.00     0.171 HD
HETATM    8  N   UNK N   1      25.829  21.507  -8.571  0.00  0.00    -0.301 N 
ATOM      9  HN  UNK N   1      25.562  20.957  -9.388  1.00  0.00     0.171 HD
HETATM   10  N   UNK N   1      28.667  22.583  -6.511  0.00  0.00    -0.292 N 
HETATM   11  N   UNK N   1      27.046  23.699  -5.396  0.00  0.00    -0.281 N 
HETATM   12  O   UNK N   1      29.214  23.875  -4.708  0.00  0.00    -0.246 OA
ENDROOT
BRANCH  11  13
HETATM   13  C   UNK N   1      26.414  24.588  -4.422  0.00  0.00     0.170 C 
BRANCH  13  14
HETATM   14  C   UNK N   1      26.470  26.057  -4.855  0.00  0.00     0.168 C 
BRANCH  14  15
HETATM   15  C   UNK N   1      27.152  26.907  -3.758  0.00  0.00     0.179 C 
BRANCH  15  16
HETATM   16  C   UNK N   1      26.792  28.409  -3.805  0.00  0.00     0.173 C 
BRANCH  16  17
HETATM   17  C   UNK N   1      26.948  29.012  -5.196  0.00  0.00     0.198 C 
BRANCH  17  18
HETATM   18  O   UNK N   1      28.301  29.070  -5.540  0.00  0.00    -0.398 OA
HETATM   19  H   UNK N   1      28.925  28.411  -5.196  0.00  0.00     0.209 HD
ENDBRANCH  17  18
ENDBRANCH  16  17
BRANCH  16  20
HETATM   20  O   UNK N   1      25.474  28.585  -3.370  0.00  0.00    -0.391 OA
HETATM   21  H   UNK N   1      24.823  28.002  -2.949  0.00  0.00     0.210 HD
ENDBRANCH  16  20
ENDBRANCH  15  16
BRANCH  15  22
HETATM   22  O   UNK N   1      28.538  26.739  -3.839  0.00  0.00    -0.390 OA
HETATM   23  H   UNK N   1      29.121  26.910  -4.596  0.00  0.00     0.210 HD
ENDBRANCH  15  22
ENDBRANCH  14  15
BRANCH  14  24
HETATM   24  O   UNK N   1      25.167  26.504  -5.063  0.00  0.00    -0.391 OA
HETATM   25  H   UNK N   1      24.731  27.095  -4.428  0.00  0.00     0.210 HD
ENDBRANCH  14  24
ENDBRANCH  13  14
ENDBRANCH  11  13
BRANCH  10  26
HETATM   26  C   UNK N   1      29.975  22.081  -6.903  0.00  0.00     0.136 C 
BRANCH  26  27
HETATM   27  C   UNK N   1      30.239  20.705  -6.292  0.00  0.00     0.047 C 
BRANCH  27  28
HETATM   28  C   UNK N   1      31.303  20.713  -5.186  0.00  0.00     0.182 C 
BRANCH  28  29
HETATM   29  O   UNK N   1      30.746  20.743  -3.900  0.00  0.00    -0.297 OA
BRANCH  29  30
HETATM   30  P   UNK N   1      31.650  21.908  -2.967  0.00  0.00     0.390 P 
HETATM   31  O   UNK N   1      30.684  22.578  -1.952  0.00  0.00    -0.632 OA
BRANCH  30  32
HETATM   32  O   UNK N   1      32.944  21.177  -2.071  0.00  0.00    -0.307 OA
HETATM   33  H   UNK N   1      33.329  20.288  -2.024  0.00  0.00     0.222 HD
ENDBRANCH  30  32
BRANCH  30  34
HETATM   34  O   UNK N   1      32.241  23.179  -3.989  0.00  0.00    -0.307 OA
HETATM   35  H   UNK N   1      33.102  23.184  -4.435  0.00  0.00     0.222 HD
ENDBRANCH  30  34
ENDBRANCH  29  30
ENDBRANCH  28  29
ENDBRANCH  27  28
ENDBRANCH  26  27
ENDBRANCH  10  26
BRANCH   3  36
HETATM   36  O   UNK N   1      28.081  20.958  -8.945  0.00  0.00    -0.344 OA
HETATM   37  H   UNK N   1      28.999  21.143  -8.925  0.00  0.00     0.219 HD
ENDBRANCH   3  36
BRANCH   4  38
HETATM   38  O   UNK N   1      23.572  22.061  -8.223  0.00  0.00    -0.332 OA
HETATM   39  H   UNK N   1      23.251  21.290  -8.647  0.00  0.00     0.221 HD
ENDBRANCH   4  38
TORSDOF 18
ENDMDL
