MODEL 1
REMARK VINA RESULT:      -8.1      0.000      0.000
REMARK  7 active torsions:
REMARK  status: ('A' for Active; 'I' for Inactive)
REMARK    1  A    between atoms: O_34  and  C_3 
REMARK       I    between atoms: N_28  and  C_18 
REMARK    2  A    between atoms: C_20  and  C_19 
REMARK    3  A    between atoms: N_30  and  C_21 
REMARK    4  A    between atoms: O_34  and  C_22 
REMARK    5  A    between atoms: S_35  and  C_23 
REMARK    6  A    between atoms: S_35  and  C_24 
REMARK    7  A    between atoms: N_29  and  C_25 
ROOT
HETATM    1  C   UNK N   1      27.500  18.704   5.511  0.00  0.00     0.014 C 
HETATM    2  C   UNK N   1      28.506  17.945   5.997  0.00  0.00     0.022 C 
HETATM    3  C   UNK N   1      27.774  17.737   3.320  0.00  0.00     0.049 C 
HETATM    4  C   UNK N   1      27.045  18.548   4.204  0.00  0.00    -0.023 C 
HETATM    5  C   UNK N   1      28.876  16.983   3.809  0.00  0.00     0.120 C 
HETATM    6  C   UNK N   1      29.154  17.024   5.206  0.00  0.00     0.038 C 
ENDROOT
BRANCH   4   7
HETATM    7  C   UNK N   1      25.696  19.080   3.941  0.00  0.00    -0.021 A 
HETATM    8  C   UNK N   1      25.382  20.231   3.210  0.00  0.00     0.029 A 
HETATM    9  C   UNK N   1      24.019  20.528   2.980  0.00  0.00     0.090 A 
HETATM   10  N   UNK N   1      23.032  19.695   3.446  0.00  0.00    -0.352 N 
HETATM   11  C   UNK N   1      23.351  18.550   4.113  0.00  0.00     0.103 A 
ATOM     12  HN  UNK N   1      22.053  19.935   3.292  1.00  0.00     0.166 HD
HETATM   13  C   UNK N   1      24.661  18.261   4.349  0.00  0.00     0.060 A 
BRANCH  11  14
HETATM   14  N   UNK N   1      22.380  17.643   4.608  0.00  0.00    -0.364 N 
HETATM   15  C   UNK N   1      22.736  16.241   4.783  0.00  0.00     0.144 C 
HETATM   16  C   UNK N   1      22.720  15.905   6.262  0.00  0.00     0.145 C 
HETATM   17  N   UNK N   1      21.443  16.332   6.778  0.00  0.00    -0.349 N 
HETATM   18  C   UNK N   1      21.078  17.731   6.635  0.00  0.00     0.145 C 
HETATM   19  C   UNK N   1      20.562  15.429   7.285  0.00  0.00     0.215 C 
HETATM   20  C   UNK N   1      21.127  18.111   5.147  0.00  0.00     0.144 C 
HETATM   21  C   UNK N   1      20.905  13.971   7.355  0.00  0.00     0.117 C 
HETATM   22  O   UNK N   1      19.462  15.794   7.669  0.00  0.00    -0.274 OA
ENDBRANCH  11  14
ENDBRANCH   4   7
BRANCH   5  23
HETATM   23  N   UNK N   1      29.617  16.158   2.909  0.00  0.00    -0.114 N 
HETATM   24  O   UNK N   1      30.750  16.432   2.637  0.00  0.00    -0.532 OA
HETATM   25  O   UNK N   1      29.063  15.307   2.286  0.00  0.00    -0.532 OA
ENDBRANCH   5  23
BRANCH   6  26
HETATM   26  S   UNK N   1      30.100  15.742   6.066  0.00  0.00    -0.085 SA
BRANCH  26  27
HETATM   27  C   UNK N   1      31.523  16.731   6.616  0.00  0.00     0.039 A 
HETATM   28  C   UNK N   1      32.598  16.974   5.737  0.00  0.00     0.021 A 
HETATM   29  C   UNK N   1      33.757  17.609   6.184  0.00  0.00     0.002 A 
HETATM   30  C   UNK N   1      33.852  18.014   7.513  0.00  0.00     0.003 A 
HETATM   31  C   UNK N   1      32.773  17.828   8.381  0.00  0.00     0.038 A 
HETATM   32  C   UNK N   1      31.596  17.208   7.942  0.00  0.00     0.085 A 
BRANCH  32  33
HETATM   33  O   UNK N   1      30.562  17.099   8.818  0.00  0.00    -0.350 OA
BRANCH  33  34
HETATM   34  C   UNK N   1      29.941  18.187   9.400  0.00  0.00     0.171 C 
HETATM   35  C   UNK N   1      28.442  17.973   9.487  0.00  0.00     0.034 C 
ENDBRANCH  33  34
ENDBRANCH  32  33
ENDBRANCH  26  27
ENDBRANCH   6  26
TORSDOF 7
ENDMDL
MODEL 2
REMARK VINA RESULT:      -7.9      1.282      2.424
REMARK  7 active torsions:
REMARK  status: ('A' for Active; 'I' for Inactive)
REMARK    1  A    between atoms: O_34  and  C_3 
REMARK       I    between atoms: N_28  and  C_18 
REMARK    2  A    between atoms: C_20  and  C_19 
REMARK    3  A    between atoms: N_30  and  C_21 
REMARK    4  A    between atoms: O_34  and  C_22 
REMARK    5  A    between atoms: S_35  and  C_23 
REMARK    6  A    between atoms: S_35  and  C_24 
REMARK    7  A    between atoms: N_29  and  C_25 
ROOT
HETATM    1  C   UNK N   1      27.743  18.849   4.269  0.00  0.00     0.014 C 
HETATM    2  C   UNK N   1      28.824  18.212   4.769  0.00  0.00     0.022 C 
HETATM    3  C   UNK N   1      26.865  16.774   3.411  0.00  0.00     0.049 C 
HETATM    4  C   UNK N   1      26.699  18.142   3.676  0.00  0.00    -0.023 C 
HETATM    5  C   UNK N   1      28.031  16.107   3.878  0.00  0.00     0.120 C 
HETATM    6  C   UNK N   1      28.960  16.846   4.667  0.00  0.00     0.038 C 
ENDROOT
BRANCH   4   7
HETATM    7  C   UNK N   1      25.419  18.868   3.591  0.00  0.00    -0.021 A 
HETATM    8  C   UNK N   1      25.208  20.119   3.002  0.00  0.00     0.029 A 
HETATM    9  C   UNK N   1      23.885  20.611   2.929  0.00  0.00     0.090 A 
HETATM   10  N   UNK N   1      22.834  19.868   3.405  0.00  0.00    -0.352 N 
HETATM   11  C   UNK N   1      23.045  18.627   3.929  0.00  0.00     0.103 A 
ATOM     12  HN  UNK N   1      21.887  20.246   3.366  1.00  0.00     0.166 HD
HETATM   13  C   UNK N   1      24.318  18.150   4.015  0.00  0.00     0.060 A 
BRANCH  11  14
HETATM   14  N   UNK N   1      22.001  17.806   4.426  0.00  0.00    -0.364 N 
HETATM   15  C   UNK N   1      21.565  16.656   3.645  0.00  0.00     0.144 C 
HETATM   16  C   UNK N   1      21.914  15.385   4.395  0.00  0.00     0.145 C 
HETATM   17  N   UNK N   1      21.379  15.520   5.728  0.00  0.00    -0.349 N 
HETATM   18  C   UNK N   1      21.820  16.647   6.532  0.00  0.00     0.145 C 
HETATM   19  C   UNK N   1      20.410  14.679   6.176  0.00  0.00     0.215 C 
HETATM   20  C   UNK N   1      21.516  17.950   5.777  0.00  0.00     0.144 C 
HETATM   21  C   UNK N   1      19.894  13.566   5.313  0.00  0.00     0.117 C 
HETATM   22  O   UNK N   1      19.926  14.836   7.286  0.00  0.00    -0.274 OA
ENDBRANCH  11  14
ENDBRANCH   4   7
BRANCH   5  23
HETATM   23  N   UNK N   1      28.199  14.714   3.609  0.00  0.00    -0.114 N 
HETATM   24  O   UNK N   1      28.835  14.358   2.660  0.00  0.00    -0.532 OA
HETATM   25  O   UNK N   1      27.561  13.909   4.212  0.00  0.00    -0.532 OA
ENDBRANCH   5  23
BRANCH   6  26
HETATM   26  S   UNK N   1      30.150  16.065   5.786  0.00  0.00    -0.085 SA
BRANCH  26  27
HETATM   27  C   UNK N   1      29.769  16.971   7.316  0.00  0.00     0.039 A 
HETATM   28  C   UNK N   1      28.448  17.006   7.807  0.00  0.00     0.021 A 
HETATM   29  C   UNK N   1      28.112  17.809   8.898  0.00  0.00     0.002 A 
HETATM   30  C   UNK N   1      29.094  18.582   9.513  0.00  0.00     0.003 A 
HETATM   31  C   UNK N   1      30.417  18.516   9.069  0.00  0.00     0.038 A 
HETATM   32  C   UNK N   1      30.773  17.701   7.986  0.00  0.00     0.085 A 
BRANCH  32  33
HETATM   33  O   UNK N   1      32.083  17.640   7.632  0.00  0.00    -0.350 OA
BRANCH  33  34
HETATM   34  C   UNK N   1      33.113  17.509   8.545  0.00  0.00     0.171 C 
HETATM   35  C   UNK N   1      34.335  18.290   8.100  0.00  0.00     0.034 C 
ENDBRANCH  33  34
ENDBRANCH  32  33
ENDBRANCH  26  27
ENDBRANCH   6  26
TORSDOF 7
ENDMDL
MODEL 3
REMARK VINA RESULT:      -7.8      4.773     10.754
REMARK  7 active torsions:
REMARK  status: ('A' for Active; 'I' for Inactive)
REMARK    1  A    between atoms: O_34  and  C_3 
REMARK       I    between atoms: N_28  and  C_18 
REMARK    2  A    between atoms: C_20  and  C_19 
REMARK    3  A    between atoms: N_30  and  C_21 
REMARK    4  A    between atoms: O_34  and  C_22 
REMARK    5  A    between atoms: S_35  and  C_23 
REMARK    6  A    between atoms: S_35  and  C_24 
REMARK    7  A    between atoms: N_29  and  C_25 
ROOT
HETATM    1  C   UNK N   1      31.716  16.803   5.998  0.00  0.00     0.014 C 
HETATM    2  C   UNK N   1      30.401  17.110   5.969  0.00  0.00     0.022 C 
HETATM    3  C   UNK N   1      31.742  16.952   8.403  0.00  0.00     0.049 C 
HETATM    4  C   UNK N   1      32.388  16.617   7.203  0.00  0.00    -0.023 C 
HETATM    5  C   UNK N   1      30.373  17.338   8.377  0.00  0.00     0.120 C 
HETATM    6  C   UNK N   1      29.685  17.299   7.130  0.00  0.00     0.038 C 
ENDROOT
BRANCH   4   7
HETATM    7  C   UNK N   1      33.650  15.863   7.109  0.00  0.00    -0.021 A 
HETATM    8  C   UNK N   1      34.332  15.522   5.935  0.00  0.00     0.029 A 
HETATM    9  C   UNK N   1      35.585  14.879   6.051  0.00  0.00     0.090 A 
HETATM   10  N   UNK N   1      36.127  14.616   7.284  0.00  0.00    -0.352 N 
HETATM   11  C   UNK N   1      35.479  14.998   8.420  0.00  0.00     0.103 A 
ATOM     12  HN  UNK N   1      37.022  14.130   7.351  1.00  0.00     0.166 HD
HETATM   13  C   UNK N   1      34.265  15.608   8.320  0.00  0.00     0.060 A 
BRANCH  11  14
HETATM   14  N   UNK N   1      35.990  14.766   9.722  0.00  0.00    -0.364 N 
HETATM   15  C   UNK N   1      35.207  15.179  10.880  0.00  0.00     0.144 C 
HETATM   16  C   UNK N   1      34.762  13.947  11.644  0.00  0.00     0.145 C 
HETATM   17  N   UNK N   1      35.940  13.154  11.892  0.00  0.00    -0.349 N 
HETATM   18  C   UNK N   1      36.721  12.711  10.749  0.00  0.00     0.145 C 
HETATM   19  C   UNK N   1      36.366  12.921  13.162  0.00  0.00     0.215 C 
HETATM   20  C   UNK N   1      37.152  13.938   9.932  0.00  0.00     0.144 C 
HETATM   21  C   UNK N   1      35.606  13.451  14.340  0.00  0.00     0.117 C 
HETATM   22  O   UNK N   1      37.396  12.294  13.358  0.00  0.00    -0.274 OA
ENDBRANCH  11  14
ENDBRANCH   4   7
BRANCH   5  23
HETATM   23  N   UNK N   1      29.715  17.677   9.599  0.00  0.00    -0.114 N 
HETATM   24  O   UNK N   1      29.711  18.810   9.984  0.00  0.00    -0.532 OA
HETATM   25  O   UNK N   1      29.332  16.818  10.329  0.00  0.00    -0.532 OA
ENDBRANCH   5  23
BRANCH   6  26
HETATM   26  S   UNK N   1      27.883  17.195   6.995  0.00  0.00    -0.085 SA
BRANCH  26  27
HETATM   27  C   UNK N   1      27.545  18.791   6.192  0.00  0.00     0.039 A 
HETATM   28  C   UNK N   1      27.645  19.988   6.929  0.00  0.00     0.021 A 
HETATM   29  C   UNK N   1      27.255  21.206   6.370  0.00  0.00     0.002 A 
HETATM   30  C   UNK N   1      26.767  21.241   5.066  0.00  0.00     0.003 A 
HETATM   31  C   UNK N   1      26.713  20.069   4.307  0.00  0.00     0.038 A 
HETATM   32  C   UNK N   1      27.118  18.842   4.848  0.00  0.00     0.085 A 
BRANCH  32  33
HETATM   33  O   UNK N   1      27.089  17.745   4.047  0.00  0.00    -0.350 OA
BRANCH  33  34
HETATM   34  C   UNK N   1      25.945  17.295   3.414  0.00  0.00     0.171 C 
HETATM   35  C   UNK N   1      24.950  16.749   4.420  0.00  0.00     0.034 C 
ENDBRANCH  33  34
ENDBRANCH  32  33
ENDBRANCH  26  27
ENDBRANCH   6  26
TORSDOF 7
ENDMDL
MODEL 4
REMARK VINA RESULT:      -7.8      3.045      4.201
REMARK  7 active torsions:
REMARK  status: ('A' for Active; 'I' for Inactive)
REMARK    1  A    between atoms: O_34  and  C_3 
REMARK       I    between atoms: N_28  and  C_18 
REMARK    2  A    between atoms: C_20  and  C_19 
REMARK    3  A    between atoms: N_30  and  C_21 
REMARK    4  A    between atoms: O_34  and  C_22 
REMARK    5  A    between atoms: S_35  and  C_23 
REMARK    6  A    between atoms: S_35  and  C_24 
REMARK    7  A    between atoms: N_29  and  C_25 
ROOT
HETATM    1  C   UNK N   1      24.206  17.426   4.831  0.00  0.00     0.014 C 
HETATM    2  C   UNK N   1      25.359  16.836   5.215  0.00  0.00     0.022 C 
HETATM    3  C   UNK N   1      25.290  19.577   4.738  0.00  0.00     0.049 C 
HETATM    4  C   UNK N   1      24.166  18.775   4.486  0.00  0.00    -0.023 C 
HETATM    5  C   UNK N   1      26.490  18.974   5.204  0.00  0.00     0.120 C 
HETATM    6  C   UNK N   1      26.527  17.555   5.330  0.00  0.00     0.038 C 
ENDROOT
BRANCH   4   7
HETATM    7  C   UNK N   1      23.007  19.181   3.672  0.00  0.00    -0.021 A 
HETATM    8  C   UNK N   1      22.841  20.402   3.008  0.00  0.00     0.029 A 
HETATM    9  C   UNK N   1      21.700  20.571   2.191  0.00  0.00     0.090 A 
HETATM   10  N   UNK N   1      20.791  19.554   2.038  0.00  0.00    -0.352 N 
HETATM   11  C   UNK N   1      20.989  18.351   2.647  0.00  0.00     0.103 A 
ATOM     12  HN  UNK N   1      19.961  19.699   1.463  1.00  0.00     0.166 HD
HETATM   13  C   UNK N   1      22.080  18.182   3.446  0.00  0.00     0.060 A 
BRANCH  11  14
HETATM   14  N   UNK N   1      20.095  17.258   2.520  0.00  0.00    -0.364 N 
HETATM   15  C   UNK N   1      19.819  16.713   1.196  0.00  0.00     0.144 C 
HETATM   16  C   UNK N   1      20.375  15.304   1.114  0.00  0.00     0.145 C 
HETATM   17  N   UNK N   1      19.859  14.579   2.249  0.00  0.00    -0.349 N 
HETATM   18  C   UNK N   1      20.143  15.093   3.578  0.00  0.00     0.145 C 
HETATM   19  C   UNK N   1      19.039  13.508   2.074  0.00  0.00     0.215 C 
HETATM   20  C   UNK N   1      19.627  16.536   3.677  0.00  0.00     0.144 C 
HETATM   21  C   UNK N   1      18.677  13.029   0.701  0.00  0.00     0.117 C 
HETATM   22  O   UNK N   1      18.564  12.935   3.042  0.00  0.00    -0.274 OA
ENDBRANCH  11  14
ENDBRANCH   4   7
BRANCH   5  23
HETATM   23  N   UNK N   1      27.634  19.791   5.459  0.00  0.00    -0.114 N 
HETATM   24  O   UNK N   1      27.741  20.367   6.503  0.00  0.00    -0.532 OA
HETATM   25  O   UNK N   1      28.390  20.051   4.576  0.00  0.00    -0.532 OA
ENDBRANCH   5  23
BRANCH   6  26
HETATM   26  S   UNK N   1      28.066  16.601   5.347  0.00  0.00    -0.085 SA
BRANCH  26  27
HETATM   27  C   UNK N   1      28.692  17.062   6.990  0.00  0.00     0.039 A 
HETATM   28  C   UNK N   1      27.800  17.209   8.071  0.00  0.00     0.021 A 
HETATM   29  C   UNK N   1      28.242  17.697   9.301  0.00  0.00     0.002 A 
HETATM   30  C   UNK N   1      29.583  18.038   9.466  0.00  0.00     0.003 A 
HETATM   31  C   UNK N   1      30.488  17.847   8.418  0.00  0.00     0.038 A 
HETATM   32  C   UNK N   1      30.062  17.341   7.183  0.00  0.00     0.085 A 
BRANCH  32  33
HETATM   33  O   UNK N   1      30.996  17.131   6.219  0.00  0.00    -0.350 OA
BRANCH  33  34
HETATM   34  C   UNK N   1      32.357  17.165   6.458  0.00  0.00     0.171 C 
HETATM   35  C   UNK N   1      33.122  17.483   5.188  0.00  0.00     0.034 C 
ENDBRANCH  33  34
ENDBRANCH  32  33
ENDBRANCH  26  27
ENDBRANCH   6  26
TORSDOF 7
ENDMDL
MODEL 5
REMARK VINA RESULT:      -7.7      7.159     12.219
REMARK  7 active torsions:
REMARK  status: ('A' for Active; 'I' for Inactive)
REMARK    1  A    between atoms: O_34  and  C_3 
REMARK       I    between atoms: N_28  and  C_18 
REMARK    2  A    between atoms: C_20  and  C_19 
REMARK    3  A    between atoms: N_30  and  C_21 
REMARK    4  A    between atoms: O_34  and  C_22 
REMARK    5  A    between atoms: S_35  and  C_23 
REMARK    6  A    between atoms: S_35  and  C_24 
REMARK    7  A    between atoms: N_29  and  C_25 
ROOT
HETATM    1  C   UNK N   1      33.799  13.869   9.297  0.00  0.00     0.014 C 
HETATM    2  C   UNK N   1      32.744  14.608   8.891  0.00  0.00     0.022 C 
HETATM    3  C   UNK N   1      35.301  15.706   8.876  0.00  0.00     0.049 C 
HETATM    4  C   UNK N   1      35.073  14.424   9.397  0.00  0.00    -0.023 C 
HETATM    5  C   UNK N   1      34.206  16.468   8.386  0.00  0.00     0.120 C 
HETATM    6  C   UNK N   1      32.895  15.923   8.513  0.00  0.00     0.038 C 
ENDROOT
BRANCH   4   7
HETATM    7  C   UNK N   1      36.014  13.684  10.257  0.00  0.00    -0.021 A 
HETATM    8  C   UNK N   1      37.360  13.418   9.983  0.00  0.00     0.029 A 
HETATM    9  C   UNK N   1      38.132  12.777  10.978  0.00  0.00     0.090 A 
HETATM   10  N   UNK N   1      37.578  12.444  12.189  0.00  0.00    -0.352 N 
HETATM   11  C   UNK N   1      36.280  12.754  12.464  0.00  0.00     0.103 A 
ATOM     12  HN  UNK N   1      38.143  11.961  12.888  1.00  0.00     0.166 HD
HETATM   13  C   UNK N   1      35.525  13.361  11.508  0.00  0.00     0.060 A 
BRANCH  11  14
HETATM   14  N   UNK N   1      35.653  12.448  13.699  0.00  0.00    -0.364 N 
HETATM   15  C   UNK N   1      35.523  11.055  14.107  0.00  0.00     0.144 C 
HETATM   16  C   UNK N   1      36.380  10.816  15.336  0.00  0.00     0.145 C 
HETATM   17  N   UNK N   1      36.023  11.824  16.303  0.00  0.00    -0.349 N 
HETATM   18  C   UNK N   1      36.168  13.219  15.924  0.00  0.00     0.145 C 
HETATM   19  C   UNK N   1      35.465  11.478  17.493  0.00  0.00     0.215 C 
HETATM   20  C   UNK N   1      35.342  13.482  14.655  0.00  0.00     0.144 C 
HETATM   21  C   UNK N   1      35.237  10.040  17.850  0.00  0.00     0.117 C 
HETATM   22  O   UNK N   1      35.117  12.343  18.282  0.00  0.00    -0.274 OA
ENDBRANCH  11  14
ENDBRANCH   4   7
BRANCH   5  23
HETATM   23  N   UNK N   1      34.438  17.774   7.856  0.00  0.00    -0.114 N 
HETATM   24  O   UNK N   1      34.492  17.942   6.673  0.00  0.00    -0.532 OA
HETATM   25  O   UNK N   1      34.763  18.663   8.580  0.00  0.00    -0.532 OA
ENDBRANCH   5  23
BRANCH   6  26
HETATM   26  S   UNK N   1      31.394  16.935   8.485  0.00  0.00    -0.085 SA
BRANCH  26  27
HETATM   27  C   UNK N   1      30.956  16.783   6.728  0.00  0.00     0.039 A 
HETATM   28  C   UNK N   1      31.809  16.093   5.843  0.00  0.00     0.021 A 
HETATM   29  C   UNK N   1      31.561  16.086   4.470  0.00  0.00     0.002 A 
HETATM   30  C   UNK N   1      30.454  16.764   3.967  0.00  0.00     0.003 A 
HETATM   31  C   UNK N   1      29.570  17.407   4.838  0.00  0.00     0.038 A 
HETATM   32  C   UNK N   1      29.796  17.407   6.221  0.00  0.00     0.085 A 
BRANCH  32  33
HETATM   33  O   UNK N   1      28.877  18.007   7.022  0.00  0.00    -0.350 OA
BRANCH  33  34
HETATM   34  C   UNK N   1      27.705  18.566   6.548  0.00  0.00     0.171 C 
HETATM   35  C   UNK N   1      27.716  20.073   6.720  0.00  0.00     0.034 C 
ENDBRANCH  33  34
ENDBRANCH  32  33
ENDBRANCH  26  27
ENDBRANCH   6  26
TORSDOF 7
ENDMDL
MODEL 6
REMARK VINA RESULT:      -7.7      2.822      8.002
REMARK  7 active torsions:
REMARK  status: ('A' for Active; 'I' for Inactive)
REMARK    1  A    between atoms: O_34  and  C_3 
REMARK       I    between atoms: N_28  and  C_18 
REMARK    2  A    between atoms: C_20  and  C_19 
REMARK    3  A    between atoms: N_30  and  C_21 
REMARK    4  A    between atoms: O_34  and  C_22 
REMARK    5  A    between atoms: S_35  and  C_23 
REMARK    6  A    between atoms: S_35  and  C_24 
REMARK    7  A    between atoms: N_29  and  C_25 
ROOT
HETATM    1  C   UNK N   1      22.964  16.167   3.802  0.00  0.00     0.014 C 
HETATM    2  C   UNK N   1      22.461  14.998   4.255  0.00  0.00     0.022 C 
HETATM    3  C   UNK N   1      22.017  17.349   5.678  0.00  0.00     0.049 C 
HETATM    4  C   UNK N   1      22.845  17.339   4.545  0.00  0.00    -0.023 C 
HETATM    5  C   UNK N   1      21.430  16.133   6.126  0.00  0.00     0.120 C 
HETATM    6  C   UNK N   1      21.769  14.929   5.443  0.00  0.00     0.038 C 
ENDROOT
BRANCH   4   7
HETATM    7  C   UNK N   1      23.795  18.408   4.186  0.00  0.00    -0.021 A 
HETATM    8  C   UNK N   1      23.502  19.582   3.484  0.00  0.00     0.029 A 
HETATM    9  C   UNK N   1      24.528  20.540   3.321  0.00  0.00     0.090 A 
HETATM   10  N   UNK N   1      25.774  20.330   3.859  0.00  0.00    -0.352 N 
HETATM   11  C   UNK N   1      26.034  19.206   4.586  0.00  0.00     0.103 A 
ATOM     12  HN  UNK N   1      26.511  21.020   3.713  1.00  0.00     0.166 HD
HETATM   13  C   UNK N   1      25.054  18.272   4.738  0.00  0.00     0.060 A 
BRANCH  11  14
HETATM   14  N   UNK N   1      27.294  18.937   5.176  0.00  0.00    -0.364 N 
HETATM   15  C   UNK N   1      27.785  19.805   6.238  0.00  0.00     0.144 C 
HETATM   16  C   UNK N   1      27.845  19.020   7.534  0.00  0.00     0.145 C 
HETATM   17  N   UNK N   1      28.594  17.817   7.264  0.00  0.00    -0.349 N 
HETATM   18  C   UNK N   1      28.108  16.925   6.225  0.00  0.00     0.145 C 
HETATM   19  C   UNK N   1      29.778  17.581   7.890  0.00  0.00     0.215 C 
HETATM   20  C   UNK N   1      27.997  17.706   4.907  0.00  0.00     0.144 C 
HETATM   21  C   UNK N   1      30.321  18.544   8.902  0.00  0.00     0.117 C 
HETATM   22  O   UNK N   1      30.430  16.586   7.615  0.00  0.00    -0.274 OA
ENDBRANCH  11  14
ENDBRANCH   4   7
BRANCH   5  23
HETATM   23  N   UNK N   1      20.588  16.143   7.280  0.00  0.00    -0.114 N 
HETATM   24  O   UNK N   1      19.408  15.985   7.163  0.00  0.00    -0.532 OA
HETATM   25  O   UNK N   1      21.023  16.489   8.333  0.00  0.00    -0.532 OA
ENDBRANCH   5  23
BRANCH   6  26
HETATM   26  S   UNK N   1      21.596  13.287   6.185  0.00  0.00    -0.085 SA
BRANCH  26  27
HETATM   27  C   UNK N   1      22.890  13.390   7.457  0.00  0.00     0.039 A 
HETATM   28  C   UNK N   1      24.177  13.858   7.122  0.00  0.00     0.021 A 
HETATM   29  C   UNK N   1      25.218  13.812   8.049  0.00  0.00     0.002 A 
HETATM   30  C   UNK N   1      24.984  13.304   9.325  0.00  0.00     0.003 A 
HETATM   31  C   UNK N   1      23.700  12.888   9.687  0.00  0.00     0.038 A 
HETATM   32  C   UNK N   1      22.640  12.944   8.773  0.00  0.00     0.085 A 
BRANCH  32  33
HETATM   33  O   UNK N   1      21.404  12.571   9.197  0.00  0.00    -0.350 OA
BRANCH  33  34
HETATM   34  C   UNK N   1      20.732  13.202  10.228  0.00  0.00     0.171 C 
HETATM   35  C   UNK N   1      20.454  12.237  11.364  0.00  0.00     0.034 C 
ENDBRANCH  33  34
ENDBRANCH  32  33
ENDBRANCH  26  27
ENDBRANCH   6  26
TORSDOF 7
ENDMDL
MODEL 7
REMARK VINA RESULT:      -7.6      3.820      9.432
REMARK  7 active torsions:
REMARK  status: ('A' for Active; 'I' for Inactive)
REMARK    1  A    between atoms: O_34  and  C_3 
REMARK       I    between atoms: N_28  and  C_18 
REMARK    2  A    between atoms: C_20  and  C_19 
REMARK    3  A    between atoms: N_30  and  C_21 
REMARK    4  A    between atoms: O_34  and  C_22 
REMARK    5  A    between atoms: S_35  and  C_23 
REMARK    6  A    between atoms: S_35  and  C_24 
REMARK    7  A    between atoms: N_29  and  C_25 
ROOT
HETATM    1  C   UNK N   1      24.243  18.105   4.564  0.00  0.00     0.014 C 
HETATM    2  C   UNK N   1      22.969  17.758   4.283  0.00  0.00     0.022 C 
HETATM    3  C   UNK N   1      23.968  20.208   3.418  0.00  0.00     0.049 C 
HETATM    4  C   UNK N   1      24.738  19.364   4.234  0.00  0.00    -0.023 C 
HETATM    5  C   UNK N   1      22.647  19.822   3.063  0.00  0.00     0.120 C 
HETATM    6  C   UNK N   1      22.124  18.616   3.615  0.00  0.00     0.038 C 
ENDROOT
BRANCH   4   7
HETATM    7  C   UNK N   1      25.944  19.779   4.974  0.00  0.00    -0.021 A 
HETATM    8  C   UNK N   1      26.284  21.083   5.349  0.00  0.00     0.029 A 
HETATM    9  C   UNK N   1      27.437  21.273   6.144  0.00  0.00     0.090 A 
HETATM   10  N   UNK N   1      28.190  20.200   6.554  0.00  0.00    -0.352 N 
HETATM   11  C   UNK N   1      27.820  18.930   6.226  0.00  0.00     0.103 A 
ATOM     12  HN  UNK N   1      29.032  20.355   7.108  1.00  0.00     0.166 HD
HETATM   13  C   UNK N   1      26.717  18.738   5.450  0.00  0.00     0.060 A 
BRANCH  11  14
HETATM   14  N   UNK N   1      28.547  17.781   6.628  0.00  0.00    -0.364 N 
HETATM   15  C   UNK N   1      29.182  16.948   5.614  0.00  0.00     0.144 C 
HETATM   16  C   UNK N   1      30.688  17.038   5.769  0.00  0.00     0.145 C 
HETATM   17  N   UNK N   1      30.989  16.746   7.149  0.00  0.00    -0.349 N 
HETATM   18  C   UNK N   1      30.386  17.581   8.174  0.00  0.00     0.145 C 
HETATM   19  C   UNK N   1      31.730  15.656   7.482  0.00  0.00     0.215 C 
HETATM   20  C   UNK N   1      28.858  17.541   8.016  0.00  0.00     0.144 C 
HETATM   21  C   UNK N   1      32.282  14.746   6.426  0.00  0.00     0.117 C 
HETATM   22  O   UNK N   1      31.933  15.388   8.656  0.00  0.00    -0.274 OA
ENDBRANCH  11  14
ENDBRANCH   4   7
BRANCH   5  23
HETATM   23  N   UNK N   1      21.863  20.681   2.233  0.00  0.00    -0.114 N 
HETATM   24  O   UNK N   1      21.815  20.496   1.052  0.00  0.00    -0.532 OA
HETATM   25  O   UNK N   1      21.406  21.687   2.679  0.00  0.00    -0.532 OA
ENDBRANCH   5  23
BRANCH   6  26
HETATM   26  S   UNK N   1      20.352  18.271   3.744  0.00  0.00    -0.085 SA
BRANCH  26  27
HETATM   27  C   UNK N   1      20.188  17.023   2.432  0.00  0.00     0.039 A 
HETATM   28  C   UNK N   1      19.938  17.421   1.104  0.00  0.00     0.021 A 
HETATM   29  C   UNK N   1      19.671  16.476   0.112  0.00  0.00     0.002 A 
HETATM   30  C   UNK N   1      19.657  15.122   0.437  0.00  0.00     0.003 A 
HETATM   31  C   UNK N   1      19.957  14.711   1.739  0.00  0.00     0.038 A 
HETATM   32  C   UNK N   1      20.244  15.647   2.741  0.00  0.00     0.085 A 
BRANCH  32  33
HETATM   33  O   UNK N   1      20.576  15.185   3.975  0.00  0.00    -0.350 OA
BRANCH  33  34
HETATM   34  C   UNK N   1      19.650  14.700   4.879  0.00  0.00     0.171 C 
HETATM   35  C   UNK N   1      19.938  15.214   6.277  0.00  0.00     0.034 C 
ENDBRANCH  33  34
ENDBRANCH  32  33
ENDBRANCH  26  27
ENDBRANCH   6  26
TORSDOF 7
ENDMDL
MODEL 8
REMARK VINA RESULT:      -7.6     12.532     15.687
REMARK  7 active torsions:
REMARK  status: ('A' for Active; 'I' for Inactive)
REMARK    1  A    between atoms: O_34  and  C_3 
REMARK       I    between atoms: N_28  and  C_18 
REMARK    2  A    between atoms: C_20  and  C_19 
REMARK    3  A    between atoms: N_30  and  C_21 
REMARK    4  A    between atoms: O_34  and  C_22 
REMARK    5  A    between atoms: S_35  and  C_23 
REMARK    6  A    between atoms: S_35  and  C_24 
REMARK    7  A    between atoms: N_29  and  C_25 
ROOT
HETATM    1  C   UNK N   1      27.467  24.461  -3.654  0.00  0.00     0.014 C 
HETATM    2  C   UNK N   1      26.442  25.286  -3.960  0.00  0.00     0.022 C 
HETATM    3  C   UNK N   1      27.513  23.614  -5.910  0.00  0.00     0.049 C 
HETATM    4  C   UNK N   1      28.089  23.690  -4.633  0.00  0.00    -0.023 C 
HETATM    5  C   UNK N   1      26.393  24.431  -6.223  0.00  0.00     0.120 C 
HETATM    6  C   UNK N   1      25.939  25.358  -5.239  0.00  0.00     0.038 C 
ENDROOT
BRANCH   4   7
HETATM    7  C   UNK N   1      29.437  23.203  -4.286  0.00  0.00    -0.021 A 
HETATM    8  C   UNK N   1      30.236  23.646  -3.226  0.00  0.00     0.029 A 
HETATM    9  C   UNK N   1      31.463  22.986  -2.991  0.00  0.00     0.090 A 
HETATM   10  N   UNK N   1      31.849  21.924  -3.772  0.00  0.00    -0.352 N 
HETATM   11  C   UNK N   1      31.039  21.468  -4.769  0.00  0.00     0.103 A 
ATOM     12  HN  UNK N   1      32.749  21.473  -3.604  1.00  0.00     0.166 HD
HETATM   13  C   UNK N   1      29.859  22.105  -5.010  0.00  0.00     0.060 A 
BRANCH  11  14
HETATM   14  N   UNK N   1      31.374  20.371  -5.601  0.00  0.00    -0.364 N 
HETATM   15  C   UNK N   1      30.393  19.876  -6.559  0.00  0.00     0.144 C 
HETATM   16  C   UNK N   1      30.896  20.137  -7.965  0.00  0.00     0.145 C 
HETATM   17  N   UNK N   1      32.230  19.594  -8.045  0.00  0.00    -0.349 N 
HETATM   18  C   UNK N   1      33.230  20.092  -7.115  0.00  0.00     0.145 C 
HETATM   19  C   UNK N   1      32.513  18.570  -8.893  0.00  0.00     0.215 C 
HETATM   20  C   UNK N   1      32.727  19.877  -5.679  0.00  0.00     0.144 C 
HETATM   21  C   UNK N   1      31.459  17.999  -9.793  0.00  0.00     0.117 C 
HETATM   22  O   UNK N   1      33.632  18.081  -8.913  0.00  0.00    -0.274 OA
ENDBRANCH  11  14
ENDBRANCH   4   7
BRANCH   5  23
HETATM   23  N   UNK N   1      25.807  24.354  -7.523  0.00  0.00    -0.114 N 
HETATM   24  O   UNK N   1      24.952  23.548  -7.751  0.00  0.00    -0.532 OA
HETATM   25  O   UNK N   1      26.289  24.957  -8.431  0.00  0.00    -0.532 OA
ENDBRANCH   5  23
BRANCH   6  26
HETATM   26  S   UNK N   1      24.949  26.820  -5.638  0.00  0.00    -0.085 SA
BRANCH  26  27
HETATM   27  C   UNK N   1      26.116  28.123  -5.143  0.00  0.00     0.039 A 
HETATM   28  C   UNK N   1      25.950  28.793  -3.914  0.00  0.00     0.021 A 
HETATM   29  C   UNK N   1      26.750  29.887  -3.582  0.00  0.00     0.002 A 
HETATM   30  C   UNK N   1      27.729  30.320  -4.473  0.00  0.00     0.003 A 
HETATM   31  C   UNK N   1      27.940  29.632  -5.671  0.00  0.00     0.038 A 
HETATM   32  C   UNK N   1      27.157  28.521  -6.010  0.00  0.00     0.085 A 
BRANCH  32  33
HETATM   33  O   UNK N   1      27.441  27.863  -7.164  0.00  0.00    -0.350 OA
BRANCH  33  34
HETATM   34  C   UNK N   1      28.728  27.642  -7.617  0.00  0.00     0.171 C 
HETATM   35  C   UNK N   1      29.389  26.518  -6.842  0.00  0.00     0.034 C 
ENDBRANCH  33  34
ENDBRANCH  32  33
ENDBRANCH  26  27
ENDBRANCH   6  26
TORSDOF 7
ENDMDL
MODEL 9
REMARK VINA RESULT:      -7.3     12.104     16.579
REMARK  7 active torsions:
REMARK  status: ('A' for Active; 'I' for Inactive)
REMARK    1  A    between atoms: O_34  and  C_3 
REMARK       I    between atoms: N_28  and  C_18 
REMARK    2  A    between atoms: C_20  and  C_19 
REMARK    3  A    between atoms: N_30  and  C_21 
REMARK    4  A    between atoms: O_34  and  C_22 
REMARK    5  A    between atoms: S_35  and  C_23 
REMARK    6  A    between atoms: S_35  and  C_24 
REMARK    7  A    between atoms: N_29  and  C_25 
ROOT
HETATM    1  C   UNK N   1      34.774  11.063  16.199  0.00  0.00     0.014 C 
HETATM    2  C   UNK N   1      34.628   9.887  16.847  0.00  0.00     0.022 C 
HETATM    3  C   UNK N   1      35.387  12.167  18.252  0.00  0.00     0.049 C 
HETATM    4  C   UNK N   1      35.251  12.195  16.856  0.00  0.00    -0.023 C 
HETATM    5  C   UNK N   1      35.173  10.947  18.952  0.00  0.00     0.120 C 
HETATM    6  C   UNK N   1      34.897   9.773  18.192  0.00  0.00     0.038 C 
ENDROOT
BRANCH   4   7
HETATM    7  C   UNK N   1      35.787  13.251  15.979  0.00  0.00    -0.021 A 
HETATM    8  C   UNK N   1      36.679  14.266  16.345  0.00  0.00     0.029 A 
HETATM    9  C   UNK N   1      37.159  15.131  15.336  0.00  0.00     0.090 A 
HETATM   10  N   UNK N   1      36.776  14.965  14.029  0.00  0.00    -0.352 N 
HETATM   11  C   UNK N   1      35.948  13.942  13.675  0.00  0.00     0.103 A 
ATOM     12  HN  UNK N   1      37.113  15.612  13.316  1.00  0.00     0.166 HD
HETATM   13  C   UNK N   1      35.470  13.109  14.642  0.00  0.00     0.060 A 
BRANCH  11  14
HETATM   14  N   UNK N   1      35.525  13.709  12.342  0.00  0.00    -0.364 N 
HETATM   15  C   UNK N   1      34.923  14.799  11.584  0.00  0.00     0.144 C 
HETATM   16  C   UNK N   1      35.842  15.174  10.438  0.00  0.00     0.145 C 
HETATM   17  N   UNK N   1      36.142  13.958   9.722  0.00  0.00    -0.349 N 
HETATM   18  C   UNK N   1      36.765  12.868  10.454  0.00  0.00     0.145 C 
HETATM   19  C   UNK N   1      35.755  13.800   8.429  0.00  0.00     0.215 C 
HETATM   20  C   UNK N   1      35.874  12.494  11.648  0.00  0.00     0.144 C 
HETATM   21  C   UNK N   1      35.036  14.895   7.699  0.00  0.00     0.117 C 
HETATM   22  O   UNK N   1      35.966  12.746   7.849  0.00  0.00    -0.274 OA
ENDBRANCH  11  14
ENDBRANCH   4   7
BRANCH   5  23
HETATM   23  N   UNK N   1      35.312  10.919  20.373  0.00  0.00    -0.114 N 
HETATM   24  O   UNK N   1      36.385  10.727  20.868  0.00  0.00    -0.532 OA
HETATM   25  O   UNK N   1      34.345  10.899  21.068  0.00  0.00    -0.532 OA
ENDBRANCH   5  23
BRANCH   6  26
HETATM   26  S   UNK N   1      35.159   8.098  18.826  0.00  0.00    -0.085 SA
BRANCH  26  27
HETATM   27  C   UNK N   1      33.445   7.655  19.236  0.00  0.00     0.039 A 
HETATM   28  C   UNK N   1      32.531   8.654  19.629  0.00  0.00     0.021 A 
HETATM   29  C   UNK N   1      31.254   8.317  20.081  0.00  0.00     0.002 A 
HETATM   30  C   UNK N   1      30.875   6.978  20.139  0.00  0.00     0.003 A 
HETATM   31  C   UNK N   1      31.753   5.982  19.702  0.00  0.00     0.038 A 
HETATM   32  C   UNK N   1      33.031   6.306  19.229  0.00  0.00     0.085 A 
BRANCH  32  33
HETATM   33  O   UNK N   1      33.821   5.300  18.773  0.00  0.00    -0.350 OA
BRANCH  33  34
HETATM   34  C   UNK N   1      33.578   4.616  17.596  0.00  0.00     0.171 C 
HETATM   35  C   UNK N   1      34.730   4.784  16.624  0.00  0.00     0.034 C 
ENDBRANCH  33  34
ENDBRANCH  32  33
ENDBRANCH  26  27
ENDBRANCH   6  26
TORSDOF 7
ENDMDL
