MODEL 1
REMARK VINA RESULT:      -6.7      0.000      0.000
REMARK  6 active torsions:
REMARK  status: ('A' for Active; 'I' for Inactive)
REMARK    1  A    between atoms: C_2  and  C_3 
REMARK    2  A    between atoms: C_2  and  O_18 
REMARK    3  A    between atoms: C_3  and  N_4 
REMARK       I    between atoms: C_12  and  N_13 
REMARK    4  A    between atoms: C_16  and  N_17 
REMARK    5  A    between atoms: O_18  and  C_19 
REMARK    6  A    between atoms: C_19  and  P_20 
ROOT
HETATM    1  N   UNK N   1      28.706  17.842   5.939  0.00  0.00    -0.324 N 
HETATM    2  C   UNK N   1      28.905  17.584   4.622  0.00  0.00     0.185 A 
HETATM    3  N   UNK N   1      28.189  18.435   3.834  0.00  0.00    -0.346 N 
ATOM      4  HN  UNK N   1      28.151  18.463   2.815  1.00  0.00     0.167 HD
HETATM    5  C   UNK N   1      27.544  19.231   4.707  0.00  0.00     0.123 A 
HETATM    6  C   UNK N   1      27.854  18.876   5.968  0.00  0.00     0.155 A 
HETATM    7  N   UNK N   1      27.353  19.516   7.051  0.00  0.00    -0.174 N 
ATOM      8  HN  UNK N   1      27.602  19.225   7.996  1.00  0.00     0.186 HD
HETATM    9  C   UNK N   1      26.501  20.568   6.837  0.00  0.00     0.679 A 
HETATM   10  N   UNK N   1      25.973  21.275   7.934  0.00  0.00    -0.234 N 
HETATM   11  N   UNK N   1      26.162  20.940   5.557  0.00  0.00    -0.175 N 
ATOM     12  HN  UNK N   1      25.522  21.720   5.414  1.00  0.00     0.186 HD
HETATM   13  C   UNK N   1      26.672  20.281   4.474  0.00  0.00     0.145 A 
HETATM   14  H   UNK N   1      25.169  21.834   7.828  0.00  0.00     0.174 HD
HETATM   15  H   UNK N   1      26.411  21.212   8.813  0.00  0.00     0.174 HD
ENDROOT
BRANCH   1  16
HETATM   16  C   UNK N   1      29.298  17.086   7.041  0.00  0.00     0.163 C 
BRANCH  16  17
HETATM   17  C   UNK N   1      30.342  17.856   7.854  0.00  0.00     0.136 C 
HETATM   18  C   UNK N   1      30.003  18.008   9.330  0.00  0.00     0.041 C 
BRANCH  17  19
HETATM   19  O   UNK N   1      31.615  17.300   7.695  0.00  0.00    -0.371 OA
BRANCH  19  20
HETATM   20  C   UNK N   1      32.451  18.016   8.562  0.00  0.00     0.313 C 
BRANCH  20  21
HETATM   21  P   UNK N   1      34.225  17.902   8.000  0.00  0.00     0.283 P 
HETATM   22  O   UNK N   1      35.261  19.197   8.510  0.00  0.00    -0.638 OA
HETATM   23  O   UNK N   1      34.434  17.712   6.288  0.00  0.00    -0.638 OA
HETATM   24  O   UNK N   1      34.892  16.635   8.599  0.00  0.00    -0.638 OA
ENDBRANCH  20  21
ENDBRANCH  19  20
ENDBRANCH  17  19
ENDBRANCH  16  17
ENDBRANCH   1  16
BRANCH  13  25
HETATM   25  N   UNK N   1      26.318  20.664   3.165  0.00  0.00    -0.383 N 
HETATM   26  H   UNK N   1      25.382  20.780   2.880  0.00  0.00     0.157 HD
HETATM   27  H   UNK N   1      27.034  20.822   2.509  0.00  0.00     0.157 HD
ENDBRANCH  13  25
TORSDOF 6
ENDMDL
MODEL 2
REMARK VINA RESULT:      -6.4      2.032      3.149
REMARK  6 active torsions:
REMARK  status: ('A' for Active; 'I' for Inactive)
REMARK    1  A    between atoms: C_2  and  C_3 
REMARK    2  A    between atoms: C_2  and  O_18 
REMARK    3  A    between atoms: C_3  and  N_4 
REMARK       I    between atoms: C_12  and  N_13 
REMARK    4  A    between atoms: C_16  and  N_17 
REMARK    5  A    between atoms: O_18  and  C_19 
REMARK    6  A    between atoms: C_19  and  P_20 
ROOT
HETATM    1  N   UNK N   1      30.006  16.889   5.236  0.00  0.00    -0.324 N 
HETATM    2  C   UNK N   1      29.159  17.219   4.230  0.00  0.00     0.185 A 
HETATM    3  N   UNK N   1      28.192  18.080   4.656  0.00  0.00    -0.346 N 
ATOM      4  HN  UNK N   1      27.430  18.485   4.112  1.00  0.00     0.167 HD
HETATM    5  C   UNK N   1      28.472  18.275   5.957  0.00  0.00     0.123 A 
HETATM    6  C   UNK N   1      29.560  17.561   6.305  0.00  0.00     0.155 A 
HETATM    7  N   UNK N   1      30.073  17.577   7.558  0.00  0.00    -0.174 N 
ATOM      8  HN  UNK N   1      30.896  17.025   7.796  1.00  0.00     0.186 HD
HETATM    9  C   UNK N   1      29.452  18.359   8.496  0.00  0.00     0.679 A 
HETATM   10  N   UNK N   1      29.965  18.421   9.806  0.00  0.00    -0.234 N 
HETATM   11  N   UNK N   1      28.333  19.088   8.165  0.00  0.00    -0.175 N 
ATOM     12  HN  UNK N   1      27.878  19.659   8.876  1.00  0.00     0.186 HD
HETATM   13  C   UNK N   1      27.824  19.058   6.898  0.00  0.00     0.145 A 
HETATM   14  H   UNK N   1      29.401  18.739  10.549  0.00  0.00     0.174 HD
HETATM   15  H   UNK N   1      30.894  18.146   9.981  0.00  0.00     0.174 HD
ENDROOT
BRANCH   1  16
HETATM   16  C   UNK N   1      31.127  15.958   5.119  0.00  0.00     0.163 C 
BRANCH  16  17
HETATM   17  C   UNK N   1      32.481  16.620   4.853  0.00  0.00     0.136 C 
HETATM   18  C   UNK N   1      32.622  17.230   3.467  0.00  0.00     0.041 C 
BRANCH  17  19
HETATM   19  O   UNK N   1      32.785  17.562   5.841  0.00  0.00    -0.371 OA
BRANCH  19  20
HETATM   20  C   UNK N   1      34.039  17.192   6.344  0.00  0.00     0.313 C 
BRANCH  20  21
HETATM   21  P   UNK N   1      34.212  17.727   8.122  0.00  0.00     0.283 P 
HETATM   22  O   UNK N   1      35.082  19.206   8.380  0.00  0.00    -0.638 OA
HETATM   23  O   UNK N   1      34.893  16.531   9.178  0.00  0.00    -0.638 OA
HETATM   24  O   UNK N   1      32.812  18.008   8.730  0.00  0.00    -0.638 OA
ENDBRANCH  20  21
ENDBRANCH  19  20
ENDBRANCH  17  19
ENDBRANCH  16  17
ENDBRANCH   1  16
BRANCH  13  25
HETATM   25  N   UNK N   1      26.674  19.803   6.566  0.00  0.00    -0.383 N 
HETATM   26  H   UNK N   1      26.650  20.436   5.812  0.00  0.00     0.157 HD
HETATM   27  H   UNK N   1      25.863  19.686   7.110  0.00  0.00     0.157 HD
ENDBRANCH  13  25
TORSDOF 6
ENDMDL
MODEL 3
REMARK VINA RESULT:      -6.4      1.277      2.696
REMARK  6 active torsions:
REMARK  status: ('A' for Active; 'I' for Inactive)
REMARK    1  A    between atoms: C_2  and  C_3 
REMARK    2  A    between atoms: C_2  and  O_18 
REMARK    3  A    between atoms: C_3  and  N_4 
REMARK       I    between atoms: C_12  and  N_13 
REMARK    4  A    between atoms: C_16  and  N_17 
REMARK    5  A    between atoms: O_18  and  C_19 
REMARK    6  A    between atoms: C_19  and  P_20 
ROOT
HETATM    1  N   UNK N   1      29.049  17.507   7.343  0.00  0.00    -0.324 N 
HETATM    2  C   UNK N   1      28.700  17.695   8.640  0.00  0.00     0.185 A 
HETATM    3  N   UNK N   1      27.858  18.759   8.779  0.00  0.00    -0.346 N 
ATOM      4  HN  UNK N   1      27.446  19.122   9.638  1.00  0.00     0.167 HD
HETATM    5  C   UNK N   1      27.696  19.219   7.526  0.00  0.00     0.123 A 
HETATM    6  C   UNK N   1      28.409  18.470   6.664  0.00  0.00     0.155 A 
HETATM    7  N   UNK N   1      28.422  18.703   5.331  0.00  0.00    -0.174 N 
ATOM      8  HN  UNK N   1      28.974  18.121   4.700  1.00  0.00     0.186 HD
HETATM    9  C   UNK N   1      27.671  19.745   4.854  0.00  0.00     0.679 A 
HETATM   10  N   UNK N   1      27.639  20.010   3.472  0.00  0.00    -0.234 N 
HETATM   11  N   UNK N   1      26.943  20.531   5.718  0.00  0.00    -0.175 N 
ATOM     12  HN  UNK N   1      26.395  21.307   5.349  1.00  0.00     0.186 HD
HETATM   13  C   UNK N   1      26.944  20.286   7.062  0.00  0.00     0.145 A 
HETATM   14  H   UNK N   1      27.346  20.889   3.139  0.00  0.00     0.174 HD
HETATM   15  H   UNK N   1      27.910  19.312   2.833  0.00  0.00     0.174 HD
ENDROOT
BRANCH   1  16
HETATM   16  C   UNK N   1      29.967  16.477   6.861  0.00  0.00     0.163 C 
BRANCH  16  17
HETATM   17  C   UNK N   1      31.406  16.955   6.646  0.00  0.00     0.136 C 
HETATM   18  C   UNK N   1      31.728  17.356   5.214  0.00  0.00     0.041 C 
BRANCH  17  19
HETATM   19  O   UNK N   1      31.734  17.985   7.533  0.00  0.00    -0.371 OA
BRANCH  19  20
HETATM   20  C   UNK N   1      32.451  17.376   8.571  0.00  0.00     0.313 C 
BRANCH  20  21
HETATM   21  P   UNK N   1      34.286  17.533   8.277  0.00  0.00     0.283 P 
HETATM   22  O   UNK N   1      34.921  19.146   8.342  0.00  0.00    -0.638 OA
HETATM   23  O   UNK N   1      34.850  16.810   6.805  0.00  0.00    -0.638 OA
HETATM   24  O   UNK N   1      35.068  16.781   9.386  0.00  0.00    -0.638 OA
ENDBRANCH  20  21
ENDBRANCH  19  20
ENDBRANCH  17  19
ENDBRANCH  16  17
ENDBRANCH   1  16
BRANCH  13  25
HETATM   25  N   UNK N   1      26.201  21.097   7.942  0.00  0.00    -0.383 N 
HETATM   26  H   UNK N   1      26.598  21.853   8.433  0.00  0.00     0.157 HD
HETATM   27  H   UNK N   1      25.245  20.900   8.072  0.00  0.00     0.157 HD
ENDBRANCH  13  25
TORSDOF 6
ENDMDL
MODEL 4
REMARK VINA RESULT:      -6.4      7.942     10.458
REMARK  6 active torsions:
REMARK  status: ('A' for Active; 'I' for Inactive)
REMARK    1  A    between atoms: C_2  and  C_3 
REMARK    2  A    between atoms: C_2  and  O_18 
REMARK    3  A    between atoms: C_3  and  N_4 
REMARK       I    between atoms: C_12  and  N_13 
REMARK    4  A    between atoms: C_16  and  N_17 
REMARK    5  A    between atoms: O_18  and  C_19 
REMARK    6  A    between atoms: C_19  and  P_20 
ROOT
HETATM    1  N   UNK N   1      35.315  14.261  11.404  0.00  0.00    -0.324 N 
HETATM    2  C   UNK N   1      36.116  15.275  11.817  0.00  0.00     0.185 A 
HETATM    3  N   UNK N   1      36.460  15.134  13.129  0.00  0.00    -0.346 N 
ATOM      4  HN  UNK N   1      37.047  15.749  13.692  1.00  0.00     0.167 HD
HETATM    5  C   UNK N   1      35.850  13.998  13.511  0.00  0.00     0.123 A 
HETATM    6  C   UNK N   1      35.163  13.474  12.477  0.00  0.00     0.155 A 
HETATM    7  N   UNK N   1      34.460  12.322  12.577  0.00  0.00    -0.174 N 
ATOM      8  HN  UNK N   1      33.947  11.949  11.779  1.00  0.00     0.186 HD
HETATM    9  C   UNK N   1      34.459  11.672  13.783  0.00  0.00     0.679 A 
HETATM   10  N   UNK N   1      33.758  10.460  13.924  0.00  0.00    -0.234 N 
HETATM   11  N   UNK N   1      35.144  12.195  14.855  0.00  0.00    -0.175 N 
ATOM     12  HN  UNK N   1      35.129  11.703  15.749  1.00  0.00     0.186 HD
HETATM   13  C   UNK N   1      35.846  13.361  14.741  0.00  0.00     0.145 A 
HETATM   14  H   UNK N   1      33.513  10.126  14.818  0.00  0.00     0.174 HD
HETATM   15  H   UNK N   1      33.511   9.941  13.125  0.00  0.00     0.174 HD
ENDROOT
BRANCH   1  16
HETATM   16  C   UNK N   1      34.742  14.138  10.065  0.00  0.00     0.163 C 
BRANCH  16  17
HETATM   17  C   UNK N   1      35.703  14.484   8.925  0.00  0.00     0.136 C 
HETATM   18  C   UNK N   1      36.278  13.276   8.198  0.00  0.00     0.041 C 
BRANCH  17  19
HETATM   19  O   UNK N   1      35.113  15.370   8.018  0.00  0.00    -0.371 OA
BRANCH  19  20
HETATM   20  C   UNK N   1      34.352  16.254   8.794  0.00  0.00     0.313 C 
BRANCH  20  21
HETATM   21  P   UNK N   1      34.172  17.894   7.926  0.00  0.00     0.283 P 
HETATM   22  O   UNK N   1      34.287  17.845   6.196  0.00  0.00    -0.638 OA
HETATM   23  O   UNK N   1      35.249  19.134   8.485  0.00  0.00    -0.638 OA
HETATM   24  O   UNK N   1      32.760  18.482   8.189  0.00  0.00    -0.638 OA
ENDBRANCH  20  21
ENDBRANCH  19  20
ENDBRANCH  17  19
ENDBRANCH  16  17
ENDBRANCH   1  16
BRANCH  13  25
HETATM   25  N   UNK N   1      36.542  13.895  15.845  0.00  0.00    -0.383 N 
HETATM   26  H   UNK N   1      36.806  14.842  15.900  0.00  0.00     0.157 HD
HETATM   27  H   UNK N   1      36.773  13.296  16.591  0.00  0.00     0.157 HD
ENDBRANCH  13  25
TORSDOF 6
ENDMDL
MODEL 5
REMARK VINA RESULT:      -6.4      8.539     11.046
REMARK  6 active torsions:
REMARK  status: ('A' for Active; 'I' for Inactive)
REMARK    1  A    between atoms: C_2  and  C_3 
REMARK    2  A    between atoms: C_2  and  O_18 
REMARK    3  A    between atoms: C_3  and  N_4 
REMARK       I    between atoms: C_12  and  N_13 
REMARK    4  A    between atoms: C_16  and  N_17 
REMARK    5  A    between atoms: O_18  and  C_19 
REMARK    6  A    between atoms: C_19  and  P_20 
ROOT
HETATM    1  N   UNK N   1      35.626  14.268  12.852  0.00  0.00    -0.324 N 
HETATM    2  C   UNK N   1      36.509  14.608  13.824  0.00  0.00     0.185 A 
HETATM    3  N   UNK N   1      36.751  13.562  14.665  0.00  0.00    -0.346 N 
ATOM      4  HN  UNK N   1      37.367  13.542  15.477  1.00  0.00     0.167 HD
HETATM    5  C   UNK N   1      35.992  12.564  14.179  0.00  0.00     0.123 A 
HETATM    6  C   UNK N   1      35.317  12.986  13.093  0.00  0.00     0.155 A 
HETATM    7  N   UNK N   1      34.481  12.182  12.394  0.00  0.00    -0.174 N 
ATOM      8  HN  UNK N   1      33.981  12.528  11.576  1.00  0.00     0.186 HD
HETATM    9  C   UNK N   1      34.330  10.889  12.820  0.00  0.00     0.679 A 
HETATM   10  N   UNK N   1      33.487  10.012  12.110  0.00  0.00    -0.234 N 
HETATM   11  N   UNK N   1      35.001  10.440  13.934  0.00  0.00    -0.175 N 
ATOM     12  HN  UNK N   1      34.872   9.476  14.243  1.00  0.00     0.186 HD
HETATM   13  C   UNK N   1      35.837  11.264  14.632  0.00  0.00     0.145 A 
HETATM   14  H   UNK N   1      33.150   9.191  12.536  0.00  0.00     0.174 HD
HETATM   15  H   UNK N   1      33.234  10.221  11.182  0.00  0.00     0.174 HD
ENDROOT
BRANCH   1  16
HETATM   16  C   UNK N   1      35.129  15.171  11.817  0.00  0.00     0.163 C 
BRANCH  16  17
HETATM   17  C   UNK N   1      36.196  15.671  10.839  0.00  0.00     0.136 C 
HETATM   18  C   UNK N   1      36.608  14.654   9.785  0.00  0.00     0.041 C 
BRANCH  17  19
HETATM   19  O   UNK N   1      35.808  16.873  10.240  0.00  0.00    -0.371 OA
BRANCH  19  20
HETATM   20  C   UNK N   1      34.721  16.552   9.416  0.00  0.00     0.313 C 
BRANCH  20  21
HETATM   21  P   UNK N   1      34.341  17.963   8.258  0.00  0.00     0.283 P 
HETATM   22  O   UNK N   1      35.276  19.405   8.499  0.00  0.00    -0.638 OA
HETATM   23  O   UNK N   1      32.671  18.428   8.203  0.00  0.00    -0.638 OA
HETATM   24  O   UNK N   1      34.662  17.552   6.796  0.00  0.00    -0.638 OA
ENDBRANCH  20  21
ENDBRANCH  19  20
ENDBRANCH  17  19
ENDBRANCH  16  17
ENDBRANCH   1  16
BRANCH  13  25
HETATM   25  N   UNK N   1      36.518  10.800  15.775  0.00  0.00    -0.383 N 
HETATM   26  H   UNK N   1      37.348  10.273  15.723  0.00  0.00     0.157 HD
HETATM   27  H   UNK N   1      36.148  11.011  16.662  0.00  0.00     0.157 HD
ENDBRANCH  13  25
TORSDOF 6
ENDMDL
MODEL 6
REMARK VINA RESULT:      -6.2      8.278     10.980
REMARK  6 active torsions:
REMARK  status: ('A' for Active; 'I' for Inactive)
REMARK    1  A    between atoms: C_2  and  C_3 
REMARK    2  A    between atoms: C_2  and  O_18 
REMARK    3  A    between atoms: C_3  and  N_4 
REMARK       I    between atoms: C_12  and  N_13 
REMARK    4  A    between atoms: C_16  and  N_17 
REMARK    5  A    between atoms: O_18  and  C_19 
REMARK    6  A    between atoms: C_19  and  P_20 
ROOT
HETATM    1  N   UNK N   1      35.109  13.658  11.967  0.00  0.00    -0.324 N 
HETATM    2  C   UNK N   1      34.790  12.389  11.607  0.00  0.00     0.185 A 
HETATM    3  N   UNK N   1      35.194  11.489  12.548  0.00  0.00    -0.346 N 
ATOM      4  HN  UNK N   1      35.085  10.475  12.532  1.00  0.00     0.167 HD
HETATM    5  C   UNK N   1      35.769  12.242  13.503  0.00  0.00     0.123 A 
HETATM    6  C   UNK N   1      35.718  13.543  13.155  0.00  0.00     0.155 A 
HETATM    7  N   UNK N   1      36.216  14.528  13.939  0.00  0.00    -0.174 N 
ATOM      8  HN  UNK N   1      36.167  15.504  13.650  1.00  0.00     0.186 HD
HETATM    9  C   UNK N   1      36.787  14.172  15.132  0.00  0.00     0.679 A 
HETATM   10  N   UNK N   1      37.298  15.166  15.987  0.00  0.00    -0.234 N 
HETATM   11  N   UNK N   1      36.860  12.849  15.502  0.00  0.00    -0.175 N 
ATOM     12  HN  UNK N   1      37.294  12.599  16.390  1.00  0.00     0.186 HD
HETATM   13  C   UNK N   1      36.357  11.865  14.698  0.00  0.00     0.145 A 
HETATM   14  H   UNK N   1      37.944  14.934  16.695  0.00  0.00     0.174 HD
HETATM   15  H   UNK N   1      37.009  16.101  15.879  0.00  0.00     0.174 HD
ENDROOT
BRANCH   1  16
HETATM   16  C   UNK N   1      34.849  14.849  11.161  0.00  0.00     0.163 C 
BRANCH  16  17
HETATM   17  C   UNK N   1      36.104  15.607  10.721  0.00  0.00     0.136 C 
HETATM   18  C   UNK N   1      37.072  14.788   9.881  0.00  0.00     0.041 C 
BRANCH  17  19
HETATM   19  O   UNK N   1      35.771  16.799  10.069  0.00  0.00    -0.371 OA
BRANCH  19  20
HETATM   20  C   UNK N   1      34.693  16.482   9.231  0.00  0.00     0.313 C 
BRANCH  20  21
HETATM   21  P   UNK N   1      34.275  17.929   8.132  0.00  0.00     0.283 P 
HETATM   22  O   UNK N   1      32.665  18.555   8.293  0.00  0.00    -0.638 OA
HETATM   23  O   UNK N   1      34.565  17.665   6.442  0.00  0.00    -0.638 OA
HETATM   24  O   UNK N   1      35.181  19.140   8.481  0.00  0.00    -0.638 OA
ENDBRANCH  20  21
ENDBRANCH  19  20
ENDBRANCH  17  19
ENDBRANCH  16  17
ENDBRANCH   1  16
BRANCH  13  25
HETATM   25  N   UNK N   1      36.439  10.511  15.080  0.00  0.00    -0.383 N 
HETATM   26  H   UNK N   1      36.746  10.227  15.972  0.00  0.00     0.157 HD
HETATM   27  H   UNK N   1      36.179   9.820  14.429  0.00  0.00     0.157 HD
ENDBRANCH  13  25
TORSDOF 6
ENDMDL
MODEL 7
REMARK VINA RESULT:      -6.0      2.168      3.963
REMARK  6 active torsions:
REMARK  status: ('A' for Active; 'I' for Inactive)
REMARK    1  A    between atoms: C_2  and  C_3 
REMARK    2  A    between atoms: C_2  and  O_18 
REMARK    3  A    between atoms: C_3  and  N_4 
REMARK       I    between atoms: C_12  and  N_13 
REMARK    4  A    between atoms: C_16  and  N_17 
REMARK    5  A    between atoms: O_18  and  C_19 
REMARK    6  A    between atoms: C_19  and  P_20 
ROOT
HETATM    1  N   UNK N   1      30.132  17.397   8.536  0.00  0.00    -0.324 N 
HETATM    2  C   UNK N   1      29.519  17.982   9.596  0.00  0.00     0.185 A 
HETATM    3  N   UNK N   1      28.501  18.796   9.195  0.00  0.00    -0.346 N 
ATOM      4  HN  UNK N   1      27.880  19.355   9.780  1.00  0.00     0.167 HD
HETATM    5  C   UNK N   1      28.502  18.692   7.854  0.00  0.00     0.123 A 
HETATM    6  C   UNK N   1      29.479  17.854   7.459  0.00  0.00     0.155 A 
HETATM    7  N   UNK N   1      29.703  17.556   6.157  0.00  0.00    -0.174 N 
ATOM      8  HN  UNK N   1      30.452  16.920   5.884  1.00  0.00     0.186 HD
HETATM    9  C   UNK N   1      28.892  18.136   5.217  0.00  0.00     0.679 A 
HETATM   10  N   UNK N   1      29.076  17.837   3.854  0.00  0.00    -0.234 N 
HETATM   11  N   UNK N   1      27.894  19.003   5.599  0.00  0.00    -0.175 N 
ATOM     12  HN  UNK N   1      27.303  19.432   4.887  1.00  0.00     0.186 HD
HETATM   13  C   UNK N   1      27.683  19.298   6.916  0.00  0.00     0.145 A 
HETATM   14  H   UNK N   1      28.709  18.431   3.159  0.00  0.00     0.174 HD
HETATM   15  H   UNK N   1      29.575  17.030   3.593  0.00  0.00     0.174 HD
ENDROOT
BRANCH   1  16
HETATM   16  C   UNK N   1      31.282  16.500   8.622  0.00  0.00     0.163 C 
BRANCH  16  17
HETATM   17  C   UNK N   1      32.638  17.181   8.419  0.00  0.00     0.136 C 
HETATM   18  C   UNK N   1      33.838  16.302   8.741  0.00  0.00     0.041 C 
BRANCH  17  19
HETATM   19  O   UNK N   1      32.749  17.714   7.131  0.00  0.00    -0.371 OA
BRANCH  19  20
HETATM   20  C   UNK N   1      33.470  16.767   6.391  0.00  0.00     0.313 C 
BRANCH  20  21
HETATM   21  P   UNK N   1      32.667  16.486   4.733  0.00  0.00     0.283 P 
HETATM   22  O   UNK N   1      31.220  15.529   4.752  0.00  0.00    -0.638 OA
HETATM   23  O   UNK N   1      33.715  15.820   3.521  0.00  0.00    -0.638 OA
HETATM   24  O   UNK N   1      32.210  17.839   4.127  0.00  0.00    -0.638 OA
ENDBRANCH  20  21
ENDBRANCH  19  20
ENDBRANCH  17  19
ENDBRANCH  16  17
ENDBRANCH   1  16
BRANCH  13  25
HETATM   25  N   UNK N   1      26.664  20.191   7.300  0.00  0.00    -0.383 N 
HETATM   26  H   UNK N   1      25.720  19.920   7.377  0.00  0.00     0.157 HD
HETATM   27  H   UNK N   1      26.904  21.125   7.498  0.00  0.00     0.157 HD
ENDBRANCH  13  25
TORSDOF 6
ENDMDL
MODEL 8
REMARK VINA RESULT:      -6.0      2.805      4.518
REMARK  6 active torsions:
REMARK  status: ('A' for Active; 'I' for Inactive)
REMARK    1  A    between atoms: C_2  and  C_3 
REMARK    2  A    between atoms: C_2  and  O_18 
REMARK    3  A    between atoms: C_3  and  N_4 
REMARK       I    between atoms: C_12  and  N_13 
REMARK    4  A    between atoms: C_16  and  N_17 
REMARK    5  A    between atoms: O_18  and  C_19 
REMARK    6  A    between atoms: C_19  and  P_20 
ROOT
HETATM    1  N   UNK N   1      29.786  16.710   5.205  0.00  0.00    -0.324 N 
HETATM    2  C   UNK N   1      28.441  16.851   5.103  0.00  0.00     0.185 A 
HETATM    3  N   UNK N   1      27.901  17.321   6.264  0.00  0.00    -0.346 N 
ATOM      4  HN  UNK N   1      26.920  17.516   6.464  1.00  0.00     0.167 HD
HETATM    5  C   UNK N   1      28.956  17.470   7.084  0.00  0.00     0.123 A 
HETATM    6  C   UNK N   1      30.087  17.104   6.451  0.00  0.00     0.155 A 
HETATM    7  N   UNK N   1      31.305  17.161   7.039  0.00  0.00    -0.174 N 
ATOM      8  HN  UNK N   1      32.145  16.875   6.537  1.00  0.00     0.186 HD
HETATM    9  C   UNK N   1      31.374  17.615   8.329  0.00  0.00     0.679 A 
HETATM   10  N   UNK N   1      32.622  17.711   8.972  0.00  0.00    -0.234 N 
HETATM   11  N   UNK N   1      30.230  17.983   9.000  0.00  0.00    -0.175 N 
ATOM     12  HN  UNK N   1      30.297  18.313   9.962  1.00  0.00     0.186 HD
HETATM   13  C   UNK N   1      29.007  17.916   8.394  0.00  0.00     0.145 A 
HETATM   14  H   UNK N   1      32.676  17.763   9.954  0.00  0.00     0.174 HD
HETATM   15  H   UNK N   1      33.449  17.726   8.437  0.00  0.00     0.174 HD
ENDROOT
BRANCH   1  16
HETATM   16  C   UNK N   1      30.658  16.194   4.152  0.00  0.00     0.163 C 
BRANCH  16  17
HETATM   17  C   UNK N   1      31.077  14.732   4.331  0.00  0.00     0.136 C 
HETATM   18  C   UNK N   1      31.511  14.041   3.046  0.00  0.00     0.041 C 
BRANCH  17  19
HETATM   19  O   UNK N   1      32.062  14.605   5.315  0.00  0.00    -0.371 OA
BRANCH  19  20
HETATM   20  C   UNK N   1      33.239  15.101   4.739  0.00  0.00     0.313 C 
BRANCH  20  21
HETATM   21  P   UNK N   1      34.353  15.820   6.049  0.00  0.00     0.283 P 
HETATM   22  O   UNK N   1      34.322  17.549   6.197  0.00  0.00    -0.638 OA
HETATM   23  O   UNK N   1      36.015  15.337   5.935  0.00  0.00    -0.638 OA
HETATM   24  O   UNK N   1      33.916  15.320   7.452  0.00  0.00    -0.638 OA
ENDBRANCH  20  21
ENDBRANCH  19  20
ENDBRANCH  17  19
ENDBRANCH  16  17
ENDBRANCH   1  16
BRANCH  13  25
HETATM   25  N   UNK N   1      27.839  18.290   9.088  0.00  0.00    -0.383 N 
HETATM   26  H   UNK N   1      27.410  19.169   8.973  0.00  0.00     0.157 HD
HETATM   27  H   UNK N   1      27.434  17.646   9.713  0.00  0.00     0.157 HD
ENDBRANCH  13  25
TORSDOF 6
ENDMDL
MODEL 9
REMARK VINA RESULT:      -5.9      2.407      4.290
REMARK  6 active torsions:
REMARK  status: ('A' for Active; 'I' for Inactive)
REMARK    1  A    between atoms: C_2  and  C_3 
REMARK    2  A    between atoms: C_2  and  O_18 
REMARK    3  A    between atoms: C_3  and  N_4 
REMARK       I    between atoms: C_12  and  N_13 
REMARK    4  A    between atoms: C_16  and  N_17 
REMARK    5  A    between atoms: O_18  and  C_19 
REMARK    6  A    between atoms: C_19  and  P_20 
ROOT
HETATM    1  N   UNK N   1      31.443  16.239   7.489  0.00  0.00    -0.324 N 
HETATM    2  C   UNK N   1      31.346  16.373   8.835  0.00  0.00     0.185 A 
HETATM    3  N   UNK N   1      30.279  17.148   9.182  0.00  0.00    -0.346 N 
ATOM      4  HN  UNK N   1      29.976  17.411  10.119  1.00  0.00     0.167 HD
HETATM    5  C   UNK N   1      29.718  17.484   8.007  0.00  0.00     0.123 A 
HETATM    6  C   UNK N   1      30.415  16.940   6.991  0.00  0.00     0.155 A 
HETATM    7  N   UNK N   1      30.067  17.109   5.694  0.00  0.00    -0.174 N 
ATOM      8  HN  UNK N   1      30.614  16.687   4.944  1.00  0.00     0.186 HD
HETATM    9  C   UNK N   1      28.956  17.862   5.420  0.00  0.00     0.679 A 
HETATM   10  N   UNK N   1      28.546  18.045   4.086  0.00  0.00    -0.234 N 
HETATM   11  N   UNK N   1      28.236  18.437   6.442  0.00  0.00    -0.175 N 
ATOM     12  HN  UNK N   1      27.415  19.001   6.221  1.00  0.00     0.186 HD
HETATM   13  C   UNK N   1      28.602  18.262   7.746  0.00  0.00     0.145 A 
HETATM   14  H   UNK N   1      27.941  18.784   3.846  0.00  0.00     0.174 HD
HETATM   15  H   UNK N   1      28.866  17.430   3.387  0.00  0.00     0.174 HD
ENDROOT
BRANCH   1  16
HETATM   16  C   UNK N   1      32.497  15.503   6.792  0.00  0.00     0.163 C 
BRANCH  16  17
HETATM   17  C   UNK N   1      33.758  16.320   6.500  0.00  0.00     0.136 C 
HETATM   18  C   UNK N   1      33.542  17.499   5.562  0.00  0.00     0.041 C 
BRANCH  17  19
HETATM   19  O   UNK N   1      34.375  16.738   7.684  0.00  0.00    -0.371 OA
BRANCH  19  20
HETATM   20  C   UNK N   1      34.872  15.573   8.283  0.00  0.00     0.313 C 
BRANCH  20  21
HETATM   21  P   UNK N   1      35.374  15.909  10.047  0.00  0.00     0.283 P 
HETATM   22  O   UNK N   1      34.415  15.128  11.263  0.00  0.00    -0.638 OA
HETATM   23  O   UNK N   1      35.476  17.590  10.464  0.00  0.00    -0.638 OA
HETATM   24  O   UNK N   1      36.807  15.374  10.302  0.00  0.00    -0.638 OA
ENDBRANCH  20  21
ENDBRANCH  19  20
ENDBRANCH  17  19
ENDBRANCH  16  17
ENDBRANCH   1  16
BRANCH  13  25
HETATM   25  N   UNK N   1      27.863  18.857   8.788  0.00  0.00    -0.383 N 
HETATM   26  H   UNK N   1      27.841  19.831   8.936  0.00  0.00     0.157 HD
HETATM   27  H   UNK N   1      27.348  18.276   9.393  0.00  0.00     0.157 HD
ENDBRANCH  13  25
TORSDOF 6
ENDMDL
