MODEL 1
REMARK VINA RESULT:      -6.5      0.000      0.000
REMARK  6 active torsions:
REMARK  status: ('A' for Active; 'I' for Inactive)
REMARK    1  A    between atoms: C_4  and  C_2 
REMARK    2  A    between atoms: O_19  and  C_2 
REMARK    3  A    between atoms: C_6  and  C_3 
REMARK    4  A    between atoms: C_8  and  O_20 
REMARK    5  A    between atoms: C_9  and  O_21 
REMARK    6  A    between atoms: O_22  and  C_10 
REMARK       I    between atoms: N_12  and  C_11 
ROOT
HETATM    1  C   UNK N   1      32.748  14.648   7.212  0.00  0.00     0.100 A 
HETATM    2  C   UNK N   1      32.780  15.348   8.420  0.00  0.00     0.012 A 
HETATM    3  C   UNK N   1      31.758  16.250   8.358  0.00  0.00     0.090 A 
HETATM    4  C   UNK N   1      31.147  16.103   7.165  0.00  0.00     0.112 A 
HETATM    5  C   UNK N   1      30.069  16.917   6.842  0.00  0.00     0.184 A 
HETATM    6  C   UNK N   1      30.293  17.960   8.977  0.00  0.00     0.678 A 
HETATM    7  N   UNK N   1      29.887  18.820   9.829  0.00  0.00    -0.234 N 
ATOM      8  HN  UNK N   1      30.295  18.838  10.763  1.00  0.00     0.174 HD
HETATM    9  N   UNK N   1      31.730  15.128   6.440  0.00  0.00    -0.360 N 
HETATM   10  N   UNK N   1      31.360  17.161   9.276  0.00  0.00    -0.189 N 
HETATM   11  N   UNK N   1      29.658  17.838   7.765  0.00  0.00    -0.169 N 
ATOM     12  HN  UNK N   1      28.865  18.444   7.551  1.00  0.00     0.186 HD
HETATM   13  H   UNK N   1      29.182  19.466   9.593  0.00  0.00     0.174 HD
HETATM   14  H   UNK N   1      31.475  14.824   5.539  0.00  0.00     0.165 HD
HETATM   15  H   UNK N   1      31.829  17.247  10.137  0.00  0.00     0.184 HD
ENDROOT
BRANCH   2  16
HETATM   16  C   UNK N   1      33.727  15.232   9.573  0.00  0.00     0.145 C 
HETATM   17  C   UNK N   1      34.915  16.182   9.619  0.00  0.00     0.175 C 
HETATM   18  C   UNK N   1      35.645  15.545  10.780  0.00  0.00     0.173 C 
HETATM   19  C   UNK N   1      35.563  14.061  10.400  0.00  0.00     0.132 C 
HETATM   20  N   UNK N   1      34.315  13.894   9.647  0.00  0.00    -0.402 N 
HETATM   21  H   UNK N   1      33.936  13.030   9.258  0.00  0.00     0.154 HD
BRANCH  17  22
HETATM   22  O   UNK N   1      34.544  17.503   9.882  0.00  0.00    -0.391 OA
HETATM   23  H   UNK N   1      33.915  18.005  10.424  0.00  0.00     0.210 HD
ENDBRANCH  17  22
BRANCH  18  24
HETATM   24  O   UNK N   1      36.958  15.999  10.926  0.00  0.00    -0.391 OA
HETATM   25  H   UNK N   1      37.731  15.415  10.904  0.00  0.00     0.210 HD
ENDBRANCH  18  24
BRANCH  19  26
HETATM   26  C   UNK N   1      35.541  13.139  11.617  0.00  0.00     0.191 C 
BRANCH  26  27
HETATM   27  O   UNK N   1      34.511  13.482  12.492  0.00  0.00    -0.399 OA
HETATM   28  H   UNK N   1      34.483  13.100  13.383  0.00  0.00     0.209 HD
ENDBRANCH  26  27
ENDBRANCH  19  26
ENDBRANCH   2  16
BRANCH   5  29
HETATM   29  O   UNK N   1      29.444  16.811   5.659  0.00  0.00    -0.344 OA
HETATM   30  H   UNK N   1      29.088  17.571   5.242  0.00  0.00     0.219 HD
ENDBRANCH   5  29
TORSDOF 6
ENDMDL
MODEL 2
REMARK VINA RESULT:      -6.5      2.689      6.262
REMARK  6 active torsions:
REMARK  status: ('A' for Active; 'I' for Inactive)
REMARK    1  A    between atoms: C_4  and  C_2 
REMARK    2  A    between atoms: O_19  and  C_2 
REMARK    3  A    between atoms: C_6  and  C_3 
REMARK    4  A    between atoms: C_8  and  O_20 
REMARK    5  A    between atoms: C_9  and  O_21 
REMARK    6  A    between atoms: O_22  and  C_10 
REMARK       I    between atoms: N_12  and  C_11 
ROOT
HETATM    1  C   UNK N   1      31.314  15.257   6.356  0.00  0.00     0.100 A 
HETATM    2  C   UNK N   1      31.366  16.292   7.291  0.00  0.00     0.012 A 
HETATM    3  C   UNK N   1      32.557  16.151   7.941  0.00  0.00     0.090 A 
HETATM    4  C   UNK N   1      33.187  15.076   7.426  0.00  0.00     0.112 A 
HETATM    5  C   UNK N   1      34.428  14.703   7.924  0.00  0.00     0.184 A 
HETATM    6  C   UNK N   1      34.315  16.557   9.424  0.00  0.00     0.678 A 
HETATM    7  N   UNK N   1      34.848  17.256  10.350  0.00  0.00    -0.234 N 
ATOM      8  HN  UNK N   1      34.403  18.124  10.647  1.00  0.00     0.174 HD
HETATM    9  N   UNK N   1      32.450  14.507   6.451  0.00  0.00    -0.360 N 
HETATM   10  N   UNK N   1      33.089  16.903   8.933  0.00  0.00    -0.189 N 
HETATM   11  N   UNK N   1      34.974  15.461   8.923  0.00  0.00    -0.169 N 
ATOM     12  HN  UNK N   1      35.888  15.208   9.303  1.00  0.00     0.186 HD
HETATM   13  H   UNK N   1      35.686  16.966  10.780  0.00  0.00     0.174 HD
HETATM   14  H   UNK N   1      32.683  13.712   5.917  0.00  0.00     0.165 HD
HETATM   15  H   UNK N   1      32.604  17.681   9.291  0.00  0.00     0.184 HD
ENDROOT
BRANCH   2  16
HETATM   16  C   UNK N   1      30.355  17.348   7.613  0.00  0.00     0.145 C 
HETATM   17  C   UNK N   1      29.491  17.155   8.851  0.00  0.00     0.175 C 
HETATM   18  C   UNK N   1      28.537  18.305   8.619  0.00  0.00     0.173 C 
HETATM   19  C   UNK N   1      28.212  18.123   7.130  0.00  0.00     0.132 C 
HETATM   20  N   UNK N   1      29.404  17.527   6.516  0.00  0.00    -0.402 N 
HETATM   21  H   UNK N   1      29.541  17.288   5.533  0.00  0.00     0.154 HD
BRANCH  17  22
HETATM   22  O   UNK N   1      30.209  17.290  10.041  0.00  0.00    -0.391 OA
HETATM   23  H   UNK N   1      30.706  16.750  10.675  0.00  0.00     0.210 HD
ENDBRANCH  17  22
BRANCH  18  24
HETATM   24  O   UNK N   1      27.404  18.260   9.433  0.00  0.00    -0.391 OA
HETATM   25  H   UNK N   1      27.426  18.005  10.368  0.00  0.00     0.210 HD
ENDBRANCH  18  24
BRANCH  19  26
HETATM   26  C   UNK N   1      27.891  19.440   6.428  0.00  0.00     0.191 C 
BRANCH  26  27
HETATM   27  O   UNK N   1      26.908  20.151   7.114  0.00  0.00    -0.399 OA
HETATM   28  H   UNK N   1      26.276  20.702   6.625  0.00  0.00     0.209 HD
ENDBRANCH  26  27
ENDBRANCH  19  26
ENDBRANCH   2  16
BRANCH   5  29
HETATM   29  O   UNK N   1      35.079  13.631   7.447  0.00  0.00    -0.344 OA
HETATM   30  H   UNK N   1      34.719  13.137   6.737  0.00  0.00     0.219 HD
ENDBRANCH   5  29
TORSDOF 6
ENDMDL
MODEL 3
REMARK VINA RESULT:      -6.3      8.682     11.620
REMARK  6 active torsions:
REMARK  status: ('A' for Active; 'I' for Inactive)
REMARK    1  A    between atoms: C_4  and  C_2 
REMARK    2  A    between atoms: O_19  and  C_2 
REMARK    3  A    between atoms: C_6  and  C_3 
REMARK    4  A    between atoms: C_8  and  O_20 
REMARK    5  A    between atoms: C_9  and  O_21 
REMARK    6  A    between atoms: O_22  and  C_10 
REMARK       I    between atoms: N_12  and  C_11 
ROOT
HETATM    1  C   UNK N   1      22.921  17.448   4.498  0.00  0.00     0.100 A 
HETATM    2  C   UNK N   1      23.251  18.746   4.103  0.00  0.00     0.012 A 
HETATM    3  C   UNK N   1      22.194  19.193   3.365  0.00  0.00     0.090 A 
HETATM    4  C   UNK N   1      21.278  18.206   3.311  0.00  0.00     0.112 A 
HETATM    5  C   UNK N   1      20.099  18.401   2.603  0.00  0.00     0.184 A 
HETATM    6  C   UNK N   1      20.855  20.602   2.070  0.00  0.00     0.678 A 
HETATM    7  N   UNK N   1      20.652  21.726   1.499  0.00  0.00    -0.234 N 
ATOM      8  HN  UNK N   1      21.309  22.492   1.645  1.00  0.00     0.174 HD
HETATM    9  N   UNK N   1      21.694  17.123   3.997  0.00  0.00    -0.360 N 
HETATM   10  N   UNK N   1      22.015  20.390   2.759  0.00  0.00    -0.189 N 
HETATM   11  N   UNK N   1      19.908  19.610   1.991  0.00  0.00    -0.169 N 
ATOM     12  HN  UNK N   1      19.048  19.777   1.469  1.00  0.00     0.186 HD
HETATM   13  H   UNK N   1      19.866  21.861   0.921  0.00  0.00     0.174 HD
HETATM   14  H   UNK N   1      21.212  16.272   4.114  0.00  0.00     0.165 HD
HETATM   15  H   UNK N   1      22.704  21.091   2.813  0.00  0.00     0.184 HD
ENDROOT
BRANCH   2  16
HETATM   16  C   UNK N   1      24.495  19.540   4.354  0.00  0.00     0.145 C 
HETATM   17  C   UNK N   1      25.531  19.611   3.241  0.00  0.00     0.175 C 
HETATM   18  C   UNK N   1      26.630  20.293   4.025  0.00  0.00     0.173 C 
HETATM   19  C   UNK N   1      26.610  19.482   5.328  0.00  0.00     0.132 C 
HETATM   20  N   UNK N   1      25.225  19.034   5.515  0.00  0.00    -0.402 N 
HETATM   21  H   UNK N   1      24.851  18.486   6.291  0.00  0.00     0.154 HD
BRANCH  17  22
HETATM   22  O   UNK N   1      25.106  20.369   2.149  0.00  0.00    -0.391 OA
HETATM   23  H   UNK N   1      25.471  20.901   1.425  0.00  0.00     0.210 HD
ENDBRANCH  17  22
BRANCH  18  24
HETATM   24  O   UNK N   1      27.870  20.264   3.384  0.00  0.00    -0.391 OA
HETATM   25  H   UNK N   1      28.075  20.784   2.592  0.00  0.00     0.210 HD
ENDBRANCH  18  24
BRANCH  19  26
HETATM   26  C   UNK N   1      27.040  20.302   6.542  0.00  0.00     0.191 C 
BRANCH  26  27
HETATM   27  O   UNK N   1      27.489  21.566   6.164  0.00  0.00    -0.399 OA
HETATM   28  H   UNK N   1      26.995  22.081   5.507  0.00  0.00     0.209 HD
ENDBRANCH  26  27
ENDBRANCH  19  26
ENDBRANCH   2  16
BRANCH   5  29
HETATM   29  O   UNK N   1      19.169  17.437   2.515  0.00  0.00    -0.344 OA
HETATM   30  H   UNK N   1      18.431  17.438   3.092  0.00  0.00     0.219 HD
ENDBRANCH   5  29
TORSDOF 6
ENDMDL
MODEL 4
REMARK VINA RESULT:      -6.2     14.134     16.194
REMARK  6 active torsions:
REMARK  status: ('A' for Active; 'I' for Inactive)
REMARK    1  A    between atoms: C_4  and  C_2 
REMARK    2  A    between atoms: O_19  and  C_2 
REMARK    3  A    between atoms: C_6  and  C_3 
REMARK    4  A    between atoms: C_8  and  O_20 
REMARK    5  A    between atoms: C_9  and  O_21 
REMARK    6  A    between atoms: O_22  and  C_10 
REMARK       I    between atoms: N_12  and  C_11 
ROOT
HETATM    1  C   UNK N   1      29.472  25.638  -3.860  0.00  0.00     0.100 A 
HETATM    2  C   UNK N   1      29.123  24.323  -4.171  0.00  0.00     0.012 A 
HETATM    3  C   UNK N   1      27.918  24.396  -4.806  0.00  0.00     0.090 A 
HETATM    4  C   UNK N   1      27.557  25.693  -4.866  0.00  0.00     0.112 A 
HETATM    5  C   UNK N   1      26.353  26.044  -5.461  0.00  0.00     0.184 A 
HETATM    6  C   UNK N   1      25.972  23.732  -5.915  0.00  0.00     0.678 A 
HETATM    7  N   UNK N   1      25.236  22.816  -6.415  0.00  0.00    -0.234 N 
ATOM      8  HN  UNK N   1      25.580  21.857  -6.454  1.00  0.00     0.174 HD
HETATM    9  N   UNK N   1      28.491  26.480  -4.295  0.00  0.00    -0.360 N 
HETATM   10  N   UNK N   1      27.153  23.401  -5.315  0.00  0.00    -0.189 N 
HETATM   11  N   UNK N   1      25.576  25.046  -5.981  0.00  0.00    -0.169 N 
ATOM     12  HN  UNK N   1      24.688  25.281  -6.426  1.00  0.00     0.186 HD
HETATM   13  H   UNK N   1      24.340  23.027  -6.765  0.00  0.00     0.174 HD
HETATM   14  H   UNK N   1      28.469  27.461  -4.209  0.00  0.00     0.165 HD
HETATM   15  H   UNK N   1      27.441  22.462  -5.253  0.00  0.00     0.184 HD
ENDROOT
BRANCH   2  16
HETATM   16  C   UNK N   1      29.835  23.042  -3.868  0.00  0.00     0.145 C 
HETATM   17  C   UNK N   1      30.792  23.020  -2.684  0.00  0.00     0.175 C 
HETATM   18  C   UNK N   1      31.392  21.654  -2.928  0.00  0.00     0.173 C 
HETATM   19  C   UNK N   1      31.665  21.717  -4.437  0.00  0.00     0.132 C 
HETATM   20  N   UNK N   1      30.639  22.597  -5.007  0.00  0.00    -0.402 N 
HETATM   21  H   UNK N   1      30.511  22.846  -5.988  0.00  0.00     0.154 HD
BRANCH  17  22
HETATM   22  O   UNK N   1      30.135  23.102  -1.454  0.00  0.00    -0.391 OA
HETATM   23  H   UNK N   1      29.937  22.554  -0.679  0.00  0.00     0.210 HD
ENDBRANCH  17  22
BRANCH  18  24
HETATM   24  O   UNK N   1      32.543  21.411  -2.176  0.00  0.00    -0.391 OA
HETATM   25  H   UNK N   1      32.928  22.056  -1.563  0.00  0.00     0.210 HD
ENDBRANCH  18  24
BRANCH  19  26
HETATM   26  C   UNK N   1      31.584  20.350  -5.111  0.00  0.00     0.191 C 
BRANCH  26  27
HETATM   27  O   UNK N   1      31.967  19.333  -4.237  0.00  0.00    -0.399 OA
HETATM   28  H   UNK N   1      31.610  18.438  -4.347  0.00  0.00     0.209 HD
ENDBRANCH  26  27
ENDBRANCH  19  26
ENDBRANCH   2  16
BRANCH   5  29
HETATM   29  O   UNK N   1      25.953  27.324  -5.526  0.00  0.00    -0.344 OA
HETATM   30  H   UNK N   1      25.188  27.556  -6.016  0.00  0.00     0.219 HD
ENDBRANCH   5  29
TORSDOF 6
ENDMDL
MODEL 5
REMARK VINA RESULT:      -6.1      1.419      1.617
REMARK  6 active torsions:
REMARK  status: ('A' for Active; 'I' for Inactive)
REMARK    1  A    between atoms: C_4  and  C_2 
REMARK    2  A    between atoms: O_19  and  C_2 
REMARK    3  A    between atoms: C_6  and  C_3 
REMARK    4  A    between atoms: C_8  and  O_20 
REMARK    5  A    between atoms: C_9  and  O_21 
REMARK    6  A    between atoms: O_22  and  C_10 
REMARK       I    between atoms: N_12  and  C_11 
ROOT
HETATM    1  C   UNK N   1      34.108  14.016   7.896  0.00  0.00     0.100 A 
HETATM    2  C   UNK N   1      33.695  14.730   9.023  0.00  0.00     0.012 A 
HETATM    3  C   UNK N   1      32.814  15.668   8.570  0.00  0.00     0.090 A 
HETATM    4  C   UNK N   1      32.710  15.530   7.234  0.00  0.00     0.112 A 
HETATM    5  C   UNK N   1      31.876  16.379   6.518  0.00  0.00     0.184 A 
HETATM    6  C   UNK N   1      31.292  17.439   8.575  0.00  0.00     0.678 A 
HETATM    7  N   UNK N   1      30.620  18.325   9.204  0.00  0.00    -0.234 N 
ATOM      8  HN  UNK N   1      30.633  18.339  10.223  1.00  0.00     0.174 HD
HETATM    9  N   UNK N   1      33.490  14.524   6.790  0.00  0.00    -0.360 N 
HETATM   10  N   UNK N   1      32.126  16.606   9.264  0.00  0.00    -0.189 N 
HETATM   11  N   UNK N   1      31.174  17.326   7.212  0.00  0.00    -0.169 N 
ATOM     12  HN  UNK N   1      30.552  17.959   6.707  1.00  0.00     0.186 HD
HETATM   13  H   UNK N   1      30.088  18.994   8.714  0.00  0.00     0.174 HD
HETATM   14  H   UNK N   1      33.595  14.219   5.860  0.00  0.00     0.165 HD
HETATM   15  H   UNK N   1      32.225  16.685  10.240  0.00  0.00     0.184 HD
ENDROOT
BRANCH   2  16
HETATM   16  C   UNK N   1      34.113  14.593  10.454  0.00  0.00     0.145 C 
HETATM   17  C   UNK N   1      35.260  15.463  10.948  0.00  0.00     0.175 C 
HETATM   18  C   UNK N   1      35.436  14.822  12.306  0.00  0.00     0.173 C 
HETATM   19  C   UNK N   1      35.393  13.333  11.936  0.00  0.00     0.132 C 
HETATM   20  N   UNK N   1      34.523  13.223  10.760  0.00  0.00    -0.402 N 
HETATM   21  H   UNK N   1      34.259  12.372  10.262  0.00  0.00     0.154 HD
BRANCH  17  22
HETATM   22  O   UNK N   1      34.918  16.814  11.037  0.00  0.00    -0.391 OA
HETATM   23  H   UNK N   1      34.977  17.557  11.658  0.00  0.00     0.210 HD
ENDBRANCH  17  22
BRANCH  18  24
HETATM   24  O   UNK N   1      36.621  15.191  12.945  0.00  0.00    -0.391 OA
HETATM   25  H   UNK N   1      37.409  15.504  12.474  0.00  0.00     0.210 HD
ENDBRANCH  18  24
BRANCH  19  26
HETATM   26  C   UNK N   1      34.835  12.460  13.058  0.00  0.00     0.191 C 
BRANCH  26  27
HETATM   27  O   UNK N   1      34.670  13.193  14.233  0.00  0.00    -0.399 OA
HETATM   28  H   UNK N   1      33.780  13.354  14.583  0.00  0.00     0.209 HD
ENDBRANCH  26  27
ENDBRANCH  19  26
ENDBRANCH   2  16
BRANCH   5  29
HETATM   29  O   UNK N   1      31.757  16.281   5.185  0.00  0.00    -0.344 OA
HETATM   30  H   UNK N   1      30.918  16.372   4.777  0.00  0.00     0.219 HD
ENDBRANCH   5  29
TORSDOF 6
ENDMDL
MODEL 6
REMARK VINA RESULT:      -6.0      2.178      3.397
REMARK  6 active torsions:
REMARK  status: ('A' for Active; 'I' for Inactive)
REMARK    1  A    between atoms: C_4  and  C_2 
REMARK    2  A    between atoms: O_19  and  C_2 
REMARK    3  A    between atoms: C_6  and  C_3 
REMARK    4  A    between atoms: C_8  and  O_20 
REMARK    5  A    between atoms: C_9  and  O_21 
REMARK    6  A    between atoms: O_22  and  C_10 
REMARK       I    between atoms: N_12  and  C_11 
ROOT
HETATM    1  C   UNK N   1      30.665  16.966   8.577  0.00  0.00     0.100 A 
HETATM    2  C   UNK N   1      31.812  16.897   7.784  0.00  0.00     0.012 A 
HETATM    3  C   UNK N   1      31.400  17.137   6.506  0.00  0.00     0.090 A 
HETATM    4  C   UNK N   1      30.066  17.333   6.530  0.00  0.00     0.112 A 
HETATM    5  C   UNK N   1      29.389  17.590   5.345  0.00  0.00     0.184 A 
HETATM    6  C   UNK N   1      31.476  17.452   4.194  0.00  0.00     0.678 A 
HETATM    7  N   UNK N   1      32.136  17.519   3.102  0.00  0.00    -0.234 N 
ATOM      8  HN  UNK N   1      33.154  17.475   3.125  1.00  0.00     0.174 HD
HETATM    9  N   UNK N   1      29.586  17.236   7.785  0.00  0.00    -0.360 N 
HETATM   10  N   UNK N   1      32.126  17.187   5.365  0.00  0.00    -0.189 N 
HETATM   11  N   UNK N   1      30.116  17.646   4.187  0.00  0.00    -0.169 N 
ATOM     12  HN  UNK N   1      29.640  17.837   3.305  1.00  0.00     0.186 HD
HETATM   13  H   UNK N   1      31.672  17.614   2.239  0.00  0.00     0.174 HD
HETATM   14  H   UNK N   1      28.650  17.338   8.073  0.00  0.00     0.165 HD
HETATM   15  H   UNK N   1      33.099  17.037   5.379  0.00  0.00     0.184 HD
ENDROOT
BRANCH   2  16
HETATM   16  C   UNK N   1      33.225  16.584   8.165  0.00  0.00     0.145 C 
HETATM   17  C   UNK N   1      33.754  15.189   7.863  0.00  0.00     0.175 C 
HETATM   18  C   UNK N   1      35.068  15.301   8.603  0.00  0.00     0.173 C 
HETATM   19  C   UNK N   1      34.610  15.937   9.923  0.00  0.00     0.132 C 
HETATM   20  N   UNK N   1      33.443  16.765   9.601  0.00  0.00    -0.402 N 
HETATM   21  H   UNK N   1      32.899  17.345  10.240  0.00  0.00     0.154 HD
BRANCH  17  22
HETATM   22  O   UNK N   1      33.929  14.958   6.497  0.00  0.00    -0.391 OA
HETATM   23  H   UNK N   1      33.424  14.975   5.669  0.00  0.00     0.210 HD
ENDBRANCH  17  22
BRANCH  18  24
HETATM   24  O   UNK N   1      35.710  14.074   8.782  0.00  0.00    -0.391 OA
HETATM   25  H   UNK N   1      36.655  13.989   8.986  0.00  0.00     0.210 HD
ENDBRANCH  18  24
BRANCH  19  26
HETATM   26  C   UNK N   1      35.685  16.812  10.562  0.00  0.00     0.191 C 
BRANCH  26  27
HETATM   27  O   UNK N   1      36.812  16.063  10.898  0.00  0.00    -0.399 OA
HETATM   28  H   UNK N   1      36.897  15.147  10.587  0.00  0.00     0.209 HD
ENDBRANCH  26  27
ENDBRANCH  19  26
ENDBRANCH   2  16
BRANCH   5  29
HETATM   29  O   UNK N   1      28.060  17.776   5.326  0.00  0.00    -0.344 OA
HETATM   30  H   UNK N   1      27.641  18.260   6.010  0.00  0.00     0.219 HD
ENDBRANCH   5  29
TORSDOF 6
ENDMDL
MODEL 7
REMARK VINA RESULT:      -5.8      5.948      8.715
REMARK  6 active torsions:
REMARK  status: ('A' for Active; 'I' for Inactive)
REMARK    1  A    between atoms: C_4  and  C_2 
REMARK    2  A    between atoms: O_19  and  C_2 
REMARK    3  A    between atoms: C_6  and  C_3 
REMARK    4  A    between atoms: C_8  and  O_20 
REMARK    5  A    between atoms: C_9  and  O_21 
REMARK    6  A    between atoms: O_22  and  C_10 
REMARK       I    between atoms: N_12  and  C_11 
ROOT
HETATM    1  C   UNK N   1      36.855  14.608  15.617  0.00  0.00     0.100 A 
HETATM    2  C   UNK N   1      35.967  13.537  15.736  0.00  0.00     0.012 A 
HETATM    3  C   UNK N   1      35.674  13.150  14.461  0.00  0.00     0.090 A 
HETATM    4  C   UNK N   1      36.348  13.957  13.617  0.00  0.00     0.112 A 
HETATM    5  C   UNK N   1      36.216  13.780  12.246  0.00  0.00     0.184 A 
HETATM    6  C   UNK N   1      34.737  11.959  12.684  0.00  0.00     0.678 A 
HETATM    7  N   UNK N   1      33.992  11.018  12.248  0.00  0.00    -0.234 N 
ATOM      8  HN  UNK N   1      33.579  10.355  12.904  1.00  0.00     0.174 HD
HETATM    9  N   UNK N   1      37.083  14.860  14.296  0.00  0.00    -0.360 N 
HETATM   10  N   UNK N   1      34.866  12.153  14.030  0.00  0.00    -0.189 N 
HETATM   11  N   UNK N   1      35.405  12.772  11.802  0.00  0.00    -0.169 N 
ATOM     12  HN  UNK N   1      35.295  12.621  10.798  1.00  0.00     0.186 HD
HETATM   13  H   UNK N   1      33.812  10.924  11.284  0.00  0.00     0.174 HD
HETATM   14  H   UNK N   1      37.664  15.559  13.917  0.00  0.00     0.165 HD
HETATM   15  H   UNK N   1      34.384  11.582  14.670  0.00  0.00     0.184 HD
ENDROOT
BRANCH   2  16
HETATM   16  C   UNK N   1      35.373  12.912  16.959  0.00  0.00     0.145 C 
HETATM   17  C   UNK N   1      35.681  13.549  18.307  0.00  0.00     0.175 C 
HETATM   18  C   UNK N   1      35.076  12.477  19.186  0.00  0.00     0.173 C 
HETATM   19  C   UNK N   1      35.631  11.208  18.526  0.00  0.00     0.132 C 
HETATM   20  N   UNK N   1      35.790  11.517  17.100  0.00  0.00    -0.402 N 
HETATM   21  H   UNK N   1      36.119  10.892  16.364  0.00  0.00     0.154 HD
BRANCH  17  22
HETATM   22  O   UNK N   1      35.061  14.789  18.476  0.00  0.00    -0.391 OA
HETATM   23  H   UNK N   1      35.176  15.719  18.223  0.00  0.00     0.210 HD
ENDBRANCH  17  22
BRANCH  18  24
HETATM   24  O   UNK N   1      35.434  12.594  20.530  0.00  0.00    -0.391 OA
HETATM   25  H   UNK N   1      35.782  11.859  21.057  0.00  0.00     0.210 HD
ENDBRANCH  18  24
BRANCH  19  26
HETATM   26  C   UNK N   1      34.702  10.006  18.679  0.00  0.00     0.191 C 
BRANCH  26  27
HETATM   27  O   UNK N   1      34.288   9.854  20.001  0.00  0.00    -0.399 OA
HETATM   28  H   UNK N   1      34.742  10.334  20.711  0.00  0.00     0.209 HD
ENDBRANCH  26  27
ENDBRANCH  19  26
ENDBRANCH   2  16
BRANCH   5  29
HETATM   29  O   UNK N   1      36.860  14.572  11.374  0.00  0.00    -0.344 OA
HETATM   30  H   UNK N   1      37.715  14.341  11.067  0.00  0.00     0.219 HD
ENDBRANCH   5  29
TORSDOF 6
ENDMDL
MODEL 8
REMARK VINA RESULT:      -5.7      3.045      6.740
REMARK  6 active torsions:
REMARK  status: ('A' for Active; 'I' for Inactive)
REMARK    1  A    between atoms: C_4  and  C_2 
REMARK    2  A    between atoms: O_19  and  C_2 
REMARK    3  A    between atoms: C_6  and  C_3 
REMARK    4  A    between atoms: C_8  and  O_20 
REMARK    5  A    between atoms: C_9  and  O_21 
REMARK    6  A    between atoms: O_22  and  C_10 
REMARK       I    between atoms: N_12  and  C_11 
ROOT
HETATM    1  C   UNK N   1      35.996  15.780  12.144  0.00  0.00     0.100 A 
HETATM    2  C   UNK N   1      35.193  15.084  11.239  0.00  0.00     0.012 A 
HETATM    3  C   UNK N   1      35.079  13.818  11.735  0.00  0.00     0.090 A 
HETATM    4  C   UNK N   1      35.788  13.755  12.879  0.00  0.00     0.112 A 
HETATM    5  C   UNK N   1      35.846  12.561  13.586  0.00  0.00     0.184 A 
HETATM    6  C   UNK N   1      34.438  11.581  11.926  0.00  0.00     0.678 A 
HETATM    7  N   UNK N   1      33.797  10.567  11.486  0.00  0.00    -0.234 N 
ATOM      8  HN  UNK N   1      33.183  10.669  10.680  1.00  0.00     0.174 HD
HETATM    9  N   UNK N   1      36.361  14.942  13.158  0.00  0.00    -0.360 N 
HETATM   10  N   UNK N   1      34.401  12.758  11.235  0.00  0.00    -0.189 N 
HETATM   11  N   UNK N   1      35.161  11.486  13.090  0.00  0.00    -0.169 N 
ATOM     12  HN  UNK N   1      35.185  10.599  13.595  1.00  0.00     0.186 HD
HETATM   13  H   UNK N   1      33.890   9.687  11.920  0.00  0.00     0.174 HD
HETATM   14  H   UNK N   1      36.928  15.161  13.934  0.00  0.00     0.165 HD
HETATM   15  H   UNK N   1      33.894  12.834  10.395  0.00  0.00     0.184 HD
ENDROOT
BRANCH   2  16
HETATM   16  C   UNK N   1      34.583  15.538   9.950  0.00  0.00     0.145 C 
HETATM   17  C   UNK N   1      35.296  15.174   8.656  0.00  0.00     0.175 C 
HETATM   18  C   UNK N   1      34.456  16.009   7.715  0.00  0.00     0.173 C 
HETATM   19  C   UNK N   1      34.385  17.336   8.482  0.00  0.00     0.132 C 
HETATM   20  N   UNK N   1      34.449  16.995   9.908  0.00  0.00    -0.402 N 
HETATM   21  H   UNK N   1      34.408  17.635  10.701  0.00  0.00     0.154 HD
BRANCH  17  22
HETATM   22  O   UNK N   1      35.228  13.810   8.363  0.00  0.00    -0.391 OA
HETATM   23  H   UNK N   1      35.545  12.959   8.704  0.00  0.00     0.210 HD
ENDBRANCH  17  22
BRANCH  18  24
HETATM   24  O   UNK N   1      35.016  16.144   6.443  0.00  0.00    -0.391 OA
HETATM   25  H   UNK N   1      34.532  16.494   5.679  0.00  0.00     0.210 HD
ENDBRANCH  18  24
BRANCH  19  26
HETATM   26  C   UNK N   1      33.098  18.110   8.209  0.00  0.00     0.191 C 
BRANCH  26  27
HETATM   27  O   UNK N   1      32.303  17.452   7.271  0.00  0.00    -0.399 OA
HETATM   28  H   UNK N   1      31.545  16.923   7.563  0.00  0.00     0.209 HD
ENDBRANCH  26  27
ENDBRANCH  19  26
ENDBRANCH   2  16
BRANCH   5  29
HETATM   29  O   UNK N   1      36.553  12.455  14.722  0.00  0.00    -0.344 OA
HETATM   30  H   UNK N   1      36.114  12.372  15.546  0.00  0.00     0.219 HD
ENDBRANCH   5  29
TORSDOF 6
ENDMDL
MODEL 9
REMARK VINA RESULT:      -5.7      8.548     13.101
REMARK  6 active torsions:
REMARK  status: ('A' for Active; 'I' for Inactive)
REMARK    1  A    between atoms: C_4  and  C_2 
REMARK    2  A    between atoms: O_19  and  C_2 
REMARK    3  A    between atoms: C_6  and  C_3 
REMARK    4  A    between atoms: C_8  and  O_20 
REMARK    5  A    between atoms: C_9  and  O_21 
REMARK    6  A    between atoms: O_22  and  C_10 
REMARK       I    between atoms: N_12  and  C_11 
ROOT
HETATM    1  C   UNK N   1      23.076  16.746   5.091  0.00  0.00     0.100 A 
HETATM    2  C   UNK N   1      22.986  17.667   4.046  0.00  0.00     0.012 A 
HETATM    3  C   UNK N   1      24.152  18.375   4.068  0.00  0.00     0.090 A 
HETATM    4  C   UNK N   1      24.902  17.907   5.085  0.00  0.00     0.112 A 
HETATM    5  C   UNK N   1      26.147  18.469   5.335  0.00  0.00     0.184 A 
HETATM    6  C   UNK N   1      25.790  19.933   3.484  0.00  0.00     0.678 A 
HETATM    7  N   UNK N   1      26.210  20.873   2.728  0.00  0.00    -0.234 N 
ATOM      8  HN  UNK N   1      25.673  21.135   1.902  1.00  0.00     0.174 HD
HETATM    9  N   UNK N   1      24.270  16.906   5.731  0.00  0.00    -0.360 N 
HETATM   10  N   UNK N   1      24.562  19.379   3.258  0.00  0.00    -0.189 N 
HETATM   11  N   UNK N   1      26.572  19.481   4.519  0.00  0.00    -0.169 N 
ATOM     12  HN  UNK N   1      27.485  19.908   4.682  1.00  0.00     0.186 HD
HETATM   13  H   UNK N   1      27.049  21.347   2.935  0.00  0.00     0.174 HD
HETATM   14  H   UNK N   1      24.601  16.397   6.506  0.00  0.00     0.165 HD
HETATM   15  H   UNK N   1      23.991  19.702   2.525  0.00  0.00     0.184 HD
ENDROOT
BRANCH   2  16
HETATM   16  C   UNK N   1      21.867  17.923   3.085  0.00  0.00     0.145 C 
HETATM   17  C   UNK N   1      20.642  18.667   3.598  0.00  0.00     0.175 C 
HETATM   18  C   UNK N   1      19.762  18.480   2.383  0.00  0.00     0.173 C 
HETATM   19  C   UNK N   1      19.981  16.990   2.087  0.00  0.00     0.132 C 
HETATM   20  N   UNK N   1      21.343  16.675   2.531  0.00  0.00    -0.402 N 
HETATM   21  H   UNK N   1      21.824  15.777   2.467  0.00  0.00     0.154 HD
BRANCH  17  22
HETATM   22  O   UNK N   1      20.897  20.013   3.869  0.00  0.00    -0.391 OA
HETATM   23  H   UNK N   1      21.554  20.570   4.315  0.00  0.00     0.210 HD
ENDBRANCH  17  22
BRANCH  18  24
HETATM   24  O   UNK N   1      18.422  18.799   2.613  0.00  0.00    -0.391 OA
HETATM   25  H   UNK N   1      17.695  18.167   2.505  0.00  0.00     0.210 HD
ENDBRANCH  18  24
BRANCH  19  26
HETATM   26  C   UNK N   1      19.846  16.654   0.604  0.00  0.00     0.191 C 
BRANCH  26  27
HETATM   27  O   UNK N   1      18.533  16.824   0.165  0.00  0.00    -0.399 OA
HETATM   28  H   UNK N   1      18.053  16.080  -0.231  0.00  0.00     0.209 HD
ENDBRANCH  26  27
ENDBRANCH  19  26
ENDBRANCH   2  16
BRANCH   5  29
HETATM   29  O   UNK N   1      26.917  18.040   6.347  0.00  0.00    -0.344 OA
HETATM   30  H   UNK N   1      27.583  18.595   6.703  0.00  0.00     0.219 HD
ENDBRANCH   5  29
TORSDOF 6
ENDMDL
