MODEL 1
REMARK VINA RESULT:      -6.1      0.000      0.000
REMARK  3 active torsions:
REMARK  status: ('A' for Active; 'I' for Inactive)
REMARK    1  A    between atoms: C_7  and  C_4 
REMARK    2  A    between atoms: C_8  and  C_4 
REMARK    3  A    between atoms: O_18  and  C_10 
ROOT
HETATM    1  C   UNK N   1      32.452  16.726   5.726  0.00  0.00     0.022 C 
HETATM    2  C   UNK N   1      33.616  17.595   6.237  0.00  0.00     0.035 C 
HETATM    3  C   UNK N   1      32.111  15.781   6.885  0.00  0.00     0.127 C 
HETATM    4  C   UNK N   1      34.351  16.036   9.990  0.00  0.00     0.181 C 
HETATM    5  C   UNK N   1      33.372  17.617   7.727  0.00  0.00     0.161 C 
HETATM    6  C   UNK N   1      34.531  18.031   8.588  0.00  0.00     0.135 C 
HETATM    7  C   UNK N   1      33.330  15.515   8.994  0.00  0.00     0.243 C 
HETATM    8  N   UNK N   1      34.920  17.316   9.590  0.00  0.00    -0.359 N 
ATOM      9  HN  UNK N   1      35.691  17.680  10.150  1.00  0.00     0.162 HD
HETATM   10  N   UNK N   1      32.907  16.289   7.964  0.00  0.00    -0.338 N 
HETATM   11  O   UNK N   1      32.876  14.386   9.123  0.00  0.00    -0.271 OA
ENDROOT
BRANCH   4  12
HETATM   12  C   UNK N   1      35.522  15.061  10.186  0.00  0.00     0.093 C 
BRANCH  12  13
HETATM   13  C   UNK N   1      35.655  14.552  11.596  0.00  0.00     0.028 A 
HETATM   14  C   UNK N   1      35.048  13.445  12.137  0.00  0.00     0.114 A 
HETATM   15  N   UNK N   1      35.437  13.348  13.421  0.00  0.00    -0.360 N 
HETATM   16  C   UNK N   1      36.272  14.386  13.635  0.00  0.00     0.180 A 
ATOM     17  HN  UNK N   1      35.159  12.634  14.095  1.00  0.00     0.166 HD
HETATM   18  N   UNK N   1      36.424  15.140  12.527  0.00  0.00    -0.354 N 
HETATM   19  H   UNK N   1      36.980  15.946  12.423  0.00  0.00     0.166 HD
ENDBRANCH  12  13
ENDBRANCH   4  12
BRANCH   6  20
HETATM   20  O   UNK N   1      35.131  19.213   8.350  0.00  0.00    -0.348 OA
HETATM   21  H   UNK N   1      35.025  19.935   8.938  0.00  0.00     0.219 HD
ENDBRANCH   6  20
TORSDOF 3
ENDMDL
MODEL 2
REMARK VINA RESULT:      -5.8      3.743      5.103
REMARK  3 active torsions:
REMARK  status: ('A' for Active; 'I' for Inactive)
REMARK    1  A    between atoms: C_7  and  C_4 
REMARK    2  A    between atoms: C_8  and  C_4 
REMARK    3  A    between atoms: O_18  and  C_10 
ROOT
HETATM    1  C   UNK N   1      27.726  19.278   4.964  0.00  0.00     0.022 C 
HETATM    2  C   UNK N   1      27.586  19.401   6.492  0.00  0.00     0.035 C 
HETATM    3  C   UNK N   1      28.892  18.309   4.738  0.00  0.00     0.127 C 
HETATM    4  C   UNK N   1      30.700  17.078   7.891  0.00  0.00     0.181 C 
HETATM    5  C   UNK N   1      28.100  18.065   6.971  0.00  0.00     0.161 C 
HETATM    6  C   UNK N   1      28.490  17.978   8.418  0.00  0.00     0.135 C 
HETATM    7  C   UNK N   1      30.393  17.370   6.432  0.00  0.00     0.243 C 
HETATM    8  N   UNK N   1      29.638  17.517   8.786  0.00  0.00    -0.359 N 
ATOM      9  HN  UNK N   1      29.817  17.456   9.789  1.00  0.00     0.162 HD
HETATM   10  N   UNK N   1      29.170  17.823   6.058  0.00  0.00    -0.338 N 
HETATM   11  O   UNK N   1      31.253  17.188   5.581  0.00  0.00    -0.271 OA
ENDROOT
BRANCH   4  12
HETATM   12  C   UNK N   1      31.997  17.757   8.358  0.00  0.00     0.093 C 
BRANCH  12  13
HETATM   13  C   UNK N   1      33.021  16.795   8.899  0.00  0.00     0.028 A 
HETATM   14  C   UNK N   1      33.041  15.431   8.740  0.00  0.00     0.114 A 
HETATM   15  N   UNK N   1      34.127  14.957   9.378  0.00  0.00    -0.360 N 
HETATM   16  C   UNK N   1      34.746  16.034   9.904  0.00  0.00     0.180 A 
ATOM     17  HN  UNK N   1      34.421  13.983   9.448  1.00  0.00     0.166 HD
HETATM   18  N   UNK N   1      34.088  17.176   9.620  0.00  0.00    -0.354 N 
HETATM   19  H   UNK N   1      34.335  18.091   9.885  0.00  0.00     0.166 HD
ENDBRANCH  12  13
ENDBRANCH   4  12
BRANCH   6  20
HETATM   20  O   UNK N   1      27.587  18.322   9.358  0.00  0.00    -0.348 OA
HETATM   21  H   UNK N   1      26.835  18.836   9.140  0.00  0.00     0.219 HD
ENDBRANCH   6  20
TORSDOF 3
ENDMDL
MODEL 3
REMARK VINA RESULT:      -5.8     15.202     18.024
REMARK  3 active torsions:
REMARK  status: ('A' for Active; 'I' for Inactive)
REMARK    1  A    between atoms: C_7  and  C_4 
REMARK    2  A    between atoms: C_8  and  C_4 
REMARK    3  A    between atoms: O_18  and  C_10 
ROOT
HETATM    1  C   UNK N   1      30.906  20.521  -5.160  0.00  0.00     0.022 C 
HETATM    2  C   UNK N   1      30.630  20.959  -3.710  0.00  0.00     0.035 C 
HETATM    3  C   UNK N   1      30.257  21.595  -6.040  0.00  0.00     0.127 C 
HETATM    4  C   UNK N   1      28.331  24.354  -4.196  0.00  0.00     0.181 C 
HETATM    5  C   UNK N   1      30.536  22.460  -3.839  0.00  0.00     0.161 C 
HETATM    6  C   UNK N   1      29.877  23.189  -2.704  0.00  0.00     0.135 C 
HETATM    7  C   UNK N   1      28.845  23.460  -5.312  0.00  0.00     0.243 C 
HETATM    8  N   UNK N   1      28.921  24.033  -2.904  0.00  0.00    -0.359 N 
ATOM      9  HN  UNK N   1      28.547  24.516  -2.087  1.00  0.00     0.162 HD
HETATM   10  N   UNK N   1      29.872  22.601  -5.095  0.00  0.00    -0.338 N 
HETATM   11  O   UNK N   1      28.334  23.518  -6.422  0.00  0.00    -0.271 OA
ENDROOT
BRANCH   4  12
HETATM   12  C   UNK N   1      26.806  24.263  -4.034  0.00  0.00     0.093 C 
BRANCH  12  13
HETATM   13  C   UNK N   1      26.075  25.499  -4.485  0.00  0.00     0.028 A 
HETATM   14  C   UNK N   1      26.139  26.750  -3.922  0.00  0.00     0.114 A 
HETATM   15  N   UNK N   1      25.337  27.564  -4.632  0.00  0.00    -0.360 N 
HETATM   16  C   UNK N   1      24.808  26.800  -5.611  0.00  0.00     0.180 A 
ATOM     17  HN  UNK N   1      25.164  28.555  -4.465  1.00  0.00     0.166 HD
HETATM   18  N   UNK N   1      25.249  25.527  -5.544  0.00  0.00    -0.354 N 
HETATM   19  H   UNK N   1      25.016  24.781  -6.142  0.00  0.00     0.166 HD
ENDBRANCH  12  13
ENDBRANCH   4  12
BRANCH   6  20
HETATM   20  O   UNK N   1      30.347  23.011  -1.454  0.00  0.00    -0.348 OA
HETATM   21  H   UNK N   1      30.104  23.590  -0.760  0.00  0.00     0.219 HD
ENDBRANCH   6  20
TORSDOF 3
ENDMDL
MODEL 4
REMARK VINA RESULT:      -5.7      3.135      6.957
REMARK  3 active torsions:
REMARK  status: ('A' for Active; 'I' for Inactive)
REMARK    1  A    between atoms: C_7  and  C_4 
REMARK    2  A    between atoms: C_8  and  C_4 
REMARK    3  A    between atoms: O_18  and  C_10 
ROOT
HETATM    1  C   UNK N   1      34.686  11.994  16.578  0.00  0.00     0.022 C 
HETATM    2  C   UNK N   1      35.521  13.280  16.713  0.00  0.00     0.035 C 
HETATM    3  C   UNK N   1      34.557  11.749  15.070  0.00  0.00     0.127 C 
HETATM    4  C   UNK N   1      36.104  14.416  12.786  0.00  0.00     0.181 C 
HETATM    5  C   UNK N   1      36.363  13.250  15.460  0.00  0.00     0.161 C 
HETATM    6  C   UNK N   1      37.004  14.546  15.055  0.00  0.00     0.135 C 
HETATM    7  C   UNK N   1      35.282  13.229  13.256  0.00  0.00     0.243 C 
HETATM    8  N   UNK N   1      36.884  15.017  13.859  0.00  0.00    -0.359 N 
ATOM      9  HN  UNK N   1      37.377  15.885  13.648  1.00  0.00     0.162 HD
HETATM   10  N   UNK N   1      35.443  12.724  14.505  0.00  0.00    -0.338 N 
HETATM   11  O   UNK N   1      34.469  12.714  12.500  0.00  0.00    -0.271 OA
ENDROOT
BRANCH   4  12
HETATM   12  C   UNK N   1      35.229  15.526  12.184  0.00  0.00     0.093 C 
BRANCH  12  13
HETATM   13  C   UNK N   1      34.633  15.169  10.849  0.00  0.00     0.028 A 
HETATM   14  C   UNK N   1      35.303  15.000   9.661  0.00  0.00     0.114 A 
HETATM   15  N   UNK N   1      34.397  14.683   8.718  0.00  0.00    -0.360 N 
HETATM   16  C   UNK N   1      33.203  14.660   9.345  0.00  0.00     0.180 A 
ATOM     17  HN  UNK N   1      34.578  14.498   7.731  1.00  0.00     0.166 HD
HETATM   18  N   UNK N   1      33.322  14.952  10.657  0.00  0.00    -0.354 N 
HETATM   19  H   UNK N   1      32.603  14.996  11.327  0.00  0.00     0.166 HD
ENDBRANCH  12  13
ENDBRANCH   4  12
BRANCH   6  20
HETATM   20  O   UNK N   1      37.784  15.194  15.942  0.00  0.00    -0.348 OA
HETATM   21  H   UNK N   1      37.409  15.705  16.631  0.00  0.00     0.219 HD
ENDBRANCH   6  20
TORSDOF 3
ENDMDL
MODEL 5
REMARK VINA RESULT:      -5.4      4.460      5.939
REMARK  3 active torsions:
REMARK  status: ('A' for Active; 'I' for Inactive)
REMARK    1  A    between atoms: C_7  and  C_4 
REMARK    2  A    between atoms: C_8  and  C_4 
REMARK    3  A    between atoms: O_18  and  C_10 
ROOT
HETATM    1  C   UNK N   1      38.265  11.971  10.156  0.00  0.00     0.022 C 
HETATM    2  C   UNK N   1      38.154  13.502  10.275  0.00  0.00     0.035 C 
HETATM    3  C   UNK N   1      37.528  11.413  11.379  0.00  0.00     0.127 C 
HETATM    4  C   UNK N   1      36.172  14.005  13.862  0.00  0.00     0.181 C 
HETATM    5  C   UNK N   1      36.861  13.673  11.035  0.00  0.00     0.161 C 
HETATM    6  C   UNK N   1      36.638  15.009  11.683  0.00  0.00     0.135 C 
HETATM    7  C   UNK N   1      36.610  12.679  13.266  0.00  0.00     0.243 C 
HETATM    8  N   UNK N   1      36.315  15.114  12.929  0.00  0.00    -0.359 N 
ATOM      9  HN  UNK N   1      36.145  16.053  13.289  1.00  0.00     0.162 HD
HETATM   10  N   UNK N   1      36.915  12.578  11.948  0.00  0.00    -0.338 N 
HETATM   11  O   UNK N   1      36.682  11.686  13.977  0.00  0.00    -0.271 OA
ENDROOT
BRANCH   4  12
HETATM   12  C   UNK N   1      36.973  14.368  15.123  0.00  0.00     0.093 C 
BRANCH  12  13
HETATM   13  C   UNK N   1      36.238  14.089  16.406  0.00  0.00     0.028 A 
HETATM   14  C   UNK N   1      36.166  14.901  17.512  0.00  0.00     0.114 A 
HETATM   15  N   UNK N   1      35.409  14.277  18.433  0.00  0.00    -0.360 N 
HETATM   16  C   UNK N   1      35.031  13.109  17.872  0.00  0.00     0.180 A 
ATOM     17  HN  UNK N   1      35.168  14.618  19.364  1.00  0.00     0.166 HD
HETATM   18  N   UNK N   1      35.525  12.972  16.625  0.00  0.00    -0.354 N 
HETATM   19  H   UNK N   1      35.392  12.216  16.008  0.00  0.00     0.166 HD
ENDBRANCH  12  13
ENDBRANCH   4  12
BRANCH   6  20
HETATM   20  O   UNK N   1      36.707  16.121  10.925  0.00  0.00    -0.348 OA
HETATM   21  H   UNK N   1      36.154  16.857  11.097  0.00  0.00     0.219 HD
ENDBRANCH   6  20
TORSDOF 3
ENDMDL
MODEL 6
REMARK VINA RESULT:      -5.3      3.388      6.099
REMARK  3 active torsions:
REMARK  status: ('A' for Active; 'I' for Inactive)
REMARK    1  A    between atoms: C_7  and  C_4 
REMARK    2  A    between atoms: C_8  and  C_4 
REMARK    3  A    between atoms: O_18  and  C_10 
ROOT
HETATM    1  C   UNK N   1      34.789  14.316   6.391  0.00  0.00     0.022 C 
HETATM    2  C   UNK N   1      34.803  14.811   7.848  0.00  0.00     0.035 C 
HETATM    3  C   UNK N   1      33.678  15.116   5.700  0.00  0.00     0.127 C 
HETATM    4  C   UNK N   1      31.668  17.498   7.938  0.00  0.00     0.181 C 
HETATM    5  C   UNK N   1      34.298  16.227   7.713  0.00  0.00     0.161 C 
HETATM    6  C   UNK N   1      33.798  16.882   8.968  0.00  0.00     0.135 C 
HETATM    7  C   UNK N   1      32.080  16.651   6.747  0.00  0.00     0.243 C 
HETATM    8  N   UNK N   1      32.640  17.451   9.022  0.00  0.00    -0.359 N 
ATOM      9  HN  UNK N   1      32.385  17.905   9.899  1.00  0.00     0.162 HD
HETATM   10  N   UNK N   1      33.313  16.086   6.690  0.00  0.00    -0.338 N 
HETATM   11  O   UNK N   1      31.297  16.479   5.822  0.00  0.00    -0.271 OA
ENDROOT
BRANCH   4  12
HETATM   12  C   UNK N   1      30.316  17.060   8.522  0.00  0.00     0.093 C 
BRANCH  12  13
HETATM   13  C   UNK N   1      29.173  17.960   8.137  0.00  0.00     0.028 A 
HETATM   14  C   UNK N   1      28.249  18.532   8.979  0.00  0.00     0.114 A 
HETATM   15  N   UNK N   1      27.405  19.264   8.229  0.00  0.00    -0.360 N 
HETATM   16  C   UNK N   1      27.830  19.129   6.955  0.00  0.00     0.180 A 
ATOM     17  HN  UNK N   1      26.608  19.809   8.556  1.00  0.00     0.166 HD
HETATM   18  N   UNK N   1      28.918  18.336   6.873  0.00  0.00    -0.354 N 
HETATM   19  H   UNK N   1      29.416  18.086   6.062  0.00  0.00     0.166 HD
ENDBRANCH  12  13
ENDBRANCH   4  12
BRANCH   6  20
HETATM   20  O   UNK N   1      34.610  16.940  10.042  0.00  0.00    -0.348 OA
HETATM   21  H   UNK N   1      35.353  16.375  10.115  0.00  0.00     0.219 HD
ENDBRANCH   6  20
TORSDOF 3
ENDMDL
MODEL 7
REMARK VINA RESULT:      -5.3      1.544      1.718
REMARK  3 active torsions:
REMARK  status: ('A' for Active; 'I' for Inactive)
REMARK    1  A    between atoms: C_7  and  C_4 
REMARK    2  A    between atoms: C_8  and  C_4 
REMARK    3  A    between atoms: O_18  and  C_10 
ROOT
HETATM    1  C   UNK N   1      33.880  14.718   6.434  0.00  0.00     0.022 C 
HETATM    2  C   UNK N   1      34.470  16.044   6.947  0.00  0.00     0.035 C 
HETATM    3  C   UNK N   1      33.658  13.861   7.686  0.00  0.00     0.127 C 
HETATM    4  C   UNK N   1      34.823  15.386  11.008  0.00  0.00     0.181 C 
HETATM    5  C   UNK N   1      33.888  16.140   8.337  0.00  0.00     0.161 C 
HETATM    6  C   UNK N   1      34.562  17.094   9.280  0.00  0.00     0.135 C 
HETATM    7  C   UNK N   1      34.345  14.374   9.981  0.00  0.00     0.243 C 
HETATM    8  N   UNK N   1      34.941  16.729  10.459  0.00  0.00    -0.359 N 
ATOM      9  HN  UNK N   1      35.360  17.443  11.055  1.00  0.00     0.162 HD
HETATM   10  N   UNK N   1      33.919  14.776   8.757  0.00  0.00    -0.338 N 
HETATM   11  O   UNK N   1      34.337  13.182  10.258  0.00  0.00    -0.271 OA
ENDROOT
BRANCH   4  12
HETATM   12  C   UNK N   1      36.193  15.014  11.596  0.00  0.00     0.093 C 
BRANCH  12  13
HETATM   13  C   UNK N   1      36.123  14.484  13.003  0.00  0.00     0.028 A 
HETATM   14  C   UNK N   1      35.349  13.445  13.459  0.00  0.00     0.114 A 
HETATM   15  N   UNK N   1      35.590  13.298  14.775  0.00  0.00    -0.360 N 
HETATM   16  C   UNK N   1      36.502  14.240  15.092  0.00  0.00     0.180 A 
ATOM     17  HN  UNK N   1      35.168  12.614  15.404  1.00  0.00     0.166 HD
HETATM   18  N   UNK N   1      36.849  14.980  14.019  0.00  0.00    -0.354 N 
HETATM   19  H   UNK N   1      37.494  15.722  13.987  0.00  0.00     0.166 HD
ENDBRANCH  12  13
ENDBRANCH   4  12
BRANCH   6  20
HETATM   20  O   UNK N   1      34.707  18.382   8.911  0.00  0.00    -0.348 OA
HETATM   21  H   UNK N   1      34.048  18.817   8.408  0.00  0.00     0.219 HD
ENDBRANCH   6  20
TORSDOF 3
ENDMDL
MODEL 8
REMARK VINA RESULT:      -5.3     18.266     20.263
REMARK  3 active torsions:
REMARK  status: ('A' for Active; 'I' for Inactive)
REMARK    1  A    between atoms: C_7  and  C_4 
REMARK    2  A    between atoms: C_8  and  C_4 
REMARK    3  A    between atoms: O_18  and  C_10 
ROOT
HETATM    1  C   UNK N   1      28.881  21.820  -7.062  0.00  0.00     0.022 C 
HETATM    2  C   UNK N   1      27.675  22.235  -7.923  0.00  0.00     0.035 C 
HETATM    3  C   UNK N   1      28.865  22.766  -5.855  0.00  0.00     0.127 C 
HETATM    4  C   UNK N   1      26.156  25.483  -5.875  0.00  0.00     0.181 C 
HETATM    5  C   UNK N   1      26.723  22.797  -6.895  0.00  0.00     0.161 C 
HETATM    6  C   UNK N   1      25.613  23.664  -7.415  0.00  0.00     0.135 C 
HETATM    7  C   UNK N   1      27.404  24.702  -5.504  0.00  0.00     0.243 C 
HETATM    8  N   UNK N   1      25.381  24.836  -6.925  0.00  0.00    -0.359 N 
ATOM      9  HN  UNK N   1      24.587  25.352  -7.306  1.00  0.00     0.162 HD
HETATM   10  N   UNK N   1      27.618  23.458  -6.002  0.00  0.00    -0.338 N 
HETATM   11  O   UNK N   1      28.226  25.193  -4.742  0.00  0.00    -0.271 OA
ENDROOT
BRANCH   4  12
HETATM   12  C   UNK N   1      26.483  26.903  -6.363  0.00  0.00     0.093 C 
BRANCH  12  13
HETATM   13  C   UNK N   1      26.370  27.952  -5.289  0.00  0.00     0.028 A 
HETATM   14  C   UNK N   1      25.595  27.897  -4.156  0.00  0.00     0.114 A 
HETATM   15  N   UNK N   1      25.790  29.036  -3.467  0.00  0.00    -0.360 N 
HETATM   16  C   UNK N   1      26.678  29.755  -4.185  0.00  0.00     0.180 A 
ATOM     17  HN  UNK N   1      25.356  29.300  -2.583  1.00  0.00     0.166 HD
HETATM   18  N   UNK N   1      27.052  29.109  -5.308  0.00  0.00    -0.354 N 
HETATM   19  H   UNK N   1      27.688  29.418  -5.993  0.00  0.00     0.166 HD
ENDBRANCH  12  13
ENDBRANCH   4  12
BRANCH   6  20
HETATM   20  O   UNK N   1      24.794  23.175  -8.367  0.00  0.00    -0.348 OA
HETATM   21  H   UNK N   1      24.434  22.314  -8.298  0.00  0.00     0.219 HD
ENDBRANCH   6  20
TORSDOF 3
ENDMDL
MODEL 9
REMARK VINA RESULT:      -5.2     11.974     13.956
REMARK  3 active torsions:
REMARK  status: ('A' for Active; 'I' for Inactive)
REMARK    1  A    between atoms: C_7  and  C_4 
REMARK    2  A    between atoms: C_8  and  C_4 
REMARK    3  A    between atoms: O_18  and  C_10 
ROOT
HETATM    1  C   UNK N   1      39.856  20.479   0.498  0.00  0.00     0.022 C 
HETATM    2  C   UNK N   1      40.235  21.947   0.232  0.00  0.00     0.035 C 
HETATM    3  C   UNK N   1      40.683  20.061   1.720  0.00  0.00     0.127 C 
HETATM    4  C   UNK N   1      43.130  22.683   3.083  0.00  0.00     0.181 C 
HETATM    5  C   UNK N   1      40.611  22.438   1.608  0.00  0.00     0.161 C 
HETATM    6  C   UNK N   1      41.416  23.704   1.671  0.00  0.00     0.135 C 
HETATM    7  C   UNK N   1      42.437  21.353   2.841  0.00  0.00     0.243 C 
HETATM    8  N   UNK N   1      42.512  23.778   2.349  0.00  0.00    -0.359 N 
ATOM      9  HN  UNK N   1      42.985  24.682   2.372  1.00  0.00     0.162 HD
HETATM   10  N   UNK N   1      41.268  21.295   2.154  0.00  0.00    -0.338 N 
HETATM   11  O   UNK N   1      42.930  20.321   3.276  0.00  0.00    -0.271 OA
ENDROOT
BRANCH   4  12
HETATM   12  C   UNK N   1      44.613  22.646   2.680  0.00  0.00     0.093 C 
BRANCH  12  13
HETATM   13  C   UNK N   1      45.117  23.946   2.115  0.00  0.00     0.028 A 
HETATM   14  C   UNK N   1      45.402  24.223   0.800  0.00  0.00     0.114 A 
HETATM   15  N   UNK N   1      45.822  25.500   0.729  0.00  0.00    -0.360 N 
HETATM   16  C   UNK N   1      45.781  25.974   1.991  0.00  0.00     0.180 A 
ATOM     17  HN  UNK N   1      46.111  26.005  -0.109  1.00  0.00     0.166 HD
HETATM   18  N   UNK N   1      45.347  25.039   2.861  0.00  0.00    -0.354 N 
HETATM   19  H   UNK N   1      45.226  25.137   3.833  0.00  0.00     0.166 HD
ENDBRANCH  12  13
ENDBRANCH   4  12
BRANCH   6  20
HETATM   20  O   UNK N   1      40.943  24.809   1.062  0.00  0.00    -0.348 OA
HETATM   21  H   UNK N   1      41.231  25.048   0.203  0.00  0.00     0.219 HD
ENDBRANCH   6  20
TORSDOF 3
ENDMDL
