MODEL 1
REMARK VINA RESULT:      -5.3      0.000      0.000
REMARK  6 active torsions:
REMARK  status: ('A' for Active; 'I' for Inactive)
REMARK    1  A    between atoms: C_2  and  C_1 
REMARK    2  A    between atoms: O_10  and  C_1 
REMARK    3  A    between atoms: C_4  and  O_12 
REMARK    4  A    between atoms: C_5  and  O_13 
REMARK    5  A    between atoms: N_9  and  C_6 
REMARK    6  A    between atoms: O_14  and  N_9 
ROOT
HETATM    1  C   UNK N   1      32.747  16.929   8.023  0.00  0.00     0.137 C 
HETATM    2  C   UNK N   1      32.665  15.393   7.859  0.00  0.00     0.174 C 
HETATM    3  C   UNK N   1      32.562  14.787   9.252  0.00  0.00     0.185 C 
HETATM    4  C   UNK N   1      33.844  15.098  10.038  0.00  0.00     0.218 C 
HETATM    5  C   UNK N   1      34.263  16.549   9.901  0.00  0.00     0.129 C 
HETATM    6  N   UNK N   1      33.740  17.333   9.008  0.00  0.00    -0.367 N 
ATOM      7  HN  UNK N   1      34.049  18.304   8.995  1.00  0.00     0.161 HD
HETATM    8  O   UNK N   1      33.800  14.897   7.206  0.00  0.00    -0.391 OA
HETATM    9  H   UNK N   1      34.594  14.568   6.757  0.00  0.00     0.210 HD
ENDROOT
BRANCH   1  10
HETATM   10  C   UNK N   1      33.067  17.607   6.691  0.00  0.00     0.191 C 
BRANCH  10  11
HETATM   11  O   UNK N   1      34.441  17.822   6.562  0.00  0.00    -0.399 OA
HETATM   12  H   UNK N   1      35.078  17.097   6.659  0.00  0.00     0.209 HD
ENDBRANCH  10  11
ENDBRANCH   1  10
BRANCH   3  13
HETATM   13  O   UNK N   1      32.367  13.405   9.181  0.00  0.00    -0.390 OA
HETATM   14  H   UNK N   1      32.190  12.950   8.343  0.00  0.00     0.210 HD
ENDBRANCH   3  13
BRANCH   4  15
HETATM   15  O   UNK N   1      33.638  14.784  11.383  0.00  0.00    -0.385 OA
HETATM   16  H   UNK N   1      34.185  14.220  11.953  0.00  0.00     0.210 HD
ENDBRANCH   4  15
BRANCH   5  17
HETATM   17  N   UNK N   1      35.292  17.042  10.742  0.00  0.00    -0.255 N 
HETATM   18  H   UNK N   1      35.162  17.892  11.221  0.00  0.00     0.195 HD
BRANCH  17  19
HETATM   19  O   UNK N   1      36.439  16.367  10.892  0.00  0.00    -0.288 OA
HETATM   20  H   UNK N   1      36.832  16.264  11.773  0.00  0.00     0.244 HD
ENDBRANCH  17  19
ENDBRANCH   5  17
TORSDOF 6
ENDMDL
MODEL 2
REMARK VINA RESULT:      -5.3     14.016     15.364
REMARK  6 active torsions:
REMARK  status: ('A' for Active; 'I' for Inactive)
REMARK    1  A    between atoms: C_2  and  C_1 
REMARK    2  A    between atoms: O_10  and  C_1 
REMARK    3  A    between atoms: C_4  and  O_12 
REMARK    4  A    between atoms: C_5  and  O_13 
REMARK    5  A    between atoms: N_9  and  C_6 
REMARK    6  A    between atoms: O_14  and  N_9 
ROOT
HETATM    1  C   UNK N   1      21.363  17.840   3.844  0.00  0.00     0.137 C 
HETATM    2  C   UNK N   1      20.348  16.730   3.485  0.00  0.00     0.174 C 
HETATM    3  C   UNK N   1      20.395  16.533   1.975  0.00  0.00     0.185 C 
HETATM    4  C   UNK N   1      19.932  17.822   1.280  0.00  0.00     0.218 C 
HETATM    5  C   UNK N   1      20.576  19.059   1.877  0.00  0.00     0.129 C 
HETATM    6  N   UNK N   1      21.217  19.022   3.005  0.00  0.00    -0.367 N 
ATOM      7  HN  UNK N   1      21.650  19.887   3.330  1.00  0.00     0.161 HD
HETATM    8  O   UNK N   1      19.053  17.090   3.879  0.00  0.00    -0.391 OA
HETATM    9  H   UNK N   1      18.160  17.354   4.153  0.00  0.00     0.210 HD
ENDROOT
BRANCH   1  10
HETATM   10  C   UNK N   1      21.231  18.254   5.308  0.00  0.00     0.191 C 
BRANCH  10  11
HETATM   11  O   UNK N   1      20.922  17.152   6.110  0.00  0.00    -0.399 OA
HETATM   12  H   UNK N   1      21.618  16.603   6.505  0.00  0.00     0.209 HD
ENDBRANCH  10  11
ENDBRANCH   1  10
BRANCH   3  13
HETATM   13  O   UNK N   1      19.586  15.462   1.587  0.00  0.00    -0.390 OA
HETATM   14  H   UNK N   1      19.925  14.557   1.516  0.00  0.00     0.210 HD
ENDBRANCH   3  13
BRANCH   4  15
HETATM   15  O   UNK N   1      20.234  17.735  -0.081  0.00  0.00    -0.385 OA
HETATM   16  H   UNK N   1      20.905  18.232  -0.574  0.00  0.00     0.210 HD
ENDBRANCH   4  15
BRANCH   5  17
HETATM   17  N   UNK N   1      20.425  20.297   1.203  0.00  0.00    -0.255 N 
HETATM   18  H   UNK N   1      20.137  21.092   1.707  0.00  0.00     0.195 HD
BRANCH  17  19
HETATM   19  O   UNK N   1      20.670  20.399  -0.109  0.00  0.00    -0.288 OA
HETATM   20  H   UNK N   1      20.157  19.873  -0.743  0.00  0.00     0.244 HD
ENDBRANCH  17  19
ENDBRANCH   5  17
TORSDOF 6
ENDMDL
MODEL 3
REMARK VINA RESULT:      -5.1      2.671      4.329
REMARK  6 active torsions:
REMARK  status: ('A' for Active; 'I' for Inactive)
REMARK    1  A    between atoms: C_2  and  C_1 
REMARK    2  A    between atoms: O_10  and  C_1 
REMARK    3  A    between atoms: C_4  and  O_12 
REMARK    4  A    between atoms: C_5  and  O_13 
REMARK    5  A    between atoms: N_9  and  C_6 
REMARK    6  A    between atoms: O_14  and  N_9 
ROOT
HETATM    1  C   UNK N   1      36.735  13.666   9.862  0.00  0.00     0.137 C 
HETATM    2  C   UNK N   1      36.369  13.269  11.311  0.00  0.00     0.174 C 
HETATM    3  C   UNK N   1      34.863  13.441  11.469  0.00  0.00     0.185 C 
HETATM    4  C   UNK N   1      34.500  14.923  11.292  0.00  0.00     0.218 C 
HETATM    5  C   UNK N   1      35.185  15.542  10.089  0.00  0.00     0.129 C 
HETATM    6  N   UNK N   1      36.159  14.946   9.472  0.00  0.00    -0.367 N 
ATOM      7  HN  UNK N   1      36.551  15.409   8.652  1.00  0.00     0.161 HD
HETATM    8  O   UNK N   1      37.041  14.076  12.237  0.00  0.00    -0.391 OA
HETATM    9  H   UNK N   1      37.509  14.647  12.867  0.00  0.00     0.210 HD
ENDROOT
BRANCH   1  10
HETATM   10  C   UNK N   1      38.250  13.729   9.676  0.00  0.00     0.191 C 
BRANCH  10  11
HETATM   11  O   UNK N   1      38.737  14.999   9.995  0.00  0.00    -0.399 OA
HETATM   12  H   UNK N   1      39.324  15.482   9.392  0.00  0.00     0.209 HD
ENDBRANCH  10  11
ENDBRANCH   1  10
BRANCH   3  13
HETATM   13  O   UNK N   1      34.439  12.990  12.721  0.00  0.00    -0.390 OA
HETATM   14  H   UNK N   1      34.108  13.594  13.403  0.00  0.00     0.210 HD
ENDBRANCH   3  13
BRANCH   4  15
HETATM   15  O   UNK N   1      33.114  15.037  11.164  0.00  0.00    -0.385 OA
HETATM   16  H   UNK N   1      32.602  15.822  10.915  0.00  0.00     0.210 HD
ENDBRANCH   4  15
BRANCH   5  17
HETATM   17  N   UNK N   1      34.779  16.832   9.663  0.00  0.00    -0.255 N 
HETATM   18  H   UNK N   1      35.448  17.548   9.579  0.00  0.00     0.195 HD
BRANCH  17  19
HETATM   19  O   UNK N   1      33.497  17.088   9.375  0.00  0.00    -0.288 OA
HETATM   20  H   UNK N   1      32.951  17.602   9.991  0.00  0.00     0.244 HD
ENDBRANCH  17  19
ENDBRANCH   5  17
TORSDOF 6
ENDMDL
MODEL 4
REMARK VINA RESULT:      -5.0     14.131     15.296
REMARK  6 active torsions:
REMARK  status: ('A' for Active; 'I' for Inactive)
REMARK    1  A    between atoms: C_2  and  C_1 
REMARK    2  A    between atoms: O_10  and  C_1 
REMARK    3  A    between atoms: C_4  and  O_12 
REMARK    4  A    between atoms: C_5  and  O_13 
REMARK    5  A    between atoms: N_9  and  C_6 
REMARK    6  A    between atoms: O_14  and  N_9 
ROOT
HETATM    1  C   UNK N   1      19.968  17.404   2.385  0.00  0.00     0.137 C 
HETATM    2  C   UNK N   1      20.824  17.660   3.647  0.00  0.00     0.174 C 
HETATM    3  C   UNK N   1      20.607  19.109   4.063  0.00  0.00     0.185 C 
HETATM    4  C   UNK N   1      21.128  20.039   2.958  0.00  0.00     0.218 C 
HETATM    5  C   UNK N   1      20.678  19.599   1.578  0.00  0.00     0.129 C 
HETATM    6  N   UNK N   1      20.151  18.431   1.369  0.00  0.00    -0.367 N 
ATOM      7  HN  UNK N   1      19.844  18.216   0.420  1.00  0.00     0.161 HD
HETATM    8  O   UNK N   1      22.181  17.436   3.386  0.00  0.00    -0.391 OA
HETATM    9  H   UNK N   1      23.118  17.283   3.190  0.00  0.00     0.210 HD
ENDROOT
BRANCH   1  10
HETATM   10  C   UNK N   1      20.286  16.041   1.773  0.00  0.00     0.191 C 
BRANCH  10  11
HETATM   11  O   UNK N   1      20.632  16.170   0.425  0.00  0.00    -0.399 OA
HETATM   12  H   UNK N   1      21.377  15.677   0.045  0.00  0.00     0.209 HD
ENDBRANCH  10  11
ENDBRANCH   1  10
BRANCH   3  13
HETATM   13  O   UNK N   1      21.260  19.384   5.268  0.00  0.00    -0.390 OA
HETATM   14  H   UNK N   1      20.977  20.100   5.858  0.00  0.00     0.210 HD
ENDBRANCH   3  13
BRANCH   4  15
HETATM   15  O   UNK N   1      20.687  21.339   3.214  0.00  0.00    -0.385 OA
HETATM   16  H   UNK N   1      20.811  21.861   4.022  0.00  0.00     0.210 HD
ENDBRANCH   4  15
BRANCH   5  17
HETATM   17  N   UNK N   1      20.887  20.474   0.483  0.00  0.00    -0.255 N 
HETATM   18  H   UNK N   1      21.466  20.190  -0.261  0.00  0.00     0.195 HD
BRANCH  17  19
HETATM   19  O   UNK N   1      20.309  21.681   0.447  0.00  0.00    -0.288 OA
HETATM   20  H   UNK N   1      19.721  21.960   1.166  0.00  0.00     0.244 HD
ENDBRANCH  17  19
ENDBRANCH   5  17
TORSDOF 6
ENDMDL
MODEL 5
REMARK VINA RESULT:      -5.0      1.949      3.148
REMARK  6 active torsions:
REMARK  status: ('A' for Active; 'I' for Inactive)
REMARK    1  A    between atoms: C_2  and  C_1 
REMARK    2  A    between atoms: O_10  and  C_1 
REMARK    3  A    between atoms: C_4  and  O_12 
REMARK    4  A    between atoms: C_5  and  O_13 
REMARK    5  A    between atoms: N_9  and  C_6 
REMARK    6  A    between atoms: O_14  and  N_9 
ROOT
HETATM    1  C   UNK N   1      34.518  15.927   7.712  0.00  0.00     0.137 C 
HETATM    2  C   UNK N   1      34.537  16.895   8.918  0.00  0.00     0.174 C 
HETATM    3  C   UNK N   1      34.790  16.066  10.170  0.00  0.00     0.185 C 
HETATM    4  C   UNK N   1      33.621  15.093  10.380  0.00  0.00     0.218 C 
HETATM    5  C   UNK N   1      33.229  14.382   9.099  0.00  0.00     0.129 C 
HETATM    6  N   UNK N   1      33.662  14.771   7.938  0.00  0.00    -0.367 N 
ATOM      7  HN  UNK N   1      33.380  14.226   7.124  1.00  0.00     0.161 HD
HETATM    8  O   UNK N   1      33.319  17.575   9.034  0.00  0.00    -0.391 OA
HETATM    9  H   UNK N   1      32.467  18.035   9.105  0.00  0.00     0.210 HD
ENDROOT
BRANCH   1  10
HETATM   10  C   UNK N   1      34.059  16.641   6.442  0.00  0.00     0.191 C 
BRANCH  10  11
HETATM   11  O   UNK N   1      34.410  17.993   6.477  0.00  0.00    -0.399 OA
HETATM   12  H   UNK N   1      33.760  18.689   6.288  0.00  0.00     0.209 HD
ENDBRANCH  10  11
ENDBRANCH   1  10
BRANCH   3  13
HETATM   13  O   UNK N   1      34.937  16.888  11.290  0.00  0.00    -0.390 OA
HETATM   14  H   UNK N   1      35.801  17.222  11.577  0.00  0.00     0.210 HD
ENDBRANCH   3  13
BRANCH   4  15
HETATM   15  O   UNK N   1      33.978  14.159  11.355  0.00  0.00    -0.385 OA
HETATM   16  H   UNK N   1      33.613  13.270  11.490  0.00  0.00     0.210 HD
ENDBRANCH   4  15
BRANCH   5  17
HETATM   17  N   UNK N   1      32.322  13.295   9.174  0.00  0.00    -0.255 N 
HETATM   18  H   UNK N   1      31.364  13.450   9.012  0.00  0.00     0.195 HD
BRANCH  17  19
HETATM   19  O   UNK N   1      32.753  12.061   9.462  0.00  0.00    -0.288 OA
HETATM   20  H   UNK N   1      32.848  11.781  10.386  0.00  0.00     0.244 HD
ENDBRANCH  17  19
ENDBRANCH   5  17
TORSDOF 6
ENDMDL
MODEL 6
REMARK VINA RESULT:      -5.0      1.685      3.646
REMARK  6 active torsions:
REMARK  status: ('A' for Active; 'I' for Inactive)
REMARK    1  A    between atoms: C_2  and  C_1 
REMARK    2  A    between atoms: O_10  and  C_1 
REMARK    3  A    between atoms: C_4  and  O_12 
REMARK    4  A    between atoms: C_5  and  O_13 
REMARK    5  A    between atoms: N_9  and  C_6 
REMARK    6  A    between atoms: O_14  and  N_9 
ROOT
HETATM    1  C   UNK N   1      34.817  16.018   9.774  0.00  0.00     0.137 C 
HETATM    2  C   UNK N   1      34.019  14.729  10.074  0.00  0.00     0.174 C 
HETATM    3  C   UNK N   1      33.090  14.477   8.892  0.00  0.00     0.185 C 
HETATM    4  C   UNK N   1      32.080  15.629   8.786  0.00  0.00     0.218 C 
HETATM    5  C   UNK N   1      32.742  16.987   8.920  0.00  0.00     0.129 C 
HETATM    6  N   UNK N   1      33.963  17.116   9.344  0.00  0.00    -0.367 N 
ATOM      7  HN  UNK N   1      34.352  18.058   9.379  1.00  0.00     0.161 HD
HETATM    8  O   UNK N   1      33.269  14.864  11.249  0.00  0.00    -0.391 OA
HETATM    9  H   UNK N   1      32.752  14.975  12.062  0.00  0.00     0.210 HD
ENDROOT
BRANCH   1  10
HETATM   10  C   UNK N   1      35.618  16.465  10.996  0.00  0.00     0.191 C 
BRANCH  10  11
HETATM   11  O   UNK N   1      36.958  16.092  10.875  0.00  0.00    -0.399 OA
HETATM   12  H   UNK N   1      37.395  15.546  11.549  0.00  0.00     0.209 HD
ENDBRANCH  10  11
ENDBRANCH   1  10
BRANCH   3  13
HETATM   13  O   UNK N   1      32.417  13.262   9.038  0.00  0.00    -0.390 OA
HETATM   14  H   UNK N   1      31.453  13.192   8.960  0.00  0.00     0.210 HD
ENDBRANCH   3  13
BRANCH   4  15
HETATM   15  O   UNK N   1      31.418  15.539   7.560  0.00  0.00    -0.385 OA
HETATM   16  H   UNK N   1      30.803  16.179   7.167  0.00  0.00     0.210 HD
ENDBRANCH   4  15
BRANCH   5  17
HETATM   17  N   UNK N   1      31.984  18.147   8.621  0.00  0.00    -0.255 N 
HETATM   18  H   UNK N   1      32.427  18.924   8.212  0.00  0.00     0.195 HD
BRANCH  17  19
HETATM   19  O   UNK N   1      30.673  18.197   8.888  0.00  0.00    -0.288 OA
HETATM   20  H   UNK N   1      30.060  18.595   8.249  0.00  0.00     0.244 HD
ENDBRANCH  17  19
ENDBRANCH   5  17
TORSDOF 6
ENDMDL
MODEL 7
REMARK VINA RESULT:      -4.9     12.272     13.376
REMARK  6 active torsions:
REMARK  status: ('A' for Active; 'I' for Inactive)
REMARK    1  A    between atoms: C_2  and  C_1 
REMARK    2  A    between atoms: O_10  and  C_1 
REMARK    3  A    between atoms: C_4  and  O_12 
REMARK    4  A    between atoms: C_5  and  O_13 
REMARK    5  A    between atoms: N_9  and  C_6 
REMARK    6  A    between atoms: O_14  and  N_9 
ROOT
HETATM    1  C   UNK N   1      43.060  20.171   3.156  0.00  0.00     0.137 C 
HETATM    2  C   UNK N   1      44.536  20.619   3.266  0.00  0.00     0.174 C 
HETATM    3  C   UNK N   1      44.561  21.939   4.026  0.00  0.00     0.185 C 
HETATM    4  C   UNK N   1      43.816  23.007   3.213  0.00  0.00     0.218 C 
HETATM    5  C   UNK N   1      42.493  22.498   2.674  0.00  0.00     0.129 C 
HETATM    6  N   UNK N   1      42.188  21.236   2.683  0.00  0.00    -0.367 N 
ATOM      7  HN  UNK N   1      41.268  20.971   2.332  1.00  0.00     0.161 HD
HETATM    8  O   UNK N   1      45.105  20.787   1.998  0.00  0.00    -0.391 OA
HETATM    9  H   UNK N   1      45.483  20.905   1.112  0.00  0.00     0.210 HD
ENDROOT
BRANCH   1  10
HETATM   10  C   UNK N   1      42.919  18.967   2.226  0.00  0.00     0.191 C 
BRANCH  10  11
HETATM   11  O   UNK N   1      42.809  19.378   0.895  0.00  0.00    -0.399 OA
HETATM   12  H   UNK N   1      43.421  19.056   0.214  0.00  0.00     0.209 HD
ENDBRANCH  10  11
ENDBRANCH   1  10
BRANCH   3  13
HETATM   13  O   UNK N   1      45.875  22.350   4.267  0.00  0.00    -0.390 OA
HETATM   14  H   UNK N   1      46.640  21.867   3.919  0.00  0.00     0.210 HD
ENDBRANCH   3  13
BRANCH   4  15
HETATM   15  O   UNK N   1      43.605  24.126   4.021  0.00  0.00    -0.385 OA
HETATM   16  H   UNK N   1      43.221  24.152   4.912  0.00  0.00     0.210 HD
ENDBRANCH   4  15
BRANCH   5  17
HETATM   17  N   UNK N   1      41.590  23.427   2.098  0.00  0.00    -0.255 N 
HETATM   18  H   UNK N   1      40.623  23.321   2.247  0.00  0.00     0.195 HD
BRANCH  17  19
HETATM   19  O   UNK N   1      42.036  24.447   1.353  0.00  0.00    -0.288 OA
HETATM   20  H   UNK N   1      41.735  25.351   1.535  0.00  0.00     0.244 HD
ENDBRANCH  17  19
ENDBRANCH   5  17
TORSDOF 6
ENDMDL
MODEL 8
REMARK VINA RESULT:      -4.9      2.942      4.350
REMARK  6 active torsions:
REMARK  status: ('A' for Active; 'I' for Inactive)
REMARK    1  A    between atoms: C_2  and  C_1 
REMARK    2  A    between atoms: O_10  and  C_1 
REMARK    3  A    between atoms: C_4  and  O_12 
REMARK    4  A    between atoms: C_5  and  O_13 
REMARK    5  A    between atoms: N_9  and  C_6 
REMARK    6  A    between atoms: O_14  and  N_9 
ROOT
HETATM    1  C   UNK N   1      34.623  13.646   9.371  0.00  0.00     0.137 C 
HETATM    2  C   UNK N   1      35.110  15.083   9.670  0.00  0.00     0.174 C 
HETATM    3  C   UNK N   1      36.287  14.980  10.632  0.00  0.00     0.185 C 
HETATM    4  C   UNK N   1      35.809  14.371  11.958  0.00  0.00     0.218 C 
HETATM    5  C   UNK N   1      34.928  13.154  11.746  0.00  0.00     0.129 C 
HETATM    6  N   UNK N   1      34.437  12.857  10.581  0.00  0.00    -0.367 N 
ATOM      7  HN  UNK N   1      33.879  12.006  10.509  1.00  0.00     0.161 HD
HETATM    8  O   UNK N   1      34.089  15.848  10.247  0.00  0.00    -0.391 OA
HETATM    9  H   UNK N   1      33.373  16.364  10.651  0.00  0.00     0.210 HD
ENDROOT
BRANCH   1  10
HETATM   10  C   UNK N   1      33.313  13.662   8.586  0.00  0.00     0.191 C 
BRANCH  10  11
HETATM   11  O   UNK N   1      32.217  13.547   9.445  0.00  0.00    -0.399 OA
HETATM   12  H   UNK N   1      32.238  12.956  10.215  0.00  0.00     0.209 HD
ENDBRANCH  10  11
ENDBRANCH   1  10
BRANCH   3  13
HETATM   13  O   UNK N   1      36.856  16.235  10.858  0.00  0.00    -0.390 OA
HETATM   14  H   UNK N   1      36.822  16.945  10.199  0.00  0.00     0.210 HD
ENDBRANCH   3  13
BRANCH   4  15
HETATM   15  O   UNK N   1      36.923  14.028  12.726  0.00  0.00    -0.385 OA
HETATM   16  H   UNK N   1      36.935  13.642  13.617  0.00  0.00     0.210 HD
ENDBRANCH   4  15
BRANCH   5  17
HETATM   17  N   UNK N   1      34.594  12.353  12.867  0.00  0.00    -0.255 N 
HETATM   18  H   UNK N   1      34.423  11.392  12.742  0.00  0.00     0.195 HD
BRANCH  17  19
HETATM   19  O   UNK N   1      34.507  12.887  14.091  0.00  0.00    -0.288 OA
HETATM   20  H   UNK N   1      33.654  13.204  14.425  0.00  0.00     0.244 HD
ENDBRANCH  17  19
ENDBRANCH   5  17
TORSDOF 6
ENDMDL
MODEL 9
REMARK VINA RESULT:      -4.7      2.565      5.073
REMARK  6 active torsions:
REMARK  status: ('A' for Active; 'I' for Inactive)
REMARK    1  A    between atoms: C_2  and  C_1 
REMARK    2  A    between atoms: O_10  and  C_1 
REMARK    3  A    between atoms: C_4  and  O_12 
REMARK    4  A    between atoms: C_5  and  O_13 
REMARK    5  A    between atoms: N_9  and  C_6 
REMARK    6  A    between atoms: O_14  and  N_9 
ROOT
HETATM    1  C   UNK N   1      35.395  14.759  12.214  0.00  0.00     0.137 C 
HETATM    2  C   UNK N   1      36.044  15.912  11.414  0.00  0.00     0.174 C 
HETATM    3  C   UNK N   1      34.958  16.540  10.549  0.00  0.00     0.185 C 
HETATM    4  C   UNK N   1      34.454  15.503   9.535  0.00  0.00     0.218 C 
HETATM    5  C   UNK N   1      34.189  14.155  10.176  0.00  0.00     0.129 C 
HETATM    6  N   UNK N   1      34.607  13.870  11.372  0.00  0.00    -0.367 N 
ATOM      7  HN  UNK N   1      34.366  12.953  11.749  1.00  0.00     0.161 HD
HETATM    8  O   UNK N   1      37.084  15.438  10.604  0.00  0.00    -0.391 OA
HETATM    9  H   UNK N   1      37.798  15.094  10.045  0.00  0.00     0.210 HD
ENDROOT
BRANCH   1  10
HETATM   10  C   UNK N   1      36.453  13.936  12.947  0.00  0.00     0.191 C 
BRANCH  10  11
HETATM   11  O   UNK N   1      36.929  14.623  14.066  0.00  0.00    -0.399 OA
HETATM   12  H   UNK N   1      36.324  14.985  14.733  0.00  0.00     0.209 HD
ENDBRANCH  10  11
ENDBRANCH   1  10
BRANCH   3  13
HETATM   13  O   UNK N   1      35.443  17.667   9.881  0.00  0.00    -0.390 OA
HETATM   14  H   UNK N   1      36.326  18.030  10.053  0.00  0.00     0.210 HD
ENDBRANCH   3  13
BRANCH   4  15
HETATM   15  O   UNK N   1      33.288  15.985   8.936  0.00  0.00    -0.385 OA
HETATM   16  H   UNK N   1      32.374  15.881   9.246  0.00  0.00     0.210 HD
ENDBRANCH   4  15
BRANCH   5  17
HETATM   17  N   UNK N   1      33.511  13.164   9.422  0.00  0.00    -0.255 N 
HETATM   18  H   UNK N   1      34.007  12.379   9.095  0.00  0.00     0.195 HD
BRANCH  17  19
HETATM   19  O   UNK N   1      32.206  13.282   9.149  0.00  0.00    -0.288 OA
HETATM   20  H   UNK N   1      31.854  12.965   8.303  0.00  0.00     0.244 HD
ENDBRANCH  17  19
ENDBRANCH   5  17
TORSDOF 6
ENDMDL
