REMARK  0 active torsions:
REMARK  status: ('A' for Active; 'I' for Inactive)
ROOT
HETATM    1  O   UNK N   1      -1.332  -0.815  -0.000  0.00  0.00    -0.264 OA
HETATM    2  C   UNK N   1      -0.114  -0.801  -0.000  0.00  0.00     0.297 A 
HETATM    3  N   UNK N   1       0.626   0.333  -0.000  0.00  0.00    -0.319 N 
HETATM    4  C   UNK N   1       1.984  -0.066   0.000  0.00  0.00     0.049 A 
HETATM    5  C   UNK N   1       3.107   0.757  -0.000  0.00  0.00     0.030 A 
HETATM    6  C   UNK N   1       4.373   0.140  -0.000  0.00  0.00     0.002 A 
HETATM    7  C   UNK N   1       4.487  -1.270   0.000  0.00  0.00     0.001 A 
HETATM    8  C   UNK N   1       3.338  -2.077   0.000  0.00  0.00     0.018 A 
HETATM    9  C   UNK N   1       2.103  -1.441   0.000  0.00  0.00     0.046 A 
HETATM   10  C   UNK N   1       0.759  -1.972   0.000  0.00  0.00     0.251 A 
HETATM   11  O   UNK N   1       0.431  -3.148  -0.000  0.00  0.00    -0.281 OA
HETATM   12  H   UNK N   1       0.286   1.257  -0.000  0.00  0.00     0.169 HD
ENDROOT
TORSDOF 0
