MODEL 1
REMARK VINA RESULT:      -7.7      0.000      0.000
REMARK  13 active torsions:
REMARK  status: ('A' for Active; 'I' for Inactive)
REMARK    1  A    between atoms: C_6  and  N_2 
REMARK       I    between atoms: C_11  and  N_16 
REMARK    2  A    between atoms: C_17  and  C_19 
REMARK    3  A    between atoms: C_18  and  O_20 
REMARK    4  A    between atoms: C_19  and  O_21 
REMARK    5  A    between atoms: O_21  and  P_22 
REMARK    6  A    between atoms: P_22  and  O_23 
REMARK    7  A    between atoms: P_22  and  O_24 
REMARK    8  A    between atoms: O_23  and  P_26 
REMARK    9  A    between atoms: P_26  and  O_27 
REMARK   10  A    between atoms: P_26  and  O_28 
REMARK   11  A    between atoms: O_27  and  P_30 
REMARK   12  A    between atoms: P_30  and  O_31 
REMARK   13  A    between atoms: P_30  and  O_32 
ROOT
HETATM    1  C   UNK N   1      31.641  16.259   5.847  0.00  0.00     0.233 C 
HETATM    2  O   UNK N   1      31.480  16.232   7.244  0.00  0.00    -0.356 OA
HETATM    3  C   UNK N   1      32.951  16.945   5.499  0.00  0.00     0.088 C 
HETATM    4  C   UNK N   1      32.604  16.868   7.805  0.00  0.00     0.177 C 
HETATM    5  C   UNK N   1      33.699  16.896   6.776  0.00  0.00     0.153 C 
ENDROOT
BRANCH   4   6
HETATM    6  C   UNK N   1      33.074  16.069   9.010  0.00  0.00     0.215 C 
BRANCH   6   7
HETATM    7  O   UNK N   1      34.332  15.520   8.736  0.00  0.00    -0.294 OA
BRANCH   7   8
HETATM    8  P   UNK N   1      35.352  15.890  10.089  0.00  0.00     0.401 P 
HETATM    9  O   UNK N   1      36.726  15.246   9.756  0.00  0.00    -0.631 OA
BRANCH   8  10
HETATM   10  O   UNK N   1      34.690  15.112  11.492  0.00  0.00    -0.195 OA
BRANCH  10  11
HETATM   11  P   UNK N   1      35.861  13.961  12.045  0.00  0.00     0.410 P 
HETATM   12  O   UNK N   1      34.520  13.512  12.690  0.00  0.00    -0.631 OA
BRANCH  11  13
HETATM   13  O   UNK N   1      36.172  14.060  13.752  0.00  0.00    -0.195 OA
BRANCH  13  14
HETATM   14  P   UNK N   1      36.614  12.458  14.252  0.00  0.00     0.399 P 
HETATM   15  O   UNK N   1      37.155  13.343  15.408  0.00  0.00    -0.631 OA
BRANCH  14  16
HETATM   16  O   UNK N   1      37.386  12.863  12.751  0.00  0.00    -0.307 OA
HETATM   17  H   UNK N   1      38.143  12.473  12.286  0.00  0.00     0.222 HD
ENDBRANCH  14  16
BRANCH  14  18
HETATM   18  O   UNK N   1      38.299  12.049  14.308  0.00  0.00    -0.307 OA
HETATM   19  H   UNK N   1      38.815  12.079  15.129  0.00  0.00     0.222 HD
ENDBRANCH  14  18
ENDBRANCH  13  14
ENDBRANCH  11  13
BRANCH  11  20
HETATM   20  O   UNK N   1      36.348  15.580  12.438  0.00  0.00    -0.307 OA
HETATM   21  H   UNK N   1      37.132  16.102  12.203  0.00  0.00     0.222 HD
ENDBRANCH  11  20
ENDBRANCH  10  11
ENDBRANCH   8  10
BRANCH   8  22
HETATM   22  O   UNK N   1      35.609  17.590  10.328  0.00  0.00    -0.307 OA
HETATM   23  H   UNK N   1      35.266  18.334   9.808  0.00  0.00     0.222 HD
ENDBRANCH   8  22
ENDBRANCH   7   8
ENDBRANCH   6   7
ENDBRANCH   4   6
BRANCH   5  24
HETATM   24  O   UNK N   1      34.482  18.042   6.925  0.00  0.00    -0.393 OA
HETATM   25  H   UNK N   1      35.239  18.103   7.529  0.00  0.00     0.210 HD
ENDBRANCH   5  24
BRANCH   1  26
HETATM   26  N   UNK N   1      30.490  16.942   5.271  0.00  0.00    -0.299 N 
HETATM   27  C   UNK N   1      29.476  17.557   5.888  0.00  0.00     0.159 A 
HETATM   28  C   UNK N   1      28.594  17.992   4.972  0.00  0.00     0.147 A 
HETATM   29  N   UNK N   1      29.284  17.717   7.220  0.00  0.00    -0.174 N 
HETATM   30  N   UNK N   1      29.023  17.671   3.736  0.00  0.00    -0.345 N 
HETATM   31  C   UNK N   1      27.440  18.640   5.375  0.00  0.00     0.290 A 
HETATM   32  C   UNK N   1      30.197  17.013   3.948  0.00  0.00     0.188 A 
ATOM     33  HN  UNK N   1      28.572  17.875   2.844  1.00  0.00     0.167 HD
HETATM   34  N   UNK N   1      27.236  18.815   6.728  0.00  0.00    -0.154 N 
HETATM   35  O   UNK N   1      26.621  19.036   4.566  0.00  0.00    -0.265 OA
HETATM   36  C   UNK N   1      28.154  18.355   7.641  0.00  0.00     0.680 A 
HETATM   37  H   UNK N   1      26.424  19.274   7.042  0.00  0.00     0.187 HD
HETATM   38  N   UNK N   1      27.925  18.534   9.019  0.00  0.00    -0.234 N 
HETATM   39  H   UNK N   1      28.481  18.056   9.678  0.00  0.00     0.174 HD
HETATM   40  H   UNK N   1      27.210  19.137   9.325  0.00  0.00     0.174 HD
ATOM     41  HN  UNK N   1      29.969  17.369   7.892  1.00  0.00     0.186 HD
ENDBRANCH   1  26
TORSDOF 13
ENDMDL
MODEL 2
REMARK VINA RESULT:      -7.6      6.005      9.654
REMARK  13 active torsions:
REMARK  status: ('A' for Active; 'I' for Inactive)
REMARK    1  A    between atoms: C_6  and  N_2 
REMARK       I    between atoms: C_11  and  N_16 
REMARK    2  A    between atoms: C_17  and  C_19 
REMARK    3  A    between atoms: C_18  and  O_20 
REMARK    4  A    between atoms: C_19  and  O_21 
REMARK    5  A    between atoms: O_21  and  P_22 
REMARK    6  A    between atoms: P_22  and  O_23 
REMARK    7  A    between atoms: P_22  and  O_24 
REMARK    8  A    between atoms: O_23  and  P_26 
REMARK    9  A    between atoms: P_26  and  O_27 
REMARK   10  A    between atoms: P_26  and  O_28 
REMARK   11  A    between atoms: O_27  and  P_30 
REMARK   12  A    between atoms: P_30  and  O_31 
REMARK   13  A    between atoms: P_30  and  O_32 
ROOT
HETATM    1  C   UNK N   1      35.660  13.752  11.495  0.00  0.00     0.233 C 
HETATM    2  O   UNK N   1      35.306  15.113  11.503  0.00  0.00    -0.356 OA
HETATM    3  C   UNK N   1      34.875  13.028  10.415  0.00  0.00     0.088 C 
HETATM    4  C   UNK N   1      34.335  15.297  10.500  0.00  0.00     0.177 C 
HETATM    5  C   UNK N   1      34.406  14.134   9.550  0.00  0.00     0.153 C 
ENDROOT
BRANCH   4   6
HETATM    6  C   UNK N   1      34.643  16.578   9.743  0.00  0.00     0.215 C 
BRANCH   6   7
HETATM    7  O   UNK N   1      34.376  16.385   8.384  0.00  0.00    -0.294 OA
BRANCH   7   8
HETATM    8  P   UNK N   1      33.927  17.928   7.732  0.00  0.00     0.401 P 
HETATM    9  O   UNK N   1      34.954  18.937   8.316  0.00  0.00    -0.631 OA
BRANCH   8  10
HETATM   10  O   UNK N   1      32.345  18.325   8.326  0.00  0.00    -0.195 OA
BRANCH  10  11
HETATM   11  P   UNK N   1      31.392  16.879   8.263  0.00  0.00     0.410 P 
HETATM   12  O   UNK N   1      31.411  17.412   6.804  0.00  0.00    -0.631 OA
BRANCH  11  13
HETATM   13  O   UNK N   1      29.716  17.173   7.911  0.00  0.00    -0.195 OA
BRANCH  13  14
HETATM   14  P   UNK N   1      29.142  18.233   9.160  0.00  0.00     0.399 P 
HETATM   15  O   UNK N   1      28.268  16.965   9.354  0.00  0.00    -0.631 OA
BRANCH  14  16
HETATM   16  O   UNK N   1      28.876  18.935   7.595  0.00  0.00    -0.307 OA
HETATM   17  H   UNK N   1      28.086  18.984   7.033  0.00  0.00     0.222 HD
ENDBRANCH  14  16
BRANCH  14  18
HETATM   18  O   UNK N   1      27.524  18.847   9.039  0.00  0.00    -0.307 OA
HETATM   19  H   UNK N   1      27.011  19.118   9.817  0.00  0.00     0.222 HD
ENDBRANCH  14  18
ENDBRANCH  13  14
ENDBRANCH  11  13
BRANCH  11  20
HETATM   20  O   UNK N   1      30.755  17.993   9.432  0.00  0.00    -0.307 OA
HETATM   21  H   UNK N   1      29.983  18.581   9.421  0.00  0.00     0.222 HD
ENDBRANCH  11  20
ENDBRANCH  10  11
ENDBRANCH   8  10
BRANCH   8  22
HETATM   22  O   UNK N   1      34.029  18.014   6.000  0.00  0.00    -0.307 OA
HETATM   23  H   UNK N   1      33.324  17.889   5.345  0.00  0.00     0.222 HD
ENDBRANCH   8  22
ENDBRANCH   7   8
ENDBRANCH   6   7
ENDBRANCH   4   6
BRANCH   5  24
HETATM   24  O   UNK N   1      33.142  13.847   9.033  0.00  0.00    -0.393 OA
HETATM   25  H   UNK N   1      32.577  14.502   8.593  0.00  0.00     0.210 HD
ENDBRANCH   5  24
BRANCH   1  26
HETATM   26  N   UNK N   1      35.403  13.208  12.822  0.00  0.00    -0.299 N 
HETATM   27  C   UNK N   1      35.829  13.644  14.012  0.00  0.00     0.159 A 
HETATM   28  C   UNK N   1      35.412  12.801  14.972  0.00  0.00     0.147 A 
HETATM   29  N   UNK N   1      36.596  14.730  14.276  0.00  0.00    -0.174 N 
HETATM   30  N   UNK N   1      34.699  11.799  14.422  0.00  0.00    -0.345 N 
HETATM   31  C   UNK N   1      35.755  13.031  16.292  0.00  0.00     0.290 A 
HETATM   32  C   UNK N   1      34.714  12.068  13.087  0.00  0.00     0.188 A 
ATOM     33  HN  UNK N   1      34.249  11.016  14.898  1.00  0.00     0.167 HD
HETATM   34  N   UNK N   1      36.530  14.137  16.575  0.00  0.00    -0.154 N 
HETATM   35  O   UNK N   1      35.398  12.278  17.180  0.00  0.00    -0.265 OA
HETATM   36  C   UNK N   1      36.946  14.978  15.572  0.00  0.00     0.680 A 
HETATM   37  H   UNK N   1      36.787  14.325  17.507  0.00  0.00     0.187 HD
HETATM   38  N   UNK N   1      37.743  16.097  15.878  0.00  0.00    -0.234 N 
HETATM   39  H   UNK N   1      38.189  16.598  15.156  0.00  0.00     0.174 HD
HETATM   40  H   UNK N   1      37.855  16.380  16.814  0.00  0.00     0.174 HD
ATOM     41  HN  UNK N   1      36.903  15.347  13.524  1.00  0.00     0.186 HD
ENDBRANCH   1  26
TORSDOF 13
ENDMDL
MODEL 3
REMARK VINA RESULT:      -7.6      1.474      2.526
REMARK  13 active torsions:
REMARK  status: ('A' for Active; 'I' for Inactive)
REMARK    1  A    between atoms: C_6  and  N_2 
REMARK       I    between atoms: C_11  and  N_16 
REMARK    2  A    between atoms: C_17  and  C_19 
REMARK    3  A    between atoms: C_18  and  O_20 
REMARK    4  A    between atoms: C_19  and  O_21 
REMARK    5  A    between atoms: O_21  and  P_22 
REMARK    6  A    between atoms: P_22  and  O_23 
REMARK    7  A    between atoms: P_22  and  O_24 
REMARK    8  A    between atoms: O_23  and  P_26 
REMARK    9  A    between atoms: P_26  and  O_27 
REMARK   10  A    between atoms: P_26  and  O_28 
REMARK   11  A    between atoms: O_27  and  P_30 
REMARK   12  A    between atoms: P_30  and  O_31 
REMARK   13  A    between atoms: P_30  and  O_32 
ROOT
HETATM    1  C   UNK N   1      30.768  16.243   5.072  0.00  0.00     0.233 C 
HETATM    2  O   UNK N   1      31.795  16.887   5.787  0.00  0.00    -0.356 OA
HETATM    3  C   UNK N   1      31.307  15.751   3.740  0.00  0.00     0.088 C 
HETATM    4  C   UNK N   1      32.951  16.842   4.985  0.00  0.00     0.177 C 
HETATM    5  C   UNK N   1      32.772  15.768   3.949  0.00  0.00     0.153 C 
ENDROOT
BRANCH   4   6
HETATM    6  C   UNK N   1      34.146  16.498   5.859  0.00  0.00     0.215 C 
BRANCH   6   7
HETATM    7  O   UNK N   1      34.540  17.638   6.569  0.00  0.00    -0.294 OA
BRANCH   7   8
HETATM    8  P   UNK N   1      34.162  17.352   8.237  0.00  0.00     0.401 P 
HETATM    9  O   UNK N   1      35.127  18.267   9.041  0.00  0.00    -0.631 OA
BRANCH   8  10
HETATM   10  O   UNK N   1      34.527  15.693   8.597  0.00  0.00    -0.195 OA
BRANCH  10  11
HETATM   11  P   UNK N   1      35.445  15.673  10.067  0.00  0.00     0.410 P 
HETATM   12  O   UNK N   1      35.649  14.264   9.446  0.00  0.00    -0.631 OA
BRANCH  11  13
HETATM   13  O   UNK N   1      34.798  14.598  11.268  0.00  0.00    -0.195 OA
BRANCH  13  14
HETATM   14  P   UNK N   1      36.166  13.961  12.127  0.00  0.00     0.399 P 
HETATM   15  O   UNK N   1      34.999  13.744  13.127  0.00  0.00    -0.631 OA
BRANCH  14  16
HETATM   16  O   UNK N   1      36.388  15.650  11.792  0.00  0.00    -0.307 OA
HETATM   17  H   UNK N   1      35.784  16.327  11.447  0.00  0.00     0.222 HD
ENDBRANCH  14  16
BRANCH  14  18
HETATM   18  O   UNK N   1      36.705  14.794  13.549  0.00  0.00    -0.307 OA
HETATM   19  H   UNK N   1      37.643  14.963  13.730  0.00  0.00     0.222 HD
ENDBRANCH  14  18
ENDBRANCH  13  14
ENDBRANCH  11  13
BRANCH  11  20
HETATM   20  O   UNK N   1      33.790  16.097  10.374  0.00  0.00    -0.307 OA
HETATM   21  H   UNK N   1      32.986  16.020   9.836  0.00  0.00     0.222 HD
ENDBRANCH  11  20
ENDBRANCH  10  11
ENDBRANCH   8  10
BRANCH   8  22
HETATM   22  O   UNK N   1      32.538  17.786   8.673  0.00  0.00    -0.307 OA
HETATM   23  H   UNK N   1      32.043  17.553   9.474  0.00  0.00     0.222 HD
ENDBRANCH   8  22
ENDBRANCH   7   8
ENDBRANCH   6   7
ENDBRANCH   4   6
BRANCH   5  24
HETATM   24  O   UNK N   1      33.430  16.112   2.768  0.00  0.00    -0.393 OA
HETATM   25  H   UNK N   1      33.727  15.467   2.107  0.00  0.00     0.210 HD
ENDBRANCH   5  24
BRANCH   1  26
HETATM   26  N   UNK N   1      29.669  17.186   4.909  0.00  0.00    -0.299 N 
HETATM   27  C   UNK N   1      29.001  17.877   5.839  0.00  0.00     0.159 A 
HETATM   28  C   UNK N   1      28.016  18.576   5.253  0.00  0.00     0.147 A 
HETATM   29  N   UNK N   1      29.207  17.884   7.178  0.00  0.00    -0.174 N 
HETATM   30  N   UNK N   1      28.026  18.357   3.924  0.00  0.00    -0.345 N 
HETATM   31  C   UNK N   1      27.166  19.352   6.021  0.00  0.00     0.290 A 
HETATM   32  C   UNK N   1      29.055  17.485   3.736  0.00  0.00     0.188 A 
ATOM     33  HN  UNK N   1      27.405  18.755   3.218  1.00  0.00     0.167 HD
HETATM   34  N   UNK N   1      27.369  19.374   7.386  0.00  0.00    -0.154 N 
HETATM   35  O   UNK N   1      26.260  19.989   5.517  0.00  0.00    -0.265 OA
HETATM   36  C   UNK N   1      28.383  18.644   7.957  0.00  0.00     0.680 A 
HETATM   37  H   UNK N   1      26.780  19.919   7.956  0.00  0.00     0.187 HD
HETATM   38  N   UNK N   1      28.570  18.671   9.352  0.00  0.00    -0.234 N 
HETATM   39  H   UNK N   1      29.171  18.020   9.782  0.00  0.00     0.174 HD
HETATM   40  H   UNK N   1      28.099  19.341   9.898  0.00  0.00     0.174 HD
ATOM     41  HN  UNK N   1      29.960  17.336   7.594  1.00  0.00     0.186 HD
ENDBRANCH   1  26
TORSDOF 13
ENDMDL
MODEL 4
REMARK VINA RESULT:      -7.5      9.169     12.962
REMARK  13 active torsions:
REMARK  status: ('A' for Active; 'I' for Inactive)
REMARK    1  A    between atoms: C_6  and  N_2 
REMARK       I    between atoms: C_11  and  N_16 
REMARK    2  A    between atoms: C_17  and  C_19 
REMARK    3  A    between atoms: C_18  and  O_20 
REMARK    4  A    between atoms: C_19  and  O_21 
REMARK    5  A    between atoms: O_21  and  P_22 
REMARK    6  A    between atoms: P_22  and  O_23 
REMARK    7  A    between atoms: P_22  and  O_24 
REMARK    8  A    between atoms: O_23  and  P_26 
REMARK    9  A    between atoms: P_26  and  O_27 
REMARK   10  A    between atoms: P_26  and  O_28 
REMARK   11  A    between atoms: O_27  and  P_30 
REMARK   12  A    between atoms: P_30  and  O_31 
REMARK   13  A    between atoms: P_30  and  O_32 
ROOT
HETATM    1  C   UNK N   1      22.175  19.393   3.629  0.00  0.00     0.233 C 
HETATM    2  O   UNK N   1      21.782  18.053   3.460  0.00  0.00    -0.356 OA
HETATM    3  C   UNK N   1      21.632  20.231   2.485  0.00  0.00     0.088 C 
HETATM    4  C   UNK N   1      21.030  17.987   2.271  0.00  0.00     0.177 C 
HETATM    5  C   UNK N   1      20.564  19.373   1.924  0.00  0.00     0.153 C 
ENDROOT
BRANCH   4   6
HETATM    6  C   UNK N   1      19.819  17.097   2.501  0.00  0.00     0.215 C 
BRANCH   6   7
HETATM    7  O   UNK N   1      19.324  17.319   3.791  0.00  0.00    -0.294 OA
BRANCH   7   8
HETATM    8  P   UNK N   1      19.248  15.775   4.577  0.00  0.00     0.401 P 
HETATM    9  O   UNK N   1      18.160  15.925   5.676  0.00  0.00    -0.631 OA
BRANCH   8  10
HETATM   10  O   UNK N   1      20.780  15.479   5.336  0.00  0.00    -0.195 OA
BRANCH  10  11
HETATM   11  P   UNK N   1      20.505  15.415   7.046  0.00  0.00     0.410 P 
HETATM   12  O   UNK N   1      21.986  15.860   6.893  0.00  0.00    -0.631 OA
BRANCH  11  13
HETATM   13  O   UNK N   1      21.397  14.153   7.841  0.00  0.00    -0.195 OA
BRANCH  13  14
HETATM   14  P   UNK N   1      20.944  14.227   9.514  0.00  0.00     0.399 P 
HETATM   15  O   UNK N   1      20.696  12.737   9.155  0.00  0.00    -0.631 OA
BRANCH  14  16
HETATM   16  O   UNK N   1      19.934  15.270   8.562  0.00  0.00    -0.307 OA
HETATM   17  H   UNK N   1      19.029  15.594   8.696  0.00  0.00     0.222 HD
ENDBRANCH  14  16
BRANCH  14  18
HETATM   18  O   UNK N   1      19.275  13.993   9.925  0.00  0.00    -0.307 OA
HETATM   19  H   UNK N   1      18.955  13.192  10.368  0.00  0.00     0.222 HD
ENDBRANCH  14  18
ENDBRANCH  13  14
ENDBRANCH  11  13
BRANCH  11  20
HETATM   20  O   UNK N   1      20.124  13.895   6.298  0.00  0.00    -0.307 OA
HETATM   21  H   UNK N   1      20.294  12.977   6.563  0.00  0.00     0.222 HD
ENDBRANCH  11  20
ENDBRANCH  10  11
ENDBRANCH   8  10
BRANCH   8  22
HETATM   22  O   UNK N   1      18.763  14.478   3.528  0.00  0.00    -0.307 OA
HETATM   23  H   UNK N   1      18.380  13.619   3.765  0.00  0.00     0.222 HD
ENDBRANCH   8  22
ENDBRANCH   7   8
ENDBRANCH   6   7
ENDBRANCH   4   6
BRANCH   5  24
HETATM   24  O   UNK N   1      20.488  19.531   0.540  0.00  0.00    -0.393 OA
HETATM   25  H   UNK N   1      20.831  20.306   0.065  0.00  0.00     0.210 HD
ENDBRANCH   5  24
BRANCH   1  26
HETATM   26  N   UNK N   1      23.630  19.433   3.701  0.00  0.00    -0.299 N 
HETATM   27  C   UNK N   1      24.467  18.623   4.359  0.00  0.00     0.159 A 
HETATM   28  C   UNK N   1      25.726  19.066   4.208  0.00  0.00     0.147 A 
HETATM   29  N   UNK N   1      24.159  17.537   5.109  0.00  0.00    -0.174 N 
HETATM   30  N   UNK N   1      25.733  20.174   3.442  0.00  0.00    -0.345 N 
HETATM   31  C   UNK N   1      26.772  18.402   4.824  0.00  0.00     0.290 A 
HETATM   32  C   UNK N   1      24.420  20.387   3.147  0.00  0.00     0.188 A 
ATOM     33  HN  UNK N   1      26.539  20.728   3.149  1.00  0.00     0.167 HD
HETATM   34  N   UNK N   1      26.473  17.291   5.585  0.00  0.00    -0.154 N 
HETATM   35  O   UNK N   1      27.921  18.787   4.711  0.00  0.00    -0.265 OA
HETATM   36  C   UNK N   1      25.174  16.865   5.725  0.00  0.00     0.680 A 
HETATM   37  H   UNK N   1      27.198  16.799   6.034  0.00  0.00     0.187 HD
HETATM   38  N   UNK N   1      24.886  15.734   6.513  0.00  0.00    -0.234 N 
HETATM   39  H   UNK N   1      23.954  15.530   6.761  0.00  0.00     0.174 HD
HETATM   40  H   UNK N   1      25.615  15.147   6.816  0.00  0.00     0.174 HD
ATOM     41  HN  UNK N   1      23.191  17.230   5.210  1.00  0.00     0.186 HD
ENDBRANCH   1  26
TORSDOF 13
ENDMDL
MODEL 5
REMARK VINA RESULT:      -7.1      9.414     11.985
REMARK  13 active torsions:
REMARK  status: ('A' for Active; 'I' for Inactive)
REMARK    1  A    between atoms: C_6  and  N_2 
REMARK       I    between atoms: C_11  and  N_16 
REMARK    2  A    between atoms: C_17  and  C_19 
REMARK    3  A    between atoms: C_18  and  O_20 
REMARK    4  A    between atoms: C_19  and  O_21 
REMARK    5  A    between atoms: O_21  and  P_22 
REMARK    6  A    between atoms: P_22  and  O_23 
REMARK    7  A    between atoms: P_22  and  O_24 
REMARK    8  A    between atoms: O_23  and  P_26 
REMARK    9  A    between atoms: P_26  and  O_27 
REMARK   10  A    between atoms: P_26  and  O_28 
REMARK   11  A    between atoms: O_27  and  P_30 
REMARK   12  A    between atoms: P_30  and  O_31 
REMARK   13  A    between atoms: P_30  and  O_32 
ROOT
HETATM    1  C   UNK N   1      21.974  16.374   5.778  0.00  0.00     0.233 C 
HETATM    2  O   UNK N   1      21.327  15.481   4.904  0.00  0.00    -0.356 OA
HETATM    3  C   UNK N   1      21.053  16.707   6.939  0.00  0.00     0.088 C 
HETATM    4  C   UNK N   1      20.046  15.234   5.435  0.00  0.00     0.177 C 
HETATM    5  C   UNK N   1      20.050  15.619   6.888  0.00  0.00     0.153 C 
ENDROOT
BRANCH   4   6
HETATM    6  C   UNK N   1      19.739  13.751   5.314  0.00  0.00     0.215 C 
BRANCH   6   7
HETATM    7  O   UNK N   1      20.027  13.120   6.529  0.00  0.00    -0.294 OA
BRANCH   7   8
HETATM    8  P   UNK N   1      21.311  11.995   6.225  0.00  0.00     0.401 P 
HETATM    9  O   UNK N   1      20.609  10.652   5.883  0.00  0.00    -0.631 OA
BRANCH   8  10
HETATM   10  O   UNK N   1      22.218  11.801   7.692  0.00  0.00    -0.195 OA
BRANCH  10  11
HETATM   11  P   UNK N   1      23.012  13.309   8.011  0.00  0.00     0.410 P 
HETATM   12  O   UNK N   1      24.077  12.220   8.318  0.00  0.00    -0.631 OA
BRANCH  11  13
HETATM   13  O   UNK N   1      23.376  13.553   9.692  0.00  0.00    -0.195 OA
BRANCH  13  14
HETATM   14  P   UNK N   1      24.255  12.146  10.201  0.00  0.00     0.399 P 
HETATM   15  O   UNK N   1      23.071  12.194  11.204  0.00  0.00    -0.631 OA
BRANCH  14  16
HETATM   16  O   UNK N   1      25.244  13.566  10.341  0.00  0.00    -0.307 OA
HETATM   17  H   UNK N   1      25.164  14.452   9.952  0.00  0.00     0.222 HD
ENDBRANCH  14  16
BRANCH  14  18
HETATM   18  O   UNK N   1      25.046  12.184  11.745  0.00  0.00    -0.307 OA
HETATM   19  H   UNK N   1      25.907  12.611  11.879  0.00  0.00     0.222 HD
ENDBRANCH  14  18
ENDBRANCH  13  14
ENDBRANCH  11  13
BRANCH  11  20
HETATM   20  O   UNK N   1      21.548  13.170   8.933  0.00  0.00    -0.307 OA
HETATM   21  H   UNK N   1      20.716  12.698   8.770  0.00  0.00     0.222 HD
ENDBRANCH  11  20
ENDBRANCH  10  11
ENDBRANCH   8  10
BRANCH   8  22
HETATM   22  O   UNK N   1      22.314  12.425   4.874  0.00  0.00    -0.307 OA
HETATM   23  H   UNK N   1      23.157  12.033   4.596  0.00  0.00     0.222 HD
ENDBRANCH   8  22
ENDBRANCH   7   8
ENDBRANCH   6   7
ENDBRANCH   4   6
BRANCH   5  24
HETATM   24  O   UNK N   1      18.796  16.095   7.271  0.00  0.00    -0.393 OA
HETATM   25  H   UNK N   1      17.974  15.587   7.178  0.00  0.00     0.210 HD
ENDBRANCH   5  24
BRANCH   1  26
HETATM   26  N   UNK N   1      22.353  17.558   5.017  0.00  0.00    -0.299 N 
HETATM   27  C   UNK N   1      21.645  18.247   4.116  0.00  0.00     0.159 A 
HETATM   28  C   UNK N   1      22.407  19.230   3.607  0.00  0.00     0.147 A 
HETATM   29  N   UNK N   1      20.374  18.020   3.705  0.00  0.00    -0.174 N 
HETATM   30  N   UNK N   1      23.629  19.202   4.173  0.00  0.00    -0.345 N 
HETATM   31  C   UNK N   1      21.897  20.065   2.630  0.00  0.00     0.290 A 
HETATM   32  C   UNK N   1      23.574  18.151   5.038  0.00  0.00     0.188 A 
ATOM     33  HN  UNK N   1      24.416  19.826   3.996  1.00  0.00     0.167 HD
HETATM   34  N   UNK N   1      20.601  19.849   2.207  0.00  0.00    -0.154 N 
HETATM   35  O   UNK N   1      22.568  20.957   2.146  0.00  0.00    -0.265 OA
HETATM   36  C   UNK N   1      19.848  18.833   2.743  0.00  0.00     0.680 A 
HETATM   37  H   UNK N   1      20.213  20.430   1.514  0.00  0.00     0.187 HD
HETATM   38  N   UNK N   1      18.530  18.622   2.294  0.00  0.00    -0.234 N 
HETATM   39  H   UNK N   1      18.052  17.796   2.539  0.00  0.00     0.174 HD
HETATM   40  H   UNK N   1      18.087  19.299   1.734  0.00  0.00     0.174 HD
ATOM     41  HN  UNK N   1      19.823  17.261   4.106  1.00  0.00     0.186 HD
ENDBRANCH   1  26
TORSDOF 13
ENDMDL
MODEL 6
REMARK VINA RESULT:      -6.8      1.887      2.825
REMARK  13 active torsions:
REMARK  status: ('A' for Active; 'I' for Inactive)
REMARK    1  A    between atoms: C_6  and  N_2 
REMARK       I    between atoms: C_11  and  N_16 
REMARK    2  A    between atoms: C_17  and  C_19 
REMARK    3  A    between atoms: C_18  and  O_20 
REMARK    4  A    between atoms: C_19  and  O_21 
REMARK    5  A    between atoms: O_21  and  P_22 
REMARK    6  A    between atoms: P_22  and  O_23 
REMARK    7  A    between atoms: P_22  and  O_24 
REMARK    8  A    between atoms: O_23  and  P_26 
REMARK    9  A    between atoms: P_26  and  O_27 
REMARK   10  A    between atoms: P_26  and  O_28 
REMARK   11  A    between atoms: O_27  and  P_30 
REMARK   12  A    between atoms: P_30  and  O_31 
REMARK   13  A    between atoms: P_30  and  O_32 
ROOT
HETATM    1  C   UNK N   1      29.147  16.064   6.056  0.00  0.00     0.233 C 
HETATM    2  O   UNK N   1      29.454  16.799   7.216  0.00  0.00    -0.356 OA
HETATM    3  C   UNK N   1      30.283  16.190   5.057  0.00  0.00     0.088 C 
HETATM    4  C   UNK N   1      30.714  17.393   7.010  0.00  0.00     0.177 C 
HETATM    5  C   UNK N   1      31.409  16.663   5.895  0.00  0.00     0.153 C 
ENDROOT
BRANCH   4   6
HETATM    6  C   UNK N   1      31.537  17.260   8.281  0.00  0.00     0.215 C 
BRANCH   6   7
HETATM    7  O   UNK N   1      32.551  18.224   8.275  0.00  0.00    -0.294 OA
BRANCH   7   8
HETATM    8  P   UNK N   1      34.052  17.381   8.481  0.00  0.00     0.401 P 
HETATM    9  O   UNK N   1      34.582  17.127   7.042  0.00  0.00    -0.631 OA
BRANCH   8  10
HETATM   10  O   UNK N   1      33.716  15.856   9.236  0.00  0.00    -0.195 OA
BRANCH  10  11
HETATM   11  P   UNK N   1      35.051  15.490  10.279  0.00  0.00     0.410 P 
HETATM   12  O   UNK N   1      35.238  14.564   9.046  0.00  0.00    -0.631 OA
BRANCH  11  13
HETATM   13  O   UNK N   1      34.981  13.890  10.953  0.00  0.00    -0.195 OA
BRANCH  13  14
HETATM   14  P   UNK N   1      36.232  13.822  12.154  0.00  0.00     0.399 P 
HETATM   15  O   UNK N   1      34.934  13.719  13.001  0.00  0.00    -0.631 OA
BRANCH  14  16
HETATM   16  O   UNK N   1      36.293  15.329  11.295  0.00  0.00    -0.307 OA
HETATM   17  H   UNK N   1      36.554  16.222  11.572  0.00  0.00     0.222 HD
ENDBRANCH  14  16
BRANCH  14  18
HETATM   18  O   UNK N   1      36.379  15.146  13.265  0.00  0.00    -0.307 OA
HETATM   19  H   UNK N   1      37.239  15.505  13.536  0.00  0.00     0.222 HD
ENDBRANCH  14  18
ENDBRANCH  13  14
ENDBRANCH  11  13
BRANCH  11  20
HETATM   20  O   UNK N   1      33.540  15.292  11.111  0.00  0.00    -0.307 OA
HETATM   21  H   UNK N   1      32.650  15.061  10.802  0.00  0.00     0.222 HD
ENDBRANCH  11  20
ENDBRANCH  10  11
ENDBRANCH   8  10
BRANCH   8  22
HETATM   22  O   UNK N   1      35.258  18.295   9.333  0.00  0.00    -0.307 OA
HETATM   23  H   UNK N   1      35.339  18.449  10.287  0.00  0.00     0.222 HD
ENDBRANCH   8  22
ENDBRANCH   7   8
ENDBRANCH   6   7
ENDBRANCH   4   6
BRANCH   5  24
HETATM   24  O   UNK N   1      32.222  17.535   5.171  0.00  0.00    -0.393 OA
HETATM   25  H   UNK N   1      33.156  17.361   4.970  0.00  0.00     0.210 HD
ENDBRANCH   5  24
BRANCH   1  26
HETATM   26  N   UNK N   1      27.886  16.564   5.524  0.00  0.00    -0.299 N 
HETATM   27  C   UNK N   1      27.405  17.812   5.519  0.00  0.00     0.159 A 
HETATM   28  C   UNK N   1      26.171  17.812   4.988  0.00  0.00     0.147 A 
HETATM   29  N   UNK N   1      27.997  18.934   5.994  0.00  0.00    -0.174 N 
HETATM   30  N   UNK N   1      25.826  16.560   4.630  0.00  0.00    -0.345 N 
HETATM   31  C   UNK N   1      25.455  18.993   4.900  0.00  0.00     0.290 A 
HETATM   32  C   UNK N   1      26.902  15.802   4.981  0.00  0.00     0.188 A 
ATOM     33  HN  UNK N   1      24.956  16.250   4.195  1.00  0.00     0.167 HD
HETATM   34  N   UNK N   1      26.049  20.145   5.375  0.00  0.00    -0.154 N 
HETATM   35  O   UNK N   1      24.333  19.020   4.432  0.00  0.00    -0.265 OA
HETATM   36  C   UNK N   1      27.311  20.112   5.918  0.00  0.00     0.680 A 
HETATM   37  H   UNK N   1      25.563  20.999   5.324  0.00  0.00     0.187 HD
HETATM   38  N   UNK N   1      27.898  21.295   6.405  0.00  0.00    -0.234 N 
HETATM   39  H   UNK N   1      28.717  21.251   6.951  0.00  0.00     0.174 HD
HETATM   40  H   UNK N   1      27.490  22.167   6.200  0.00  0.00     0.174 HD
ATOM     41  HN  UNK N   1      28.933  18.900   6.399  1.00  0.00     0.186 HD
ENDBRANCH   1  26
TORSDOF 13
ENDMDL
MODEL 7
REMARK VINA RESULT:      -6.8      6.708     11.316
REMARK  13 active torsions:
REMARK  status: ('A' for Active; 'I' for Inactive)
REMARK    1  A    between atoms: C_6  and  N_2 
REMARK       I    between atoms: C_11  and  N_16 
REMARK    2  A    between atoms: C_17  and  C_19 
REMARK    3  A    between atoms: C_18  and  O_20 
REMARK    4  A    between atoms: C_19  and  O_21 
REMARK    5  A    between atoms: O_21  and  P_22 
REMARK    6  A    between atoms: P_22  and  O_23 
REMARK    7  A    between atoms: P_22  and  O_24 
REMARK    8  A    between atoms: O_23  and  P_26 
REMARK    9  A    between atoms: P_26  and  O_27 
REMARK   10  A    between atoms: P_26  and  O_28 
REMARK   11  A    between atoms: O_27  and  P_30 
REMARK   12  A    between atoms: P_30  and  O_31 
REMARK   13  A    between atoms: P_30  and  O_32 
ROOT
HETATM    1  C   UNK N   1      26.746  19.198   5.364  0.00  0.00     0.233 C 
HETATM    2  O   UNK N   1      25.643  18.371   5.083  0.00  0.00    -0.356 OA
HETATM    3  C   UNK N   1      26.822  20.313   4.335  0.00  0.00     0.088 C 
HETATM    4  C   UNK N   1      25.019  18.888   3.931  0.00  0.00     0.177 C 
HETATM    5  C   UNK N   1      25.464  20.311   3.745  0.00  0.00     0.153 C 
ENDROOT
BRANCH   4   6
HETATM    6  C   UNK N   1      23.513  18.859   4.131  0.00  0.00     0.215 C 
BRANCH   6   7
HETATM    7  O   UNK N   1      23.202  17.960   5.157  0.00  0.00    -0.294 OA
BRANCH   7   8
HETATM    8  P   UNK N   1      21.496  18.084   5.440  0.00  0.00     0.401 P 
HETATM    9  O   UNK N   1      21.077  19.455   4.842  0.00  0.00    -0.631 OA
BRANCH   8  10
HETATM   10  O   UNK N   1      21.233  18.112   7.155  0.00  0.00    -0.195 OA
BRANCH  10  11
HETATM   11  P   UNK N   1      20.210  16.768   7.543  0.00  0.00     0.410 P 
HETATM   12  O   UNK N   1      20.158  17.689   8.794  0.00  0.00    -0.631 OA
BRANCH  11  13
HETATM   13  O   UNK N   1      20.840  15.767   8.816  0.00  0.00    -0.195 OA
BRANCH  13  14
HETATM   14  P   UNK N   1      21.432  14.329   8.046  0.00  0.00     0.399 P 
HETATM   15  O   UNK N   1      19.917  14.302   7.709  0.00  0.00    -0.631 OA
BRANCH  14  16
HETATM   16  O   UNK N   1      21.687  14.252   9.761  0.00  0.00    -0.307 OA
HETATM   17  H   UNK N   1      22.335  13.768  10.299  0.00  0.00     0.222 HD
ENDBRANCH  14  16
BRANCH  14  18
HETATM   18  O   UNK N   1      20.918  12.793   8.665  0.00  0.00    -0.307 OA
HETATM   19  H   UNK N   1      20.772  12.635   9.611  0.00  0.00     0.222 HD
ENDBRANCH  14  18
ENDBRANCH  13  14
ENDBRANCH  11  13
BRANCH  11  20
HETATM   20  O   UNK N   1      21.801  16.231   7.105  0.00  0.00    -0.307 OA
HETATM   21  H   UNK N   1      22.654  16.691   7.054  0.00  0.00     0.222 HD
ENDBRANCH  11  20
ENDBRANCH  10  11
ENDBRANCH   8  10
BRANCH   8  22
HETATM   22  O   UNK N   1      20.563  16.855   4.644  0.00  0.00    -0.307 OA
HETATM   23  H   UNK N   1      19.602  16.809   4.520  0.00  0.00     0.222 HD
ENDBRANCH   8  22
ENDBRANCH   7   8
ENDBRANCH   6   7
ENDBRANCH   4   6
BRANCH   5  24
HETATM   24  O   UNK N   1      25.522  20.632   2.389  0.00  0.00    -0.393 OA
HETATM   25  H   UNK N   1      26.161  20.245   1.769  0.00  0.00     0.210 HD
ENDBRANCH   5  24
BRANCH   1  26
HETATM   26  N   UNK N   1      27.944  18.369   5.369  0.00  0.00    -0.299 N 
HETATM   27  C   UNK N   1      28.788  18.107   6.374  0.00  0.00     0.159 A 
HETATM   28  C   UNK N   1      29.801  17.350   5.920  0.00  0.00     0.147 A 
HETATM   29  N   UNK N   1      28.715  18.538   7.657  0.00  0.00    -0.174 N 
HETATM   30  N   UNK N   1      29.633  17.100   4.607  0.00  0.00    -0.345 N 
HETATM   31  C   UNK N   1      30.819  16.972   6.776  0.00  0.00     0.290 A 
HETATM   32  C   UNK N   1      28.479  17.750   4.286  0.00  0.00     0.188 A 
ATOM     33  HN  UNK N   1      30.232  16.549   3.992  1.00  0.00     0.167 HD
HETATM   34  N   UNK N   1      30.753  17.397   8.086  0.00  0.00    -0.154 N 
HETATM   35  O   UNK N   1      31.753  16.294   6.388  0.00  0.00    -0.265 OA
HETATM   36  C   UNK N   1      29.707  18.175   8.520  0.00  0.00     0.680 A 
HETATM   37  H   UNK N   1      31.464  17.141   8.717  0.00  0.00     0.187 HD
HETATM   38  N   UNK N   1      29.661  18.608   9.859  0.00  0.00    -0.234 N 
HETATM   39  H   UNK N   1      29.019  19.304  10.131  0.00  0.00     0.174 HD
HETATM   40  H   UNK N   1      30.270  18.215  10.525  0.00  0.00     0.174 HD
ATOM     41  HN  UNK N   1      27.936  19.118   7.969  1.00  0.00     0.186 HD
ENDBRANCH   1  26
TORSDOF 13
ENDMDL
MODEL 8
REMARK VINA RESULT:      -6.8      1.755      3.162
REMARK  13 active torsions:
REMARK  status: ('A' for Active; 'I' for Inactive)
REMARK    1  A    between atoms: C_6  and  N_2 
REMARK       I    between atoms: C_11  and  N_16 
REMARK    2  A    between atoms: C_17  and  C_19 
REMARK    3  A    between atoms: C_18  and  O_20 
REMARK    4  A    between atoms: C_19  and  O_21 
REMARK    5  A    between atoms: O_21  and  P_22 
REMARK    6  A    between atoms: P_22  and  O_23 
REMARK    7  A    between atoms: P_22  and  O_24 
REMARK    8  A    between atoms: O_23  and  P_26 
REMARK    9  A    between atoms: P_26  and  O_27 
REMARK   10  A    between atoms: P_26  and  O_28 
REMARK   11  A    between atoms: O_27  and  P_30 
REMARK   12  A    between atoms: P_30  and  O_31 
REMARK   13  A    between atoms: P_30  and  O_32 
ROOT
HETATM    1  C   UNK N   1      32.773  17.184   7.129  0.00  0.00     0.233 C 
HETATM    2  O   UNK N   1      33.075  15.831   7.364  0.00  0.00    -0.356 OA
HETATM    3  C   UNK N   1      33.437  18.045   8.190  0.00  0.00     0.088 C 
HETATM    4  C   UNK N   1      33.883  15.778   8.516  0.00  0.00     0.177 C 
HETATM    5  C   UNK N   1      34.468  17.143   8.750  0.00  0.00     0.153 C 
ENDROOT
BRANCH   4   6
HETATM    6  C   UNK N   1      35.011  14.786   8.283  0.00  0.00     0.215 C 
BRANCH   6   7
HETATM    7  O   UNK N   1      35.775  14.677   9.450  0.00  0.00    -0.294 OA
BRANCH   7   8
HETATM    8  P   UNK N   1      34.869  13.701  10.560  0.00  0.00     0.401 P 
HETATM    9  O   UNK N   1      34.198  14.704  11.539  0.00  0.00    -0.631 OA
BRANCH   8  10
HETATM   10  O   UNK N   1      35.986  12.710  11.445  0.00  0.00    -0.195 OA
BRANCH  10  11
HETATM   11  P   UNK N   1      35.778  13.073  13.127  0.00  0.00     0.410 P 
HETATM   12  O   UNK N   1      37.197  12.449  13.022  0.00  0.00    -0.631 OA
BRANCH  11  13
HETATM   13  O   UNK N   1      35.678  11.658  14.130  0.00  0.00    -0.195 OA
BRANCH  13  14
HETATM   14  P   UNK N   1      35.335  12.230  15.732  0.00  0.00     0.399 P 
HETATM   15  O   UNK N   1      34.183  11.223  15.471  0.00  0.00    -0.631 OA
BRANCH  14  16
HETATM   16  O   UNK N   1      35.284  13.539  14.593  0.00  0.00    -0.307 OA
HETATM   17  H   UNK N   1      34.863  13.624  13.722  0.00  0.00     0.222 HD
ENDBRANCH  14  16
BRANCH  14  18
HETATM   18  O   UNK N   1      33.910  13.189  15.976  0.00  0.00    -0.307 OA
HETATM   19  H   UNK N   1      33.565  13.393  16.859  0.00  0.00     0.222 HD
ENDBRANCH  14  18
ENDBRANCH  13  14
ENDBRANCH  11  13
BRANCH  11  20
HETATM   20  O   UNK N   1      34.495  12.058  12.547  0.00  0.00    -0.307 OA
HETATM   21  H   UNK N   1      33.635  11.812  12.925  0.00  0.00     0.222 HD
ENDBRANCH  11  20
ENDBRANCH  10  11
ENDBRANCH   8  10
BRANCH   8  22
HETATM   22  O   UNK N   1      33.607  12.774   9.809  0.00  0.00    -0.307 OA
HETATM   23  H   UNK N   1      32.665  12.988   9.728  0.00  0.00     0.222 HD
ENDBRANCH   8  22
ENDBRANCH   7   8
ENDBRANCH   6   7
ENDBRANCH   4   6
BRANCH   5  24
HETATM   24  O   UNK N   1      34.631  17.377  10.116  0.00  0.00    -0.393 OA
HETATM   25  H   UNK N   1      34.320  18.179  10.567  0.00  0.00     0.210 HD
ENDBRANCH   5  24
BRANCH   1  26
HETATM   26  N   UNK N   1      31.323  17.331   7.128  0.00  0.00    -0.299 N 
HETATM   27  C   UNK N   1      30.464  17.240   6.107  0.00  0.00     0.159 A 
HETATM   28  C   UNK N   1      29.223  17.516   6.541  0.00  0.00     0.147 A 
HETATM   29  N   UNK N   1      30.739  16.960   4.810  0.00  0.00    -0.174 N 
HETATM   30  N   UNK N   1      29.250  17.788   7.860  0.00  0.00    -0.345 N 
HETATM   31  C   UNK N   1      28.162  17.511   5.654  0.00  0.00     0.290 A 
HETATM   32  C   UNK N   1      30.564  17.675   8.200  0.00  0.00     0.188 A 
ATOM     33  HN  UNK N   1      28.464  18.023   8.467  1.00  0.00     0.167 HD
HETATM   34  N   UNK N   1      28.427  17.220   4.331  0.00  0.00    -0.154 N 
HETATM   35  O   UNK N   1      27.029  17.766   6.019  0.00  0.00    -0.265 OA
HETATM   36  C   UNK N   1      29.708  16.948   3.916  0.00  0.00     0.680 A 
HETATM   37  H   UNK N   1      27.690  17.209   3.679  0.00  0.00     0.187 HD
HETATM   38  N   UNK N   1      29.962  16.661   2.560  0.00  0.00    -0.234 N 
HETATM   39  H   UNK N   1      30.888  16.642   2.226  0.00  0.00     0.174 HD
HETATM   40  H   UNK N   1      29.213  16.481   1.947  0.00  0.00     0.174 HD
ATOM     41  HN  UNK N   1      31.694  16.762   4.509  1.00  0.00     0.186 HD
ENDBRANCH   1  26
TORSDOF 13
ENDMDL
MODEL 9
REMARK VINA RESULT:      -6.8      1.627      2.419
REMARK  13 active torsions:
REMARK  status: ('A' for Active; 'I' for Inactive)
REMARK    1  A    between atoms: C_6  and  N_2 
REMARK       I    between atoms: C_11  and  N_16 
REMARK    2  A    between atoms: C_17  and  C_19 
REMARK    3  A    between atoms: C_18  and  O_20 
REMARK    4  A    between atoms: C_19  and  O_21 
REMARK    5  A    between atoms: O_21  and  P_22 
REMARK    6  A    between atoms: P_22  and  O_23 
REMARK    7  A    between atoms: P_22  and  O_24 
REMARK    8  A    between atoms: O_23  and  P_26 
REMARK    9  A    between atoms: P_26  and  O_27 
REMARK   10  A    between atoms: P_26  and  O_28 
REMARK   11  A    between atoms: O_27  and  P_30 
REMARK   12  A    between atoms: P_30  and  O_31 
REMARK   13  A    between atoms: P_30  and  O_32 
ROOT
HETATM    1  C   UNK N   1      32.529  16.156   7.978  0.00  0.00     0.233 C 
HETATM    2  O   UNK N   1      33.635  15.512   7.395  0.00  0.00    -0.356 OA
HETATM    3  C   UNK N   1      31.813  15.194   8.911  0.00  0.00     0.088 C 
HETATM    4  C   UNK N   1      33.660  14.195   7.893  0.00  0.00     0.177 C 
HETATM    5  C   UNK N   1      32.829  14.143   9.144  0.00  0.00     0.153 C 
ENDROOT
BRANCH   4   6
HETATM    6  C   UNK N   1      35.094  13.822   8.231  0.00  0.00     0.215 C 
BRANCH   6   7
HETATM    7  O   UNK N   1      35.810  14.984   8.544  0.00  0.00    -0.294 OA
BRANCH   7   8
HETATM    8  P   UNK N   1      36.654  14.675  10.026  0.00  0.00     0.401 P 
HETATM    9  O   UNK N   1      38.023  14.074   9.603  0.00  0.00    -0.631 OA
BRANCH   8  10
HETATM   10  O   UNK N   1      35.764  13.479  10.915  0.00  0.00    -0.195 OA
BRANCH  10  11
HETATM   11  P   UNK N   1      36.112  13.720  12.596  0.00  0.00     0.410 P 
HETATM   12  O   UNK N   1      36.045  12.179  12.416  0.00  0.00    -0.631 OA
BRANCH  11  13
HETATM   13  O   UNK N   1      34.813  13.241  13.645  0.00  0.00    -0.195 OA
BRANCH  13  14
HETATM   14  P   UNK N   1      35.561  12.635  15.089  0.00  0.00     0.399 P 
HETATM   15  O   UNK N   1      34.144  13.039  15.578  0.00  0.00    -0.631 OA
BRANCH  14  16
HETATM   16  O   UNK N   1      36.425  14.015  14.487  0.00  0.00    -0.307 OA
HETATM   17  H   UNK N   1      36.854  14.759  14.941  0.00  0.00     0.222 HD
ENDBRANCH  14  16
BRANCH  14  18
HETATM   18  O   UNK N   1      35.890  13.750  16.376  0.00  0.00    -0.307 OA
HETATM   19  H   UNK N   1      35.810  14.711  16.265  0.00  0.00     0.222 HD
ENDBRANCH  14  18
ENDBRANCH  13  14
ENDBRANCH  11  13
BRANCH  11  20
HETATM   20  O   UNK N   1      34.670  14.568  12.133  0.00  0.00    -0.307 OA
HETATM   21  H   UNK N   1      34.121  14.533  11.334  0.00  0.00     0.222 HD
ENDBRANCH  11  20
ENDBRANCH  10  11
ENDBRANCH   8  10
BRANCH   8  22
HETATM   22  O   UNK N   1      36.971  16.102  10.963  0.00  0.00    -0.307 OA
HETATM   23  H   UNK N   1      36.340  16.754  11.306  0.00  0.00     0.222 HD
ENDBRANCH   8  22
ENDBRANCH   7   8
ENDBRANCH   6   7
ENDBRANCH   4   6
BRANCH   5  24
HETATM   24  O   UNK N   1      32.219  12.895   9.274  0.00  0.00    -0.393 OA
HETATM   25  H   UNK N   1      31.319  12.700   8.967  0.00  0.00     0.210 HD
ENDBRANCH   5  24
BRANCH   1  26
HETATM   26  N   UNK N   1      31.664  16.631   6.906  0.00  0.00    -0.299 N 
HETATM   27  C   UNK N   1      30.463  17.215   6.983  0.00  0.00     0.159 A 
HETATM   28  C   UNK N   1      29.989  17.427   5.744  0.00  0.00     0.147 A 
HETATM   29  N   UNK N   1      29.762  17.533   8.099  0.00  0.00    -0.174 N 
HETATM   30  N   UNK N   1      30.878  16.987   4.833  0.00  0.00    -0.345 N 
HETATM   31  C   UNK N   1      28.742  17.999   5.569  0.00  0.00     0.290 A 
HETATM   32  C   UNK N   1      31.905  16.490   5.577  0.00  0.00     0.188 A 
ATOM     33  HN  UNK N   1      30.800  17.020   3.816  1.00  0.00     0.167 HD
HETATM   34  N   UNK N   1      28.021  18.334   6.696  0.00  0.00    -0.154 N 
HETATM   35  O   UNK N   1      28.285  18.194   4.458  0.00  0.00    -0.265 OA
HETATM   36  C   UNK N   1      28.530  18.101   7.951  0.00  0.00     0.680 A 
HETATM   37  H   UNK N   1      27.131  18.744   6.600  0.00  0.00     0.187 HD
HETATM   38  N   UNK N   1      27.776  18.441   9.091  0.00  0.00    -0.234 N 
HETATM   39  H   UNK N   1      28.052  18.117   9.979  0.00  0.00     0.174 HD
HETATM   40  H   UNK N   1      26.972  19.002   8.999  0.00  0.00     0.174 HD
ATOM     41  HN  UNK N   1      30.146  17.353   9.027  1.00  0.00     0.186 HD
ENDBRANCH   1  26
TORSDOF 13
ENDMDL
