MODEL 1
REMARK VINA RESULT:      -4.3      0.000      0.000
REMARK  1 active torsions:
REMARK  status: ('A' for Active; 'I' for Inactive)
REMARK    1  A    between atoms: N_1  and  C_2 
ROOT
HETATM    1  C   UNK N   1      21.953  12.104  11.195  0.00  0.00     0.064 A 
HETATM    2  C   UNK N   1      22.089  12.442   9.845  0.00  0.00     0.032 A 
HETATM    3  C   UNK N   1      23.361  12.591   9.285  0.00  0.00     0.002 A 
HETATM    4  C   UNK N   1      24.501  12.404  10.074  0.00  0.00     0.003 A 
HETATM    5  C   UNK N   1      24.367  12.066  11.424  0.00  0.00     0.044 A 
HETATM    6  C   UNK N   1      23.093  11.916  11.985  0.00  0.00     0.142 A 
HETATM    7  F   UNK N   1      22.968  11.589  13.293  0.00  0.00    -0.204 F 
ENDROOT
BRANCH   1   8
HETATM    8  N   UNK N   1      20.668  11.954  11.756  0.00  0.00    -0.397 N 
HETATM    9  H   UNK N   1      20.031  12.704  11.735  0.00  0.00     0.156 HD
HETATM   10  H   UNK N   1      20.409  11.099  12.170  0.00  0.00     0.156 HD
ENDBRANCH   1   8
TORSDOF 1
ENDMDL
MODEL 2
REMARK VINA RESULT:      -4.2      1.755      2.496
REMARK  1 active torsions:
REMARK  status: ('A' for Active; 'I' for Inactive)
REMARK    1  A    between atoms: N_1  and  C_2 
ROOT
HETATM    1  C   UNK N   1      23.672  12.496  10.809  0.00  0.00     0.064 A 
HETATM    2  C   UNK N   1      23.323  13.132   9.614  0.00  0.00     0.032 A 
HETATM    3  C   UNK N   1      21.976  13.337   9.298  0.00  0.00     0.002 A 
HETATM    4  C   UNK N   1      20.976  12.906  10.176  0.00  0.00     0.003 A 
HETATM    5  C   UNK N   1      21.324  12.270  11.371  0.00  0.00     0.044 A 
HETATM    6  C   UNK N   1      22.671  12.065  11.688  0.00  0.00     0.142 A 
HETATM    7  F   UNK N   1      23.004  11.448  12.847  0.00  0.00    -0.204 F 
ENDROOT
BRANCH   1   8
HETATM    8  N   UNK N   1      25.031  12.291  11.125  0.00  0.00    -0.397 N 
HETATM    9  H   UNK N   1      25.597  11.746  10.534  0.00  0.00     0.156 HD
HETATM   10  H   UNK N   1      25.413  12.695  11.939  0.00  0.00     0.156 HD
ENDBRANCH   1   8
TORSDOF 1
ENDMDL
MODEL 3
REMARK VINA RESULT:      -4.1      1.459      2.247
REMARK  1 active torsions:
REMARK  status: ('A' for Active; 'I' for Inactive)
REMARK    1  A    between atoms: N_1  and  C_2 
ROOT
HETATM    1  C   UNK N   1      22.882  11.982  11.655  0.00  0.00     0.064 A 
HETATM    2  C   UNK N   1      24.114  12.104  11.005  0.00  0.00     0.032 A 
HETATM    3  C   UNK N   1      24.162  12.491   9.662  0.00  0.00     0.002 A 
HETATM    4  C   UNK N   1      22.978  12.756   8.966  0.00  0.00     0.003 A 
HETATM    5  C   UNK N   1      21.746  12.634   9.614  0.00  0.00     0.044 A 
HETATM    6  C   UNK N   1      21.697  12.247  10.959  0.00  0.00     0.142 A 
HETATM    7  F   UNK N   1      20.501  12.130  11.583  0.00  0.00    -0.204 F 
ENDROOT
BRANCH   1   8
HETATM    8  N   UNK N   1      22.838  11.592  13.009  0.00  0.00    -0.397 N 
HETATM    9  H   UNK N   1      23.612  11.144  13.418  0.00  0.00     0.156 HD
HETATM   10  H   UNK N   1      22.030  11.768  13.545  0.00  0.00     0.156 HD
ENDBRANCH   1   8
TORSDOF 1
ENDMDL
MODEL 4
REMARK VINA RESULT:      -4.0     20.377     21.176
REMARK  1 active torsions:
REMARK  status: ('A' for Active; 'I' for Inactive)
REMARK    1  A    between atoms: N_1  and  C_2 
ROOT
HETATM    1  C   UNK N   1      25.586  25.303  -5.254  0.00  0.00     0.064 A 
HETATM    2  C   UNK N   1      25.037  26.490  -5.748  0.00  0.00     0.032 A 
HETATM    3  C   UNK N   1      25.172  27.678  -5.024  0.00  0.00     0.002 A 
HETATM    4  C   UNK N   1      25.855  27.682  -3.804  0.00  0.00     0.003 A 
HETATM    5  C   UNK N   1      26.403  26.496  -3.307  0.00  0.00     0.044 A 
HETATM    6  C   UNK N   1      26.269  25.306  -4.032  0.00  0.00     0.142 A 
HETATM    7  F   UNK N   1      26.802  24.159  -3.548  0.00  0.00    -0.204 F 
ENDROOT
BRANCH   1   8
HETATM    8  N   UNK N   1      25.448  24.106  -5.986  0.00  0.00    -0.397 N 
HETATM    9  H   UNK N   1      25.647  24.093  -6.950  0.00  0.00     0.156 HD
HETATM   10  H   UNK N   1      25.153  23.282  -5.533  0.00  0.00     0.156 HD
ENDBRANCH   1   8
TORSDOF 1
ENDMDL
MODEL 5
REMARK VINA RESULT:      -4.0     14.198     14.540
REMARK  1 active torsions:
REMARK  status: ('A' for Active; 'I' for Inactive)
REMARK    1  A    between atoms: N_1  and  C_2 
ROOT
HETATM    1  C   UNK N   1      35.099  12.875  19.184  0.00  0.00     0.064 A 
HETATM    2  C   UNK N   1      35.122  13.736  18.083  0.00  0.00     0.032 A 
HETATM    3  C   UNK N   1      35.397  13.235  16.807  0.00  0.00     0.002 A 
HETATM    4  C   UNK N   1      35.649  11.871  16.630  0.00  0.00     0.003 A 
HETATM    5  C   UNK N   1      35.627  11.008  17.730  0.00  0.00     0.044 A 
HETATM    6  C   UNK N   1      35.352  11.510  19.007  0.00  0.00     0.142 A 
HETATM    7  F   UNK N   1      35.331  10.670  20.070  0.00  0.00    -0.204 F 
ENDROOT
BRANCH   1   8
HETATM    8  N   UNK N   1      34.822  13.384  20.469  0.00  0.00    -0.397 N 
HETATM    9  H   UNK N   1      35.077  14.306  20.699  0.00  0.00     0.156 HD
HETATM   10  H   UNK N   1      34.371  12.817  21.137  0.00  0.00     0.156 HD
ENDBRANCH   1   8
TORSDOF 1
ENDMDL
MODEL 6
REMARK VINA RESULT:      -3.9     20.365     21.224
REMARK  1 active torsions:
REMARK  status: ('A' for Active; 'I' for Inactive)
REMARK    1  A    between atoms: N_1  and  C_2 
ROOT
HETATM    1  C   UNK N   1      26.398  25.391  -3.905  0.00  0.00     0.064 A 
HETATM    2  C   UNK N   1      26.373  26.655  -3.309  0.00  0.00     0.032 A 
HETATM    3  C   UNK N   1      25.717  27.715  -3.942  0.00  0.00     0.002 A 
HETATM    4  C   UNK N   1      25.084  27.513  -5.172  0.00  0.00     0.003 A 
HETATM    5  C   UNK N   1      25.108  26.249  -5.770  0.00  0.00     0.044 A 
HETATM    6  C   UNK N   1      25.765  25.188  -5.137  0.00  0.00     0.142 A 
HETATM    7  F   UNK N   1      25.785  23.965  -5.719  0.00  0.00    -0.204 F 
ENDROOT
BRANCH   1   8
HETATM    8  N   UNK N   1      27.060  24.324  -3.264  0.00  0.00    -0.397 N 
HETATM    9  H   UNK N   1      27.351  23.541  -3.784  0.00  0.00     0.156 HD
HETATM   10  H   UNK N   1      27.232  24.363  -2.294  0.00  0.00     0.156 HD
ENDBRANCH   1   8
TORSDOF 1
ENDMDL
MODEL 7
REMARK VINA RESULT:      -3.9      9.730     10.405
REMARK  1 active torsions:
REMARK  status: ('A' for Active; 'I' for Inactive)
REMARK    1  A    between atoms: N_1  and  C_2 
ROOT
HETATM    1  C   UNK N   1      27.674  19.380   7.144  0.00  0.00     0.064 A 
HETATM    2  C   UNK N   1      28.333  18.549   6.234  0.00  0.00     0.032 A 
HETATM    3  C   UNK N   1      28.367  18.884   4.876  0.00  0.00     0.002 A 
HETATM    4  C   UNK N   1      27.742  20.052   4.427  0.00  0.00     0.003 A 
HETATM    5  C   UNK N   1      27.082  20.884   5.336  0.00  0.00     0.044 A 
HETATM    6  C   UNK N   1      27.047  20.549   6.694  0.00  0.00     0.142 A 
HETATM    7  F   UNK N   1      26.407  21.358   7.572  0.00  0.00    -0.204 F 
ENDROOT
BRANCH   1   8
HETATM    8  N   UNK N   1      27.641  19.039   8.512  0.00  0.00    -0.397 N 
HETATM    9  H   UNK N   1      28.481  18.935   9.013  0.00  0.00     0.156 HD
HETATM   10  H   UNK N   1      26.777  18.904   8.965  0.00  0.00     0.156 HD
ENDBRANCH   1   8
TORSDOF 1
ENDMDL
MODEL 8
REMARK VINA RESULT:      -3.8      1.477      1.897
REMARK  1 active torsions:
REMARK  status: ('A' for Active; 'I' for Inactive)
REMARK    1  A    between atoms: N_1  and  C_2 
ROOT
HETATM    1  C   UNK N   1      22.222  12.945   9.838  0.00  0.00     0.064 A 
HETATM    2  C   UNK N   1      23.490  13.153   9.287  0.00  0.00     0.032 A 
HETATM    3  C   UNK N   1      24.630  12.712   9.966  0.00  0.00     0.002 A 
HETATM    4  C   UNK N   1      24.504  12.062  11.198  0.00  0.00     0.003 A 
HETATM    5  C   UNK N   1      23.237  11.853  11.751  0.00  0.00     0.044 A 
HETATM    6  C   UNK N   1      22.096  12.295  11.071  0.00  0.00     0.142 A 
HETATM    7  F   UNK N   1      20.870  12.090  11.610  0.00  0.00    -0.204 F 
ENDROOT
BRANCH   1   8
HETATM    8  N   UNK N   1      21.075  13.391   9.150  0.00  0.00    -0.397 N 
HETATM    9  H   UNK N   1      20.185  13.277   9.553  0.00  0.00     0.156 HD
HETATM   10  H   UNK N   1      21.165  13.817   8.267  0.00  0.00     0.156 HD
ENDBRANCH   1   8
TORSDOF 1
ENDMDL
MODEL 9
REMARK VINA RESULT:      -3.8     30.160     30.933
REMARK  1 active torsions:
REMARK  status: ('A' for Active; 'I' for Inactive)
REMARK    1  A    between atoms: N_1  and  C_2 
ROOT
HETATM    1  C   UNK N   1      47.490  29.221  17.292  0.00  0.00     0.064 A 
HETATM    2  C   UNK N   1      48.784  29.272  17.819  0.00  0.00     0.032 A 
HETATM    3  C   UNK N   1      48.985  29.666  19.145  0.00  0.00     0.002 A 
HETATM    4  C   UNK N   1      47.893  30.010  19.947  0.00  0.00     0.003 A 
HETATM    5  C   UNK N   1      46.598  29.961  19.422  0.00  0.00     0.044 A 
HETATM    6  C   UNK N   1      46.396  29.566  18.095  0.00  0.00     0.142 A 
HETATM    7  F   UNK N   1      45.140  29.520  17.590  0.00  0.00    -0.204 F 
ENDROOT
BRANCH   1   8
HETATM    8  N   UNK N   1      47.291  28.824  15.954  0.00  0.00    -0.397 N 
HETATM    9  H   UNK N   1      46.716  29.359  15.362  0.00  0.00     0.156 HD
HETATM   10  H   UNK N   1      47.727  28.009  15.612  0.00  0.00     0.156 HD
ENDBRANCH   1   8
TORSDOF 1
ENDMDL
