REMARK  0 active torsions:
REMARK  status: ('A' for Active; 'I' for Inactive)
REMARK       I    between atoms: N_8  and  C_12 
ROOT
HETATM    1  O   UNK N   1      11.927 -10.808  -0.000  0.00  0.00    -0.265 OA
HETATM    2  N   UNK N   1      11.979 -14.799  -0.000  0.00  0.00    -0.174 N 
HETATM    3  N   UNK N   1      14.399 -12.293   0.000  0.00  0.00    -0.345 N 
HETATM    4  N   UNK N   1      14.372 -14.552  -0.000  0.00  0.00    -0.336 N 
ATOM      5  HN  UNK N   1      14.675 -15.526  -0.000  1.00  0.00     0.168 HD
HETATM    6  N   UNK N   1      10.769 -12.749   0.000  0.00  0.00    -0.154 N 
ATOM      7  HN  UNK N   1       9.874 -12.258   0.000  1.00  0.00     0.187 HD
HETATM    8  N   UNK N   1       9.582 -14.847   0.000  0.00  0.00    -0.234 N 
HETATM    9  C   UNK N   1      13.133 -12.733  -0.000  0.00  0.00     0.147 A 
HETATM   10  C   UNK N   1      13.123 -14.077  -0.000  0.00  0.00     0.154 A 
HETATM   11  C   UNK N   1      11.943 -12.026  -0.000  0.00  0.00     0.290 A 
HETATM   12  C   UNK N   1      10.790 -14.124   0.000  0.00  0.00     0.680 A 
HETATM   13  C   UNK N   1      15.145 -13.433   0.000  0.00  0.00     0.182 A 
HETATM   14  H   UNK N   1      12.002 -15.783  -0.000  0.00  0.00     0.186 HD
HETATM   15  H   UNK N   1      14.716 -11.361   0.000  0.00  0.00     0.167 HD
HETATM   16  H   UNK N   1       8.722 -14.367   0.000  0.00  0.00     0.174 HD
HETATM   17  H   UNK N   1       9.597 -15.831   0.000  0.00  0.00     0.174 HD
ENDROOT
TORSDOF 0
