MODEL 1
REMARK VINA RESULT:      -7.0      0.000      0.000
REMARK  15 active torsions:
REMARK  status: ('A' for Active; 'I' for Inactive)
REMARK    1  A    between atoms: C_1  and  N_2 
REMARK    2  A    between atoms: C_4  and  O_9 
REMARK    3  A    between atoms: C_7  and  C_14 
REMARK    4  A    between atoms: C_8  and  O_15 
REMARK    5  A    between atoms: C_14  and  O_17 
REMARK    6  A    between atoms: C_16  and  N_18 
REMARK    7  A    between atoms: O_17  and  P_19 
REMARK    8  A    between atoms: P_19  and  O_20 
REMARK    9  A    between atoms: P_19  and  O_21 
REMARK   10  A    between atoms: O_20  and  P_23 
REMARK   11  A    between atoms: P_23  and  O_24 
REMARK   12  A    between atoms: P_23  and  O_25 
REMARK   13  A    between atoms: O_24  and  P_27 
REMARK   14  A    between atoms: P_27  and  O_28 
REMARK   15  A    between atoms: P_27  and  O_29 
ROOT
HETATM    1  C   UNK N   1      21.774  13.256   7.890  0.00  0.00     0.263 C 
HETATM    2  O   UNK N   1      20.701  14.148   7.978  0.00  0.00    -0.353 OA
HETATM    3  C   UNK N   1      21.296  12.155   6.978  0.00  0.00     0.198 C 
HETATM    4  C   UNK N   1      20.296  14.278   6.637  0.00  0.00     0.180 C 
HETATM    5  C   UNK N   1      20.632  12.982   5.914  0.00  0.00     0.182 C 
ENDROOT
BRANCH   4   6
HETATM    6  C   UNK N   1      21.055  15.434   6.004  0.00  0.00     0.215 C 
BRANCH   6   7
HETATM    7  O   UNK N   1      20.778  16.597   6.728  0.00  0.00    -0.294 OA
BRANCH   7   8
HETATM    8  P   UNK N   1      21.786  17.826   6.022  0.00  0.00     0.401 P 
HETATM    9  O   UNK N   1      20.913  18.659   7.000  0.00  0.00    -0.631 OA
BRANCH   8  10
HETATM   10  O   UNK N   1      21.125  19.036   4.970  0.00  0.00    -0.195 OA
BRANCH  10  11
HETATM   11  P   UNK N   1      21.647  18.604   3.370  0.00  0.00     0.410 P 
HETATM   12  O   UNK N   1      22.899  19.229   4.044  0.00  0.00    -0.631 OA
BRANCH  11  13
HETATM   13  O   UNK N   1      22.079  19.904   2.300  0.00  0.00    -0.195 OA
BRANCH  13  14
HETATM   14  P   UNK N   1      20.599  20.762   1.986  0.00  0.00     0.399 P 
HETATM   15  O   UNK N   1      20.984  20.221   0.582  0.00  0.00    -0.631 OA
BRANCH  14  16
HETATM   16  O   UNK N   1      21.811  21.861   2.564  0.00  0.00    -0.307 OA
HETATM   17  H   UNK N   1      21.800  22.575   3.221  0.00  0.00     0.222 HD
ENDBRANCH  14  16
BRANCH  14  18
HETATM   18  O   UNK N   1      20.636  22.193   1.007  0.00  0.00    -0.307 OA
HETATM   19  H   UNK N   1      19.946  22.875   1.031  0.00  0.00     0.222 HD
ENDBRANCH  14  18
ENDBRANCH  13  14
ENDBRANCH  11  13
BRANCH  11  20
HETATM   20  O   UNK N   1      20.326  19.726   3.246  0.00  0.00    -0.307 OA
HETATM   21  H   UNK N   1      19.445  19.724   2.842  0.00  0.00     0.222 HD
ENDBRANCH  11  20
ENDBRANCH  10  11
ENDBRANCH   8  10
BRANCH   8  22
HETATM   22  O   UNK N   1      20.768  17.188   4.762  0.00  0.00    -0.307 OA
HETATM   23  H   UNK N   1      20.333  17.213   3.895  0.00  0.00     0.222 HD
ENDBRANCH   8  22
ENDBRANCH   7   8
ENDBRANCH   6   7
ENDBRANCH   4   6
BRANCH   5  24
HETATM   24  O   UNK N   1      19.467  12.351   5.481  0.00  0.00    -0.390 OA
HETATM   25  H   UNK N   1      18.788  12.534   4.811  0.00  0.00     0.210 HD
ENDBRANCH   5  24
BRANCH   1  26
HETATM   26  N   UNK N   1      22.301  12.910   9.220  0.00  0.00    -0.280 N 
HETATM   27  C   UNK N   1      23.641  12.932   9.580  0.00  0.00     0.330 A 
HETATM   28  N   UNK N   1      24.007  12.626  10.865  0.00  0.00    -0.295 N 
HETATM   29  O   UNK N   1      24.507  13.224   8.775  0.00  0.00    -0.246 OA
HETATM   30  C   UNK N   1      23.081  12.297  11.799  0.00  0.00     0.103 A 
ATOM     31  HN  UNK N   1      24.994  12.647  11.125  1.00  0.00     0.172 HD
HETATM   32  C   UNK N   1      21.737  12.261  11.458  0.00  0.00     0.065 A 
HETATM   33  C   UNK N   1      21.368  12.576  10.157  0.00  0.00     0.102 A 
BRANCH  30  34
HETATM   34  N   UNK N   1      23.480  11.997  13.115  0.00  0.00    -0.385 N 
HETATM   35  H   UNK N   1      23.446  11.070  13.445  0.00  0.00     0.157 HD
HETATM   36  H   UNK N   1      23.796  12.717  13.709  0.00  0.00     0.157 HD
ENDBRANCH  30  34
ENDBRANCH   1  26
BRANCH   3  37
HETATM   37  O   UNK N   1      22.365  11.445   6.436  0.00  0.00    -0.388 OA
HETATM   38  H   UNK N   1      23.094  11.495   5.798  0.00  0.00     0.210 HD
ENDBRANCH   3  37
TORSDOF 15
ENDMDL
MODEL 2
REMARK VINA RESULT:      -6.9      9.497     12.843
REMARK  15 active torsions:
REMARK  status: ('A' for Active; 'I' for Inactive)
REMARK    1  A    between atoms: C_1  and  N_2 
REMARK    2  A    between atoms: C_4  and  O_9 
REMARK    3  A    between atoms: C_7  and  C_14 
REMARK    4  A    between atoms: C_8  and  O_15 
REMARK    5  A    between atoms: C_14  and  O_17 
REMARK    6  A    between atoms: C_16  and  N_18 
REMARK    7  A    between atoms: O_17  and  P_19 
REMARK    8  A    between atoms: P_19  and  O_20 
REMARK    9  A    between atoms: P_19  and  O_21 
REMARK   10  A    between atoms: O_20  and  P_23 
REMARK   11  A    between atoms: P_23  and  O_24 
REMARK   12  A    between atoms: P_23  and  O_25 
REMARK   13  A    between atoms: O_24  and  P_27 
REMARK   14  A    between atoms: P_27  and  O_28 
REMARK   15  A    between atoms: P_27  and  O_29 
ROOT
HETATM    1  C   UNK N   1      28.783  17.666   7.525  0.00  0.00     0.263 C 
HETATM    2  O   UNK N   1      29.874  16.792   7.489  0.00  0.00    -0.353 OA
HETATM    3  C   UNK N   1      28.200  17.511   8.906  0.00  0.00     0.198 C 
HETATM    4  C   UNK N   1      30.518  17.053   8.712  0.00  0.00     0.180 C 
HETATM    5  C   UNK N   1      29.467  17.508   9.713  0.00  0.00     0.182 C 
ENDROOT
BRANCH   4   6
HETATM    6  C   UNK N   1      31.544  18.157   8.501  0.00  0.00     0.215 C 
BRANCH   6   7
HETATM    7  O   UNK N   1      32.478  17.722   7.558  0.00  0.00    -0.294 OA
BRANCH   7   8
HETATM    8  P   UNK N   1      34.029  18.132   8.227  0.00  0.00     0.401 P 
HETATM    9  O   UNK N   1      34.406  17.763   6.766  0.00  0.00    -0.631 OA
BRANCH   8  10
HETATM   10  O   UNK N   1      35.253  16.925   8.466  0.00  0.00    -0.195 OA
BRANCH  10  11
HETATM   11  P   UNK N   1      34.937  16.239  10.031  0.00  0.00     0.410 P 
HETATM   12  O   UNK N   1      35.735  17.540  10.318  0.00  0.00    -0.631 OA
BRANCH  11  13
HETATM   13  O   UNK N   1      36.309  15.683  10.943  0.00  0.00    -0.195 OA
BRANCH  13  14
HETATM   14  P   UNK N   1      35.648  14.844  12.315  0.00  0.00     0.399 P 
HETATM   15  O   UNK N   1      36.410  13.719  11.563  0.00  0.00    -0.631 OA
BRANCH  14  16
HETATM   16  O   UNK N   1      34.366  15.470  11.326  0.00  0.00    -0.307 OA
HETATM   17  H   UNK N   1      33.907  16.325  11.298  0.00  0.00     0.222 HD
ENDBRANCH  14  16
BRANCH  14  18
HETATM   18  O   UNK N   1      34.428  13.635  12.066  0.00  0.00    -0.307 OA
HETATM   19  H   UNK N   1      33.509  13.736  12.360  0.00  0.00     0.222 HD
ENDBRANCH  14  18
ENDBRANCH  13  14
ENDBRANCH  11  13
BRANCH  11  20
HETATM   20  O   UNK N   1      35.844  15.095   9.088  0.00  0.00    -0.307 OA
HETATM   21  H   UNK N   1      36.736  14.716   9.121  0.00  0.00     0.222 HD
ENDBRANCH  11  20
ENDBRANCH  10  11
ENDBRANCH   8  10
BRANCH   8  22
HETATM   22  O   UNK N   1      33.462  16.701   9.041  0.00  0.00    -0.307 OA
HETATM   23  H   UNK N   1      32.899  15.917   9.137  0.00  0.00     0.222 HD
ENDBRANCH   8  22
ENDBRANCH   7   8
ENDBRANCH   6   7
ENDBRANCH   4   6
BRANCH   5  24
HETATM   24  O   UNK N   1      29.363  16.592  10.758  0.00  0.00    -0.390 OA
HETATM   25  H   UNK N   1      29.098  16.632  11.691  0.00  0.00     0.210 HD
ENDBRANCH   5  24
BRANCH   1  26
HETATM   26  N   UNK N   1      27.910  17.489   6.352  0.00  0.00    -0.280 N 
HETATM   27  C   UNK N   1      27.151  18.490   5.762  0.00  0.00     0.330 A 
HETATM   28  N   UNK N   1      26.405  18.212   4.646  0.00  0.00    -0.295 N 
HETATM   29  O   UNK N   1      27.136  19.621   6.214  0.00  0.00    -0.246 OA
HETATM   30  C   UNK N   1      26.390  16.969   4.104  0.00  0.00     0.103 A 
ATOM     31  HN  UNK N   1      25.851  18.953   4.216  1.00  0.00     0.172 HD
HETATM   32  C   UNK N   1      27.136  15.953   4.682  0.00  0.00     0.065 A 
HETATM   33  C   UNK N   1      27.894  16.238   5.810  0.00  0.00     0.102 A 
BRANCH  30  34
HETATM   34  N   UNK N   1      25.625  16.711   2.951  0.00  0.00    -0.385 N 
HETATM   35  H   UNK N   1      25.684  15.836   2.503  0.00  0.00     0.157 HD
HETATM   36  H   UNK N   1      25.028  17.407   2.591  0.00  0.00     0.157 HD
ENDBRANCH  30  34
ENDBRANCH   1  26
BRANCH   3  37
HETATM   37  O   UNK N   1      27.414  18.609   9.251  0.00  0.00    -0.388 OA
HETATM   38  H   UNK N   1      26.841  18.974   9.943  0.00  0.00     0.210 HD
ENDBRANCH   3  37
TORSDOF 15
ENDMDL
MODEL 3
REMARK VINA RESULT:      -6.8     12.778     14.937
REMARK  15 active torsions:
REMARK  status: ('A' for Active; 'I' for Inactive)
REMARK    1  A    between atoms: C_1  and  N_2 
REMARK    2  A    between atoms: C_4  and  O_9 
REMARK    3  A    between atoms: C_7  and  C_14 
REMARK    4  A    between atoms: C_8  and  O_15 
REMARK    5  A    between atoms: C_14  and  O_17 
REMARK    6  A    between atoms: C_16  and  N_18 
REMARK    7  A    between atoms: O_17  and  P_19 
REMARK    8  A    between atoms: P_19  and  O_20 
REMARK    9  A    between atoms: P_19  and  O_21 
REMARK   10  A    between atoms: O_20  and  P_23 
REMARK   11  A    between atoms: P_23  and  O_24 
REMARK   12  A    between atoms: P_23  and  O_25 
REMARK   13  A    between atoms: O_24  and  P_27 
REMARK   14  A    between atoms: P_27  and  O_28 
REMARK   15  A    between atoms: P_27  and  O_29 
ROOT
HETATM    1  C   UNK N   1      36.089  13.106  14.696  0.00  0.00     0.263 C 
HETATM    2  O   UNK N   1      34.944  13.355  13.932  0.00  0.00    -0.353 OA
HETATM    3  C   UNK N   1      36.795  11.978  13.989  0.00  0.00     0.198 C 
HETATM    4  C   UNK N   1      35.446  13.364  12.618  0.00  0.00     0.180 C 
HETATM    5  C   UNK N   1      36.661  12.450  12.569  0.00  0.00     0.182 C 
ENDROOT
BRANCH   4   6
HETATM    6  C   UNK N   1      35.855  14.785  12.257  0.00  0.00     0.215 C 
BRANCH   6   7
HETATM    7  O   UNK N   1      34.789  15.398  11.593  0.00  0.00    -0.294 OA
BRANCH   7   8
HETATM    8  P   UNK N   1      35.397  15.778  10.008  0.00  0.00     0.401 P 
HETATM    9  O   UNK N   1      36.442  16.476  10.921  0.00  0.00    -0.631 OA
BRANCH   8  10
HETATM   10  O   UNK N   1      35.373  17.403   9.402  0.00  0.00    -0.195 OA
BRANCH  10  11
HETATM   11  P   UNK N   1      34.035  17.471   8.295  0.00  0.00     0.410 P 
HETATM   12  O   UNK N   1      34.930  16.317   7.769  0.00  0.00    -0.631 OA
BRANCH  11  13
HETATM   13  O   UNK N   1      34.385  17.940   6.658  0.00  0.00    -0.195 OA
BRANCH  13  14
HETATM   14  P   UNK N   1      33.375  16.936   5.659  0.00  0.00     0.399 P 
HETATM   15  O   UNK N   1      33.626  18.174   4.755  0.00  0.00    -0.631 OA
BRANCH  14  16
HETATM   16  O   UNK N   1      32.518  17.401   7.095  0.00  0.00    -0.307 OA
HETATM   17  H   UNK N   1      32.771  17.905   7.885  0.00  0.00     0.222 HD
ENDBRANCH  14  16
BRANCH  14  18
HETATM   18  O   UNK N   1      31.773  17.470   5.263  0.00  0.00    -0.307 OA
HETATM   19  H   UNK N   1      31.486  17.673   4.358  0.00  0.00     0.222 HD
ENDBRANCH  14  18
ENDBRANCH  13  14
ENDBRANCH  11  13
BRANCH  11  20
HETATM   20  O   UNK N   1      34.852  19.005   8.285  0.00  0.00    -0.307 OA
HETATM   21  H   UNK N   1      34.629  19.913   8.026  0.00  0.00     0.222 HD
ENDBRANCH  11  20
ENDBRANCH  10  11
ENDBRANCH   8  10
BRANCH   8  22
HETATM   22  O   UNK N   1      33.862  16.579  10.193  0.00  0.00    -0.307 OA
HETATM   23  H   UNK N   1      32.935  16.634  10.472  0.00  0.00     0.222 HD
ENDBRANCH   8  22
ENDBRANCH   7   8
ENDBRANCH   6   7
ENDBRANCH   4   6
BRANCH   5  24
HETATM   24  O   UNK N   1      36.419  11.364  11.729  0.00  0.00    -0.390 OA
HETATM   25  H   UNK N   1      35.648  10.818  11.507  0.00  0.00     0.210 HD
ENDBRANCH   5  24
BRANCH   1  26
HETATM   26  N   UNK N   1      35.765  12.969  16.125  0.00  0.00    -0.280 N 
HETATM   27  C   UNK N   1      35.605  11.766  16.798  0.00  0.00     0.330 A 
HETATM   28  N   UNK N   1      35.341  11.765  18.143  0.00  0.00    -0.295 N 
HETATM   29  O   UNK N   1      35.700  10.700  16.216  0.00  0.00    -0.246 OA
HETATM   30  C   UNK N   1      35.229  12.925  18.835  0.00  0.00     0.103 A 
ATOM     31  HN  UNK N   1      35.228  10.877  18.632  1.00  0.00     0.172 HD
HETATM   32  C   UNK N   1      35.377  14.139  18.182  0.00  0.00     0.065 A 
HETATM   33  C   UNK N   1      35.648  14.137  16.820  0.00  0.00     0.102 A 
BRANCH  30  34
HETATM   34  N   UNK N   1      34.969  12.899  20.219  0.00  0.00    -0.385 N 
HETATM   35  H   UNK N   1      34.578  12.096  20.635  0.00  0.00     0.157 HD
HETATM   36  H   UNK N   1      35.178  13.685  20.773  0.00  0.00     0.157 HD
ENDBRANCH  30  34
ENDBRANCH   1  26
BRANCH   3  37
HETATM   37  O   UNK N   1      38.140  11.918  14.349  0.00  0.00    -0.388 OA
HETATM   38  H   UNK N   1      38.983  12.396  14.307  0.00  0.00     0.210 HD
ENDBRANCH   3  37
TORSDOF 15
ENDMDL
MODEL 4
REMARK VINA RESULT:      -6.6     11.737     15.395
REMARK  15 active torsions:
REMARK  status: ('A' for Active; 'I' for Inactive)
REMARK    1  A    between atoms: C_1  and  N_2 
REMARK    2  A    between atoms: C_4  and  O_9 
REMARK    3  A    between atoms: C_7  and  C_14 
REMARK    4  A    between atoms: C_8  and  O_15 
REMARK    5  A    between atoms: C_14  and  O_17 
REMARK    6  A    between atoms: C_16  and  N_18 
REMARK    7  A    between atoms: O_17  and  P_19 
REMARK    8  A    between atoms: P_19  and  O_20 
REMARK    9  A    between atoms: P_19  and  O_21 
REMARK   10  A    between atoms: O_20  and  P_23 
REMARK   11  A    between atoms: P_23  and  O_24 
REMARK   12  A    between atoms: P_23  and  O_25 
REMARK   13  A    between atoms: O_24  and  P_27 
REMARK   14  A    between atoms: P_27  and  O_28 
REMARK   15  A    between atoms: P_27  and  O_29 
ROOT
HETATM    1  C   UNK N   1      32.801  16.682   7.302  0.00  0.00     0.263 C 
HETATM    2  O   UNK N   1      32.314  15.845   8.311  0.00  0.00    -0.353 OA
HETATM    3  C   UNK N   1      33.666  17.691   8.012  0.00  0.00     0.198 C 
HETATM    4  C   UNK N   1      33.464  15.582   9.076  0.00  0.00     0.180 C 
HETATM    5  C   UNK N   1      34.399  16.776   8.950  0.00  0.00     0.182 C 
ENDROOT
BRANCH   4   6
HETATM    6  C   UNK N   1      34.144  14.335   8.529  0.00  0.00     0.215 C 
BRANCH   6   7
HETATM    7  O   UNK N   1      35.522  14.457   8.729  0.00  0.00    -0.294 OA
BRANCH   7   8
HETATM    8  P   UNK N   1      36.021  12.938   9.412  0.00  0.00     0.401 P 
HETATM    9  O   UNK N   1      34.521  12.669   9.112  0.00  0.00    -0.631 OA
BRANCH   8  10
HETATM   10  O   UNK N   1      35.436  12.411  10.958  0.00  0.00    -0.195 OA
BRANCH  10  11
HETATM   11  P   UNK N   1      35.919  13.640  12.087  0.00  0.00     0.410 P 
HETATM   12  O   UNK N   1      36.627  12.346  12.575  0.00  0.00    -0.631 OA
BRANCH  11  13
HETATM   13  O   UNK N   1      35.369  13.468  13.728  0.00  0.00    -0.195 OA
BRANCH  13  14
HETATM   14  P   UNK N   1      36.808  13.475  14.705  0.00  0.00     0.399 P 
HETATM   15  O   UNK N   1      35.678  13.623  15.761  0.00  0.00    -0.631 OA
BRANCH  14  16
HETATM   16  O   UNK N   1      36.813  14.837  13.630  0.00  0.00    -0.307 OA
HETATM   17  H   UNK N   1      36.393  15.007  12.772  0.00  0.00     0.222 HD
ENDBRANCH  14  16
BRANCH  14  18
HETATM   18  O   UNK N   1      37.249  14.919  15.559  0.00  0.00    -0.307 OA
HETATM   19  H   UNK N   1      37.613  14.919  16.458  0.00  0.00     0.222 HD
ENDBRANCH  14  18
ENDBRANCH  13  14
ENDBRANCH  11  13
BRANCH  11  20
HETATM   20  O   UNK N   1      34.187  13.502  12.115  0.00  0.00    -0.307 OA
HETATM   21  H   UNK N   1      33.438  14.117  12.076  0.00  0.00     0.222 HD
ENDBRANCH  11  20
ENDBRANCH  10  11
ENDBRANCH   8  10
BRANCH   8  22
HETATM   22  O   UNK N   1      36.138  14.146  10.662  0.00  0.00    -0.307 OA
HETATM   23  H   UNK N   1      36.619  14.712  11.285  0.00  0.00     0.222 HD
ENDBRANCH   8  22
ENDBRANCH   7   8
ENDBRANCH   6   7
ENDBRANCH   4   6
BRANCH   5  24
HETATM   24  O   UNK N   1      34.562  17.397  10.187  0.00  0.00    -0.390 OA
HETATM   25  H   UNK N   1      34.375  17.163  11.111  0.00  0.00     0.210 HD
ENDBRANCH   5  24
BRANCH   1  26
HETATM   26  N   UNK N   1      31.719  17.153   6.422  0.00  0.00    -0.280 N 
HETATM   27  C   UNK N   1      31.877  17.550   5.101  0.00  0.00     0.330 A 
HETATM   28  N   UNK N   1      30.784  17.934   4.368  0.00  0.00    -0.295 N 
HETATM   29  O   UNK N   1      32.974  17.561   4.572  0.00  0.00    -0.246 OA
HETATM   30  C   UNK N   1      29.542  17.938   4.912  0.00  0.00     0.103 A 
ATOM     31  HN  UNK N   1      30.907  18.222   3.397  1.00  0.00     0.172 HD
HETATM   32  C   UNK N   1      29.362  17.552   6.232  0.00  0.00     0.065 A 
HETATM   33  C   UNK N   1      30.471  17.159   6.971  0.00  0.00     0.102 A 
BRANCH  30  34
HETATM   34  N   UNK N   1      28.433  18.325   4.136  0.00  0.00    -0.385 N 
HETATM   35  H   UNK N   1      28.498  19.099   3.531  0.00  0.00     0.157 HD
HETATM   36  H   UNK N   1      27.589  17.821   4.198  0.00  0.00     0.157 HD
ENDBRANCH  30  34
ENDBRANCH   1  26
BRANCH   3  37
HETATM   37  O   UNK N   1      34.563  18.297   7.134  0.00  0.00    -0.388 OA
HETATM   38  H   UNK N   1      35.423  18.191   6.698  0.00  0.00     0.210 HD
ENDBRANCH   3  37
TORSDOF 15
ENDMDL
MODEL 5
REMARK VINA RESULT:      -6.6     11.204     13.596
REMARK  15 active torsions:
REMARK  status: ('A' for Active; 'I' for Inactive)
REMARK    1  A    between atoms: C_1  and  N_2 
REMARK    2  A    between atoms: C_4  and  O_9 
REMARK    3  A    between atoms: C_7  and  C_14 
REMARK    4  A    between atoms: C_8  and  O_15 
REMARK    5  A    between atoms: C_14  and  O_17 
REMARK    6  A    between atoms: C_16  and  N_18 
REMARK    7  A    between atoms: O_17  and  P_19 
REMARK    8  A    between atoms: P_19  and  O_20 
REMARK    9  A    between atoms: P_19  and  O_21 
REMARK   10  A    between atoms: O_20  and  P_23 
REMARK   11  A    between atoms: P_23  and  O_24 
REMARK   12  A    between atoms: P_23  and  O_25 
REMARK   13  A    between atoms: O_24  and  P_27 
REMARK   14  A    between atoms: P_27  and  O_28 
REMARK   15  A    between atoms: P_27  and  O_29 
ROOT
HETATM    1  C   UNK N   1      36.056  14.177  12.612  0.00  0.00     0.263 C 
HETATM    2  O   UNK N   1      34.849  14.602  12.046  0.00  0.00    -0.353 OA
HETATM    3  C   UNK N   1      36.647  13.225  11.605  0.00  0.00     0.198 C 
HETATM    4  C   UNK N   1      35.217  14.896  10.721  0.00  0.00     0.180 C 
HETATM    5  C   UNK N   1      36.388  14.000  10.345  0.00  0.00     0.182 C 
ENDROOT
BRANCH   4   6
HETATM    6  C   UNK N   1      35.637  16.356  10.638  0.00  0.00     0.215 C 
BRANCH   6   7
HETATM    7  O   UNK N   1      34.515  17.123  10.314  0.00  0.00    -0.294 OA
BRANCH   7   8
HETATM    8  P   UNK N   1      34.267  16.872   8.611  0.00  0.00     0.401 P 
HETATM    9  O   UNK N   1      34.574  18.394   8.663  0.00  0.00    -0.631 OA
BRANCH   8  10
HETATM   10  O   UNK N   1      32.892  17.544   7.795  0.00  0.00    -0.195 OA
BRANCH  10  11
HETATM   11  P   UNK N   1      31.503  16.783   8.510  0.00  0.00     0.410 P 
HETATM   12  O   UNK N   1      31.525  16.277   7.042  0.00  0.00    -0.631 OA
BRANCH  11  13
HETATM   13  O   UNK N   1      29.943  17.245   7.895  0.00  0.00    -0.195 OA
BRANCH  13  14
HETATM   14  P   UNK N   1      29.294  18.360   9.061  0.00  0.00     0.399 P 
HETATM   15  O   UNK N   1      29.022  16.980   9.721  0.00  0.00    -0.631 OA
BRANCH  14  16
HETATM   16  O   UNK N   1      28.427  18.495   7.563  0.00  0.00    -0.307 OA
HETATM   17  H   UNK N   1      27.497  18.365   7.321  0.00  0.00     0.222 HD
ENDBRANCH  14  16
BRANCH  14  18
HETATM   18  O   UNK N   1      27.584  18.388   9.351  0.00  0.00    -0.307 OA
HETATM   19  H   UNK N   1      27.169  18.913  10.054  0.00  0.00     0.222 HD
ENDBRANCH  14  18
ENDBRANCH  13  14
ENDBRANCH  11  13
BRANCH  11  20
HETATM   20  O   UNK N   1      31.316  18.507   8.617  0.00  0.00    -0.307 OA
HETATM   21  H   UNK N   1      31.329  19.250   7.993  0.00  0.00     0.222 HD
ENDBRANCH  11  20
ENDBRANCH  10  11
ENDBRANCH   8  10
BRANCH   8  22
HETATM   22  O   UNK N   1      32.752  16.576   9.417  0.00  0.00    -0.307 OA
HETATM   23  H   UNK N   1      31.784  16.539   9.469  0.00  0.00     0.222 HD
ENDBRANCH   8  22
ENDBRANCH   7   8
ENDBRANCH   6   7
ENDBRANCH   4   6
BRANCH   5  24
HETATM   24  O   UNK N   1      36.024  13.130   9.319  0.00  0.00    -0.390 OA
HETATM   25  H   UNK N   1      35.861  13.212   8.365  0.00  0.00     0.210 HD
ENDBRANCH   5  24
BRANCH   1  26
HETATM   26  N   UNK N   1      35.872  13.731  14.003  0.00  0.00    -0.280 N 
HETATM   27  C   UNK N   1      36.456  14.320  15.115  0.00  0.00     0.330 A 
HETATM   28  N   UNK N   1      36.179  13.838  16.368  0.00  0.00    -0.295 N 
HETATM   29  O   UNK N   1      37.212  15.268  15.004  0.00  0.00    -0.246 OA
HETATM   30  C   UNK N   1      35.342  12.786  16.545  0.00  0.00     0.103 A 
ATOM     31  HN  UNK N   1      36.609  14.277  17.182  1.00  0.00     0.172 HD
HETATM   32  C   UNK N   1      34.754  12.176  15.446  0.00  0.00     0.065 A 
HETATM   33  C   UNK N   1      35.033  12.670  14.178  0.00  0.00     0.102 A 
BRANCH  30  34
HETATM   34  N   UNK N   1      35.063  12.315  17.842  0.00  0.00    -0.385 N 
HETATM   35  H   UNK N   1      35.679  12.513  18.584  0.00  0.00     0.157 HD
HETATM   36  H   UNK N   1      34.249  11.786  18.008  0.00  0.00     0.157 HD
ENDBRANCH  30  34
ENDBRANCH   1  26
BRANCH   3  37
HETATM   37  O   UNK N   1      38.019  13.070  11.799  0.00  0.00    -0.388 OA
HETATM   38  H   UNK N   1      38.880  13.106  11.355  0.00  0.00     0.210 HD
ENDBRANCH   3  37
TORSDOF 15
ENDMDL
MODEL 6
REMARK VINA RESULT:      -6.6      1.898      3.156
REMARK  15 active torsions:
REMARK  status: ('A' for Active; 'I' for Inactive)
REMARK    1  A    between atoms: C_1  and  N_2 
REMARK    2  A    between atoms: C_4  and  O_9 
REMARK    3  A    between atoms: C_7  and  C_14 
REMARK    4  A    between atoms: C_8  and  O_15 
REMARK    5  A    between atoms: C_14  and  O_17 
REMARK    6  A    between atoms: C_16  and  N_18 
REMARK    7  A    between atoms: O_17  and  P_19 
REMARK    8  A    between atoms: P_19  and  O_20 
REMARK    9  A    between atoms: P_19  and  O_21 
REMARK   10  A    between atoms: O_20  and  P_23 
REMARK   11  A    between atoms: P_23  and  O_24 
REMARK   12  A    between atoms: P_23  and  O_25 
REMARK   13  A    between atoms: O_24  and  P_27 
REMARK   14  A    between atoms: P_27  and  O_28 
REMARK   15  A    between atoms: P_27  and  O_29 
ROOT
HETATM    1  C   UNK N   1      21.158  14.636   8.305  0.00  0.00     0.263 C 
HETATM    2  O   UNK N   1      22.276  14.865   7.497  0.00  0.00    -0.353 OA
HETATM    3  C   UNK N   1      20.563  15.999   8.549  0.00  0.00     0.198 C 
HETATM    4  C   UNK N   1      21.779  15.756   6.528  0.00  0.00     0.180 C 
HETATM    5  C   UNK N   1      20.656  16.564   7.161  0.00  0.00     0.182 C 
ENDROOT
BRANCH   4   6
HETATM    6  C   UNK N   1      21.238  14.953   5.353  0.00  0.00     0.215 C 
BRANCH   6   7
HETATM    7  O   UNK N   1      19.917  15.344   5.120  0.00  0.00    -0.294 OA
BRANCH   7   8
HETATM    8  P   UNK N   1      19.644  15.044   3.429  0.00  0.00     0.401 P 
HETATM    9  O   UNK N   1      21.127  14.609   3.589  0.00  0.00    -0.631 OA
BRANCH   8  10
HETATM   10  O   UNK N   1      20.431  15.993   2.208  0.00  0.00    -0.195 OA
BRANCH  10  11
HETATM   11  P   UNK N   1      20.257  17.646   2.714  0.00  0.00     0.410 P 
HETATM   12  O   UNK N   1      19.881  17.647   1.208  0.00  0.00    -0.631 OA
BRANCH  11  13
HETATM   13  O   UNK N   1      21.353  18.806   2.021  0.00  0.00    -0.195 OA
BRANCH  13  14
HETATM   14  P   UNK N   1      20.622  20.360   2.297  0.00  0.00     0.399 P 
HETATM   15  O   UNK N   1      21.434  20.591   0.993  0.00  0.00    -0.631 OA
BRANCH  14  16
HETATM   16  O   UNK N   1      21.687  19.961   3.609  0.00  0.00    -0.307 OA
HETATM   17  H   UNK N   1      22.252  20.495   4.190  0.00  0.00     0.222 HD
ENDBRANCH  14  16
BRANCH  14  18
HETATM   18  O   UNK N   1      21.630  21.715   2.692  0.00  0.00    -0.307 OA
HETATM   19  H   UNK N   1      21.288  22.611   2.838  0.00  0.00     0.222 HD
ENDBRANCH  14  18
ENDBRANCH  13  14
ENDBRANCH  11  13
BRANCH  11  20
HETATM   20  O   UNK N   1      21.898  17.143   2.990  0.00  0.00    -0.307 OA
HETATM   21  H   UNK N   1      22.759  17.320   2.582  0.00  0.00     0.222 HD
ENDBRANCH  11  20
ENDBRANCH  10  11
ENDBRANCH   8  10
BRANCH   8  22
HETATM   22  O   UNK N   1      19.531  16.762   3.687  0.00  0.00    -0.307 OA
HETATM   23  H   UNK N   1      19.639  17.576   4.204  0.00  0.00     0.222 HD
ENDBRANCH   8  22
ENDBRANCH   7   8
ENDBRANCH   6   7
ENDBRANCH   4   6
BRANCH   5  24
HETATM   24  O   UNK N   1      21.003  17.913   7.220  0.00  0.00    -0.390 OA
HETATM   25  H   UNK N   1      21.563  18.461   7.793  0.00  0.00     0.210 HD
ENDBRANCH   5  24
BRANCH   1  26
HETATM   26  N   UNK N   1      21.489  13.779   9.455  0.00  0.00    -0.280 N 
HETATM   27  C   UNK N   1      20.568  13.230  10.336  0.00  0.00     0.330 A 
HETATM   28  N   UNK N   1      20.996  12.414  11.351  0.00  0.00    -0.295 N 
HETATM   29  O   UNK N   1      19.376  13.456  10.225  0.00  0.00    -0.246 OA
HETATM   30  C   UNK N   1      22.311  12.131  11.515  0.00  0.00     0.103 A 
ATOM     31  HN  UNK N   1      20.313  12.011  11.993  1.00  0.00     0.172 HD
HETATM   32  C   UNK N   1      23.250  12.674  10.651  0.00  0.00     0.065 A 
HETATM   33  C   UNK N   1      22.813  13.498   9.621  0.00  0.00     0.102 A 
BRANCH  30  34
HETATM   34  N   UNK N   1      22.726  11.280  12.557  0.00  0.00    -0.385 N 
HETATM   35  H   UNK N   1      23.169  10.425  12.353  0.00  0.00     0.157 HD
HETATM   36  H   UNK N   1      22.572  11.540  13.494  0.00  0.00     0.157 HD
ENDBRANCH  30  34
ENDBRANCH   1  26
BRANCH   3  37
HETATM   37  O   UNK N   1      19.229  15.907   8.941  0.00  0.00    -0.388 OA
HETATM   38  H   UNK N   1      18.463  15.313   8.974  0.00  0.00     0.210 HD
ENDBRANCH   3  37
TORSDOF 15
ENDMDL
MODEL 7
REMARK VINA RESULT:      -6.5      5.161      8.713
REMARK  15 active torsions:
REMARK  status: ('A' for Active; 'I' for Inactive)
REMARK    1  A    between atoms: C_1  and  N_2 
REMARK    2  A    between atoms: C_4  and  O_9 
REMARK    3  A    between atoms: C_7  and  C_14 
REMARK    4  A    between atoms: C_8  and  O_15 
REMARK    5  A    between atoms: C_14  and  O_17 
REMARK    6  A    between atoms: C_16  and  N_18 
REMARK    7  A    between atoms: O_17  and  P_19 
REMARK    8  A    between atoms: P_19  and  O_20 
REMARK    9  A    between atoms: P_19  and  O_21 
REMARK   10  A    between atoms: O_20  and  P_23 
REMARK   11  A    between atoms: P_23  and  O_24 
REMARK   12  A    between atoms: P_23  and  O_25 
REMARK   13  A    between atoms: O_24  and  P_27 
REMARK   14  A    between atoms: P_27  and  O_28 
REMARK   15  A    between atoms: P_27  and  O_29 
ROOT
HETATM    1  C   UNK N   1      21.706  18.635   3.853  0.00  0.00     0.263 C 
HETATM    2  O   UNK N   1      21.618  17.327   3.364  0.00  0.00    -0.353 OA
HETATM    3  C   UNK N   1      20.636  19.401   3.118  0.00  0.00     0.198 C 
HETATM    4  C   UNK N   1      20.234  17.081   3.390  0.00  0.00     0.180 C 
HETATM    5  C   UNK N   1      19.514  18.408   3.204  0.00  0.00     0.182 C 
ENDROOT
BRANCH   4   6
HETATM    6  C   UNK N   1      19.866  16.479   4.738  0.00  0.00     0.215 C 
BRANCH   6   7
HETATM    7  O   UNK N   1      20.987  15.820   5.251  0.00  0.00    -0.294 OA
BRANCH   7   8
HETATM    8  P   UNK N   1      20.374  14.353   5.954  0.00  0.00     0.401 P 
HETATM    9  O   UNK N   1      19.199  15.337   6.207  0.00  0.00    -0.631 OA
BRANCH   8  10
HETATM   10  O   UNK N   1      20.144  14.203   7.667  0.00  0.00    -0.195 OA
BRANCH  10  11
HETATM   11  P   UNK N   1      21.616  13.513   8.279  0.00  0.00     0.410 P 
HETATM   12  O   UNK N   1      20.850  12.321   7.644  0.00  0.00    -0.631 OA
BRANCH  11  13
HETATM   13  O   UNK N   1      21.473  12.376   9.587  0.00  0.00    -0.195 OA
BRANCH  13  14
HETATM   14  P   UNK N   1      23.103  11.913   9.983  0.00  0.00     0.399 P 
HETATM   15  O   UNK N   1      22.551  12.414  11.345  0.00  0.00    -0.631 OA
BRANCH  14  16
HETATM   16  O   UNK N   1      23.116  13.206   8.823  0.00  0.00    -0.307 OA
HETATM   17  H   UNK N   1      23.825  13.645   8.328  0.00  0.00     0.222 HD
ENDBRANCH  14  16
BRANCH  14  18
HETATM   18  O   UNK N   1      24.244  13.134  10.449  0.00  0.00    -0.307 OA
HETATM   19  H   UNK N   1      24.764  13.650   9.813  0.00  0.00     0.222 HD
ENDBRANCH  14  18
ENDBRANCH  13  14
ENDBRANCH  11  13
BRANCH  11  20
HETATM   20  O   UNK N   1      20.746  14.239   9.596  0.00  0.00    -0.307 OA
HETATM   21  H   UNK N   1      20.047  13.960  10.208  0.00  0.00     0.222 HD
ENDBRANCH  11  20
ENDBRANCH  10  11
ENDBRANCH   8  10
BRANCH   8  22
HETATM   22  O   UNK N   1      21.746  14.859   6.897  0.00  0.00    -0.307 OA
HETATM   23  H   UNK N   1      22.179  15.193   7.699  0.00  0.00     0.222 HD
ENDBRANCH   8  22
ENDBRANCH   7   8
ENDBRANCH   6   7
ENDBRANCH   4   6
BRANCH   5  24
HETATM   24  O   UNK N   1      18.790  18.405   2.013  0.00  0.00    -0.390 OA
HETATM   25  H   UNK N   1      18.706  17.806   1.254  0.00  0.00     0.210 HD
ENDBRANCH   5  24
BRANCH   1  26
HETATM   26  N   UNK N   1      23.093  19.129   3.826  0.00  0.00    -0.280 N 
HETATM   27  C   UNK N   1      23.550  20.187   3.054  0.00  0.00     0.330 A 
HETATM   28  N   UNK N   1      24.860  20.582   3.144  0.00  0.00    -0.295 N 
HETATM   29  O   UNK N   1      22.807  20.783   2.295  0.00  0.00    -0.246 OA
HETATM   30  C   UNK N   1      25.726  19.952   3.976  0.00  0.00     0.103 A 
ATOM     31  HN  UNK N   1      25.189  21.363   2.576  1.00  0.00     0.172 HD
HETATM   32  C   UNK N   1      25.292  18.887   4.751  0.00  0.00     0.065 A 
HETATM   33  C   UNK N   1      23.963  18.492   4.661  0.00  0.00     0.102 A 
BRANCH  30  34
HETATM   34  N   UNK N   1      27.064  20.382   4.059  0.00  0.00    -0.385 N 
HETATM   35  H   UNK N   1      27.405  21.065   3.437  0.00  0.00     0.157 HD
HETATM   36  H   UNK N   1      27.662  20.000   4.742  0.00  0.00     0.157 HD
ENDBRANCH  30  34
ENDBRANCH   1  26
BRANCH   3  37
HETATM   37  O   UNK N   1      20.296  20.571   3.795  0.00  0.00    -0.388 OA
HETATM   38  H   UNK N   1      19.853  20.915   4.586  0.00  0.00     0.210 HD
ENDBRANCH   3  37
TORSDOF 15
ENDMDL
MODEL 8
REMARK VINA RESULT:      -6.4     11.267     14.985
REMARK  15 active torsions:
REMARK  status: ('A' for Active; 'I' for Inactive)
REMARK    1  A    between atoms: C_1  and  N_2 
REMARK    2  A    between atoms: C_4  and  O_9 
REMARK    3  A    between atoms: C_7  and  C_14 
REMARK    4  A    between atoms: C_8  and  O_15 
REMARK    5  A    between atoms: C_14  and  O_17 
REMARK    6  A    between atoms: C_16  and  N_18 
REMARK    7  A    between atoms: O_17  and  P_19 
REMARK    8  A    between atoms: P_19  and  O_20 
REMARK    9  A    between atoms: P_19  and  O_21 
REMARK   10  A    between atoms: O_20  and  P_23 
REMARK   11  A    between atoms: P_23  and  O_24 
REMARK   12  A    between atoms: P_23  and  O_25 
REMARK   13  A    between atoms: O_24  and  P_27 
REMARK   14  A    between atoms: P_27  and  O_28 
REMARK   15  A    between atoms: P_27  and  O_29 
ROOT
HETATM    1  C   UNK N   1      32.037  16.698   7.688  0.00  0.00     0.263 C 
HETATM    2  O   UNK N   1      32.825  17.807   8.018  0.00  0.00    -0.353 OA
HETATM    3  C   UNK N   1      32.847  15.929   6.676  0.00  0.00     0.198 C 
HETATM    4  C   UNK N   1      34.096  17.236   8.209  0.00  0.00     0.180 C 
HETATM    5  C   UNK N   1      34.197  15.999   7.329  0.00  0.00     0.182 C 
ENDROOT
BRANCH   4   6
HETATM    6  C   UNK N   1      34.243  16.842   9.672  0.00  0.00     0.215 C 
BRANCH   6   7
HETATM    7  O   UNK N   1      35.536  17.164  10.090  0.00  0.00    -0.294 OA
BRANCH   7   8
HETATM    8  P   UNK N   1      36.007  15.871  11.154  0.00  0.00     0.401 P 
HETATM    9  O   UNK N   1      36.664  15.431   9.816  0.00  0.00    -0.631 OA
BRANCH   8  10
HETATM   10  O   UNK N   1      35.377  14.267  10.955  0.00  0.00    -0.195 OA
BRANCH  10  11
HETATM   11  P   UNK N   1      35.878  13.387  12.367  0.00  0.00     0.410 P 
HETATM   12  O   UNK N   1      34.331  13.260  12.345  0.00  0.00    -0.631 OA
BRANCH  11  13
HETATM   13  O   UNK N   1      35.395  14.025  13.911  0.00  0.00    -0.195 OA
BRANCH  13  14
HETATM   14  P   UNK N   1      36.252  13.080  15.094  0.00  0.00     0.399 P 
HETATM   15  O   UNK N   1      36.858  14.497  15.285  0.00  0.00    -0.631 OA
BRANCH  14  16
HETATM   16  O   UNK N   1      36.593  12.487  13.498  0.00  0.00    -0.307 OA
HETATM   17  H   UNK N   1      36.279  11.719  12.995  0.00  0.00     0.222 HD
ENDBRANCH  14  16
BRANCH  14  18
HETATM   18  O   UNK N   1      37.954  12.813  14.898  0.00  0.00    -0.307 OA
HETATM   19  H   UNK N   1      38.610  13.021  15.582  0.00  0.00     0.222 HD
ENDBRANCH  14  18
ENDBRANCH  13  14
ENDBRANCH  11  13
BRANCH  11  20
HETATM   20  O   UNK N   1      36.409  15.035  12.514  0.00  0.00    -0.307 OA
HETATM   21  H   UNK N   1      37.188  15.544  12.240  0.00  0.00     0.222 HD
ENDBRANCH  11  20
ENDBRANCH  10  11
ENDBRANCH   8  10
BRANCH   8  22
HETATM   22  O   UNK N   1      34.276  15.809  10.980  0.00  0.00    -0.307 OA
HETATM   23  H   UNK N   1      33.448  15.463  10.611  0.00  0.00     0.222 HD
ENDBRANCH   8  22
ENDBRANCH   7   8
ENDBRANCH   6   7
ENDBRANCH   4   6
BRANCH   5  24
HETATM   24  O   UNK N   1      35.185  16.171   6.361  0.00  0.00    -0.390 OA
HETATM   25  H   UNK N   1      35.270  16.683   5.541  0.00  0.00     0.210 HD
ENDBRANCH   5  24
BRANCH   1  26
HETATM   26  N   UNK N   1      30.659  17.094   7.357  0.00  0.00    -0.280 N 
HETATM   27  C   UNK N   1      29.652  17.336   8.281  0.00  0.00     0.330 A 
HETATM   28  N   UNK N   1      28.414  17.738   7.852  0.00  0.00    -0.295 N 
HETATM   29  O   UNK N   1      29.847  17.203   9.476  0.00  0.00    -0.246 OA
HETATM   30  C   UNK N   1      28.148  17.902   6.532  0.00  0.00     0.103 A 
ATOM     31  HN  UNK N   1      27.679  17.917   8.537  1.00  0.00     0.172 HD
HETATM   32  C   UNK N   1      29.137  17.658   5.591  0.00  0.00     0.065 A 
HETATM   33  C   UNK N   1      30.393  17.255   6.029  0.00  0.00     0.102 A 
BRANCH  30  34
HETATM   34  N   UNK N   1      26.872  18.326   6.116  0.00  0.00    -0.385 N 
HETATM   35  H   UNK N   1      26.671  19.287   6.035  0.00  0.00     0.157 HD
HETATM   36  H   UNK N   1      26.177  17.661   5.905  0.00  0.00     0.157 HD
ENDBRANCH  30  34
ENDBRANCH   1  26
BRANCH   3  37
HETATM   37  O   UNK N   1      32.423  14.604   6.590  0.00  0.00    -0.388 OA
HETATM   38  H   UNK N   1      32.731  13.690   6.488  0.00  0.00     0.210 HD
ENDBRANCH   3  37
TORSDOF 15
ENDMDL
MODEL 9
REMARK VINA RESULT:      -6.4     11.316     15.170
REMARK  15 active torsions:
REMARK  status: ('A' for Active; 'I' for Inactive)
REMARK    1  A    between atoms: C_1  and  N_2 
REMARK    2  A    between atoms: C_4  and  O_9 
REMARK    3  A    between atoms: C_7  and  C_14 
REMARK    4  A    between atoms: C_8  and  O_15 
REMARK    5  A    between atoms: C_14  and  O_17 
REMARK    6  A    between atoms: C_16  and  N_18 
REMARK    7  A    between atoms: O_17  and  P_19 
REMARK    8  A    between atoms: P_19  and  O_20 
REMARK    9  A    between atoms: P_19  and  O_21 
REMARK   10  A    between atoms: O_20  and  P_23 
REMARK   11  A    between atoms: P_23  and  O_24 
REMARK   12  A    between atoms: P_23  and  O_25 
REMARK   13  A    between atoms: O_24  and  P_27 
REMARK   14  A    between atoms: P_27  and  O_28 
REMARK   15  A    between atoms: P_27  and  O_29 
ROOT
HETATM    1  C   UNK N   1      32.534  16.857   7.266  0.00  0.00     0.263 C 
HETATM    2  O   UNK N   1      32.353  17.054   8.639  0.00  0.00    -0.353 OA
HETATM    3  C   UNK N   1      33.510  17.924   6.842  0.00  0.00     0.198 C 
HETATM    4  C   UNK N   1      33.669  17.227   9.102  0.00  0.00     0.180 C 
HETATM    5  C   UNK N   1      34.493  17.828   7.973  0.00  0.00     0.182 C 
ENDROOT
BRANCH   4   6
HETATM    6  C   UNK N   1      34.237  15.869   9.489  0.00  0.00     0.215 C 
BRANCH   6   7
HETATM    7  O   UNK N   1      35.626  15.982   9.591  0.00  0.00    -0.294 OA
BRANCH   7   8
HETATM    8  P   UNK N   1      36.163  14.455  10.227  0.00  0.00     0.401 P 
HETATM    9  O   UNK N   1      34.867  14.699  11.048  0.00  0.00    -0.631 OA
BRANCH   8  10
HETATM   10  O   UNK N   1      36.739  14.313  11.857  0.00  0.00    -0.195 OA
BRANCH  10  11
HETATM   11  P   UNK N   1      35.545  13.371  12.697  0.00  0.00     0.410 P 
HETATM   12  O   UNK N   1      36.428  13.986  13.816  0.00  0.00    -0.631 OA
BRANCH  11  13
HETATM   13  O   UNK N   1      36.109  11.984  13.581  0.00  0.00    -0.195 OA
BRANCH  13  14
HETATM   14  P   UNK N   1      34.675  11.166  14.129  0.00  0.00     0.399 P 
HETATM   15  O   UNK N   1      35.369  10.088  13.252  0.00  0.00    -0.631 OA
BRANCH  14  16
HETATM   16  O   UNK N   1      34.242  12.543  13.164  0.00  0.00    -0.307 OA
HETATM   17  H   UNK N   1      33.391  12.926  12.900  0.00  0.00     0.222 HD
ENDBRANCH  14  16
BRANCH  14  18
HETATM   18  O   UNK N   1      33.448  10.739  12.980  0.00  0.00    -0.307 OA
HETATM   19  H   UNK N   1      33.636  10.301  12.135  0.00  0.00     0.222 HD
ENDBRANCH  14  18
ENDBRANCH  13  14
ENDBRANCH  11  13
BRANCH  11  20
HETATM   20  O   UNK N   1      36.443  12.326  11.639  0.00  0.00    -0.307 OA
HETATM   21  H   UNK N   1      37.023  11.556  11.746  0.00  0.00     0.222 HD
ENDBRANCH  11  20
ENDBRANCH  10  11
ENDBRANCH   8  10
BRANCH   8  22
HETATM   22  O   UNK N   1      37.343  15.657  10.667  0.00  0.00    -0.307 OA
HETATM   23  H   UNK N   1      37.926  16.413  10.492  0.00  0.00     0.222 HD
ENDBRANCH   8  22
ENDBRANCH   7   8
ENDBRANCH   6   7
ENDBRANCH   4   6
BRANCH   5  24
HETATM   24  O   UNK N   1      34.941  19.101   8.323  0.00  0.00    -0.390 OA
HETATM   25  H   UNK N   1      35.191  19.905   7.840  0.00  0.00     0.210 HD
ENDBRANCH   5  24
BRANCH   1  26
HETATM   26  N   UNK N   1      31.246  16.739   6.563  0.00  0.00    -0.280 N 
HETATM   27  C   UNK N   1      31.056  16.103   5.344  0.00  0.00     0.330 A 
HETATM   28  N   UNK N   1      29.798  16.024   4.804  0.00  0.00    -0.295 N 
HETATM   29  O   UNK N   1      31.988  15.605   4.739  0.00  0.00    -0.246 OA
HETATM   30  C   UNK N   1      28.728  16.560   5.440  0.00  0.00     0.103 A 
ATOM     31  HN  UNK N   1      29.665  15.552   3.909  1.00  0.00     0.172 HD
HETATM   32  C   UNK N   1      28.896  17.207   6.656  0.00  0.00     0.065 A 
HETATM   33  C   UNK N   1      30.171  17.282   7.202  0.00  0.00     0.102 A 
BRANCH  30  34
HETATM   34  N   UNK N   1      27.444  16.456   4.872  0.00  0.00    -0.385 N 
HETATM   35  H   UNK N   1      26.674  16.200   5.430  0.00  0.00     0.157 HD
HETATM   36  H   UNK N   1      27.314  16.641   3.913  0.00  0.00     0.157 HD
ENDBRANCH  30  34
ENDBRANCH   1  26
BRANCH   3  37
HETATM   37  O   UNK N   1      34.130  17.594   5.638  0.00  0.00    -0.388 OA
HETATM   38  H   UNK N   1      34.306  17.908   4.738  0.00  0.00     0.210 HD
ENDBRANCH   3  37
TORSDOF 15
ENDMDL
