MODEL 1
REMARK VINA RESULT:      -5.2      0.000      0.000
REMARK  8 active torsions:
REMARK  status: ('A' for Active; 'I' for Inactive)
REMARK    1  A    between atoms: C_2  and  C_1 
REMARK    2  A    between atoms: C_3  and  C_1 
REMARK    3  A    between atoms: C_4  and  C_2 
REMARK    4  A    between atoms: C_2  and  C_5 
REMARK    5  A    between atoms: O_8  and  C_3 
REMARK    6  A    between atoms: C_6  and  C_4 
REMARK    7  A    between atoms: O_11  and  C_5 
REMARK    8  A    between atoms: O_12  and  C_6 
ROOT
HETATM    1  C   UNK N   1      34.084  17.127   9.007  0.00  0.00     0.174 C 
ENDROOT
BRANCH   1   2
HETATM    2  C   UNK N   1      35.190  16.070   9.200  0.00  0.00     0.133 C 
BRANCH   2   3
HETATM    3  C   UNK N   1      35.718  15.983  10.607  0.00  0.00     0.140 C 
HETATM    4  O   UNK N   1      34.947  15.771  11.527  0.00  0.00    -0.650 OA
BRANCH   3   5
HETATM    5  O   UNK N   1      37.033  16.119  10.862  0.00  0.00    -0.776 OA
HETATM    6  H   UNK N   1      37.591  16.584  10.271  0.00  0.00     0.167 HD
ENDBRANCH   3   5
ENDBRANCH   2   3
ENDBRANCH   1   2
BRANCH   1   7
HETATM    7  C   UNK N   1      32.770  16.362   8.745  0.00  0.00     0.236 C 
HETATM    8  O   UNK N   1      32.049  16.813   7.866  0.00  0.00    -0.285 OA
BRANCH   7   9
HETATM    9  C   UNK N   1      32.296  15.100   9.392  0.00  0.00     0.214 C 
HETATM   10  O   UNK N   1      32.122  14.072   8.771  0.00  0.00    -0.644 OA
BRANCH   9  11
HETATM   11  O   UNK N   1      31.983  15.123  10.704  0.00  0.00    -0.771 OA
HETATM   12  H   UNK N   1      31.715  15.925  11.108  0.00  0.00     0.167 HD
ENDBRANCH   9  11
ENDBRANCH   7   9
ENDBRANCH   1   7
BRANCH   1  13
HETATM   13  C   UNK N   1      34.614  18.203   8.059  0.00  0.00     0.152 C 
HETATM   14  O   UNK N   1      35.236  19.146   8.520  0.00  0.00    -0.649 OA
BRANCH  13  15
HETATM   15  O   UNK N   1      34.457  18.142   6.730  0.00  0.00    -0.776 OA
HETATM   16  H   UNK N   1      34.376  18.900   6.185  0.00  0.00     0.167 HD
ENDBRANCH  13  15
ENDBRANCH   1  13
TORSDOF 8
ENDMDL
MODEL 2
REMARK VINA RESULT:      -4.8     13.628     15.703
REMARK  8 active torsions:
REMARK  status: ('A' for Active; 'I' for Inactive)
REMARK    1  A    between atoms: C_2  and  C_1 
REMARK    2  A    between atoms: C_3  and  C_1 
REMARK    3  A    between atoms: C_4  and  C_2 
REMARK    4  A    between atoms: C_2  and  C_5 
REMARK    5  A    between atoms: O_8  and  C_3 
REMARK    6  A    between atoms: C_6  and  C_4 
REMARK    7  A    between atoms: O_11  and  C_5 
REMARK    8  A    between atoms: O_12  and  C_6 
ROOT
HETATM    1  C   UNK N   1      21.204  19.081   2.437  0.00  0.00     0.174 C 
ENDROOT
BRANCH   1   2
HETATM    2  C   UNK N   1      20.343  20.344   2.234  0.00  0.00     0.133 C 
BRANCH   2   3
HETATM    3  C   UNK N   1      20.678  21.122   0.990  0.00  0.00     0.140 C 
HETATM    4  O   UNK N   1      21.148  20.541   0.026  0.00  0.00    -0.650 OA
BRANCH   3   5
HETATM    5  O   UNK N   1      20.449  22.446   0.919  0.00  0.00    -0.776 OA
HETATM    6  H   UNK N   1      20.203  22.932   1.681  0.00  0.00     0.167 HD
ENDBRANCH   3   5
ENDBRANCH   2   3
ENDBRANCH   1   2
BRANCH   1   7
HETATM    7  C   UNK N   1      20.275  17.865   2.232  0.00  0.00     0.236 C 
HETATM    8  O   UNK N   1      19.609  17.524   3.200  0.00  0.00    -0.285 OA
BRANCH   7   9
HETATM    9  C   UNK N   1      20.042  17.088   0.976  0.00  0.00     0.214 C 
HETATM   10  O   UNK N   1      19.690  15.927   0.981  0.00  0.00    -0.644 OA
BRANCH   9  11
HETATM   11  O   UNK N   1      20.304  17.678  -0.208  0.00  0.00    -0.771 OA
HETATM   12  H   UNK N   1      20.322  17.167  -0.994  0.00  0.00     0.167 HD
ENDBRANCH   9  11
ENDBRANCH   7   9
ENDBRANCH   1   7
BRANCH   1  13
HETATM   13  C   UNK N   1      22.041  19.272   3.701  0.00  0.00     0.152 C 
HETATM   14  O   UNK N   1      23.046  19.963   3.648  0.00  0.00    -0.649 OA
BRANCH  13  15
HETATM   15  O   UNK N   1      21.704  18.741   4.884  0.00  0.00    -0.776 OA
HETATM   16  H   UNK N   1      21.983  17.893   5.167  0.00  0.00     0.167 HD
ENDBRANCH  13  15
ENDBRANCH   1  13
TORSDOF 8
ENDMDL
MODEL 3
REMARK VINA RESULT:      -4.8      0.939      3.727
REMARK  8 active torsions:
REMARK  status: ('A' for Active; 'I' for Inactive)
REMARK    1  A    between atoms: C_2  and  C_1 
REMARK    2  A    between atoms: C_3  and  C_1 
REMARK    3  A    between atoms: C_4  and  C_2 
REMARK    4  A    between atoms: C_2  and  C_5 
REMARK    5  A    between atoms: O_8  and  C_3 
REMARK    6  A    between atoms: C_6  and  C_4 
REMARK    7  A    between atoms: O_11  and  C_5 
REMARK    8  A    between atoms: O_12  and  C_6 
ROOT
HETATM    1  C   UNK N   1      33.610  15.857   9.102  0.00  0.00     0.174 C 
ENDROOT
BRANCH   1   2
HETATM    2  C   UNK N   1      34.510  16.007  10.345  0.00  0.00     0.133 C 
BRANCH   2   3
HETATM    3  C   UNK N   1      35.931  15.558  10.131  0.00  0.00     0.140 C 
HETATM    4  O   UNK N   1      36.173  14.709   9.289  0.00  0.00    -0.650 OA
BRANCH   3   5
HETATM    5  O   UNK N   1      36.940  16.093  10.842  0.00  0.00    -0.776 OA
HETATM    6  H   UNK N   1      36.929  16.075  11.779  0.00  0.00     0.167 HD
ENDBRANCH   3   5
ENDBRANCH   2   3
ENDBRANCH   1   2
BRANCH   1   7
HETATM    7  C   UNK N   1      33.377  17.276   8.540  0.00  0.00     0.236 C 
HETATM    8  O   UNK N   1      32.278  17.768   8.752  0.00  0.00    -0.285 OA
BRANCH   7   9
HETATM    9  C   UNK N   1      34.353  18.150   7.818  0.00  0.00     0.214 C 
HETATM   10  O   UNK N   1      34.984  19.024   8.375  0.00  0.00    -0.644 OA
BRANCH   9  11
HETATM   11  O   UNK N   1      34.485  18.008   6.483  0.00  0.00    -0.771 OA
HETATM   12  H   UNK N   1      34.278  17.190   6.075  0.00  0.00     0.167 HD
ENDBRANCH   9  11
ENDBRANCH   7   9
ENDBRANCH   1   7
BRANCH   1  13
HETATM   13  C   UNK N   1      32.461  14.914   9.457  0.00  0.00     0.152 C 
HETATM   14  O   UNK N   1      32.343  13.865   8.844  0.00  0.00    -0.649 OA
BRANCH  13  15
HETATM   15  O   UNK N   1      31.588  15.170  10.441  0.00  0.00    -0.776 OA
HETATM   16  H   UNK N   1      31.597  14.726  11.266  0.00  0.00     0.167 HD
ENDBRANCH  13  15
ENDBRANCH   1  13
TORSDOF 8
ENDMDL
MODEL 4
REMARK VINA RESULT:      -4.8      1.152      3.459
REMARK  8 active torsions:
REMARK  status: ('A' for Active; 'I' for Inactive)
REMARK    1  A    between atoms: C_2  and  C_1 
REMARK    2  A    between atoms: C_3  and  C_1 
REMARK    3  A    between atoms: C_4  and  C_2 
REMARK    4  A    between atoms: C_2  and  C_5 
REMARK    5  A    between atoms: O_8  and  C_3 
REMARK    6  A    between atoms: C_6  and  C_4 
REMARK    7  A    between atoms: O_11  and  C_5 
REMARK    8  A    between atoms: O_12  and  C_6 
ROOT
HETATM    1  C   UNK N   1      34.202  16.733   8.570  0.00  0.00     0.174 C 
ENDROOT
BRANCH   1   2
HETATM    2  C   UNK N   1      32.671  16.603   8.704  0.00  0.00     0.133 C 
BRANCH   2   3
HETATM    3  C   UNK N   1      32.091  15.415   7.985  0.00  0.00     0.140 C 
HETATM    4  O   UNK N   1      32.191  14.305   8.478  0.00  0.00    -0.650 OA
BRANCH   3   5
HETATM    5  O   UNK N   1      31.446  15.564   6.812  0.00  0.00    -0.776 OA
HETATM    6  H   UNK N   1      31.317  16.414   6.441  0.00  0.00     0.167 HD
ENDBRANCH   3   5
ENDBRANCH   2   3
ENDBRANCH   1   2
BRANCH   1   7
HETATM    7  C   UNK N   1      34.803  16.444   9.962  0.00  0.00     0.236 C 
HETATM    8  O   UNK N   1      35.452  17.348  10.469  0.00  0.00    -0.285 OA
BRANCH   7   9
HETATM    9  C   UNK N   1      34.638  15.214  10.797  0.00  0.00     0.214 C 
HETATM   10  O   UNK N   1      35.554  14.449  11.022  0.00  0.00    -0.644 OA
BRANCH   9  11
HETATM   11  O   UNK N   1      33.409  14.904  11.257  0.00  0.00    -0.771 OA
HETATM   12  H   UNK N   1      33.035  14.065  11.069  0.00  0.00     0.167 HD
ENDBRANCH   9  11
ENDBRANCH   7   9
ENDBRANCH   1   7
BRANCH   1  13
HETATM   13  C   UNK N   1      34.506  18.013   7.793  0.00  0.00     0.152 C 
HETATM   14  O   UNK N   1      34.277  18.048   6.594  0.00  0.00    -0.649 OA
BRANCH  13  15
HETATM   15  O   UNK N   1      34.983  19.122   8.375  0.00  0.00    -0.776 OA
HETATM   16  H   UNK N   1      35.447  19.790   7.910  0.00  0.00     0.167 HD
ENDBRANCH  13  15
ENDBRANCH   1  13
TORSDOF 8
ENDMDL
MODEL 5
REMARK VINA RESULT:      -4.7      1.791      2.194
REMARK  8 active torsions:
REMARK  status: ('A' for Active; 'I' for Inactive)
REMARK    1  A    between atoms: C_2  and  C_1 
REMARK    2  A    between atoms: C_3  and  C_1 
REMARK    3  A    between atoms: C_4  and  C_2 
REMARK    4  A    between atoms: C_2  and  C_5 
REMARK    5  A    between atoms: O_8  and  C_3 
REMARK    6  A    between atoms: C_6  and  C_4 
REMARK    7  A    between atoms: O_11  and  C_5 
REMARK    8  A    between atoms: O_12  and  C_6 
ROOT
HETATM    1  C   UNK N   1      33.093  17.649   8.586  0.00  0.00     0.174 C 
ENDROOT
BRANCH   1   2
HETATM    2  C   UNK N   1      33.529  16.247   9.060  0.00  0.00     0.133 C 
BRANCH   2   3
HETATM    3  C   UNK N   1      34.800  16.240   9.866  0.00  0.00     0.140 C 
HETATM    4  O   UNK N   1      35.674  15.432   9.603  0.00  0.00    -0.650 OA
BRANCH   3   5
HETATM    5  O   UNK N   1      34.993  17.125  10.862  0.00  0.00    -0.776 OA
HETATM    6  H   UNK N   1      35.854  17.427  11.076  0.00  0.00     0.167 HD
ENDBRANCH   3   5
ENDBRANCH   2   3
ENDBRANCH   1   2
BRANCH   1   7
HETATM    7  C   UNK N   1      31.677  17.503   7.990  0.00  0.00     0.236 C 
HETATM    8  O   UNK N   1      31.618  17.187   6.810  0.00  0.00    -0.285 OA
BRANCH   7   9
HETATM    9  C   UNK N   1      30.365  17.641   8.693  0.00  0.00     0.214 C 
HETATM   10  O   UNK N   1      29.329  17.204   8.237  0.00  0.00    -0.644 OA
BRANCH   9  11
HETATM   11  O   UNK N   1      30.318  18.343   9.844  0.00  0.00    -0.771 OA
HETATM   12  H   UNK N   1      30.163  19.267   9.825  0.00  0.00     0.167 HD
ENDBRANCH   9  11
ENDBRANCH   7   9
ENDBRANCH   1   7
BRANCH   1  13
HETATM   13  C   UNK N   1      34.253  18.271   7.810  0.00  0.00     0.152 C 
HETATM   14  O   UNK N   1      34.966  19.092   8.365  0.00  0.00    -0.649 OA
BRANCH  13  15
HETATM   15  O   UNK N   1      34.549  17.931   6.548  0.00  0.00    -0.776 OA
HETATM   16  H   UNK N   1      35.281  18.280   6.078  0.00  0.00     0.167 HD
ENDBRANCH  13  15
ENDBRANCH   1  13
TORSDOF 8
ENDMDL
MODEL 6
REMARK VINA RESULT:      -4.6      1.251      4.461
REMARK  8 active torsions:
REMARK  status: ('A' for Active; 'I' for Inactive)
REMARK    1  A    between atoms: C_2  and  C_1 
REMARK    2  A    between atoms: C_3  and  C_1 
REMARK    3  A    between atoms: C_4  and  C_2 
REMARK    4  A    between atoms: C_2  and  C_5 
REMARK    5  A    between atoms: O_8  and  C_3 
REMARK    6  A    between atoms: C_6  and  C_4 
REMARK    7  A    between atoms: O_11  and  C_5 
REMARK    8  A    between atoms: O_12  and  C_6 
ROOT
HETATM    1  C   UNK N   1      33.980  16.263   9.106  0.00  0.00     0.174 C 
ENDROOT
BRANCH   1   2
HETATM    2  C   UNK N   1      34.546  15.839   7.735  0.00  0.00     0.133 C 
BRANCH   2   3
HETATM    3  C   UNK N   1      34.176  16.765   6.606  0.00  0.00     0.140 C 
HETATM    4  O   UNK N   1      34.417  17.956   6.702  0.00  0.00    -0.650 OA
BRANCH   3   5
HETATM    5  O   UNK N   1      33.601  16.292   5.485  0.00  0.00    -0.776 OA
HETATM    6  H   UNK N   1      32.743  15.917   5.507  0.00  0.00     0.167 HD
ENDBRANCH   3   5
ENDBRANCH   2   3
ENDBRANCH   1   2
BRANCH   1   7
HETATM    7  C   UNK N   1      35.175  16.738   9.959  0.00  0.00     0.236 C 
HETATM    8  O   UNK N   1      35.469  17.921   9.865  0.00  0.00    -0.285 OA
BRANCH   7   9
HETATM    9  C   UNK N   1      35.981  15.942  10.935  0.00  0.00     0.214 C 
HETATM   10  O   UNK N   1      35.516  15.512  11.970  0.00  0.00    -0.644 OA
BRANCH   9  11
HETATM   11  O   UNK N   1      37.294  15.754  10.690  0.00  0.00    -0.771 OA
HETATM   12  H   UNK N   1      37.615  14.899  10.481  0.00  0.00     0.167 HD
ENDBRANCH   9  11
ENDBRANCH   7   9
ENDBRANCH   1   7
BRANCH   1  13
HETATM   13  C   UNK N   1      33.012  15.178   9.577  0.00  0.00     0.152 C 
HETATM   14  O   UNK N   1      32.536  14.410   8.757  0.00  0.00    -0.649 OA
BRANCH  13  15
HETATM   15  O   UNK N   1      32.683  15.007  10.865  0.00  0.00    -0.776 OA
HETATM   16  H   UNK N   1      33.079  15.486  11.566  0.00  0.00     0.167 HD
ENDBRANCH  13  15
ENDBRANCH   1  13
TORSDOF 8
ENDMDL
MODEL 7
REMARK VINA RESULT:      -4.6      1.864      3.018
REMARK  8 active torsions:
REMARK  status: ('A' for Active; 'I' for Inactive)
REMARK    1  A    between atoms: C_2  and  C_1 
REMARK    2  A    between atoms: C_3  and  C_1 
REMARK    3  A    between atoms: C_4  and  C_2 
REMARK    4  A    between atoms: C_2  and  C_5 
REMARK    5  A    between atoms: O_8  and  C_3 
REMARK    6  A    between atoms: C_6  and  C_4 
REMARK    7  A    between atoms: O_11  and  C_5 
REMARK    8  A    between atoms: O_12  and  C_6 
ROOT
HETATM    1  C   UNK N   1      33.183  17.324   8.474  0.00  0.00     0.174 C 
ENDROOT
BRANCH   1   2
HETATM    2  C   UNK N   1      33.487  15.828   8.256  0.00  0.00     0.133 C 
BRANCH   2   3
HETATM    3  C   UNK N   1      32.724  14.907   9.169  0.00  0.00     0.140 C 
HETATM    4  O   UNK N   1      32.242  13.880   8.723  0.00  0.00    -0.650 OA
BRANCH   3   5
HETATM    5  O   UNK N   1      32.581  15.192  10.477  0.00  0.00    -0.776 OA
HETATM    6  H   UNK N   1      32.262  16.029  10.754  0.00  0.00     0.167 HD
ENDBRANCH   3   5
ENDBRANCH   2   3
ENDBRANCH   1   2
BRANCH   1   7
HETATM    7  C   UNK N   1      31.686  17.531   8.161  0.00  0.00     0.236 C 
HETATM    8  O   UNK N   1      31.337  17.296   7.013  0.00  0.00    -0.285 OA
BRANCH   7   9
HETATM    9  C   UNK N   1      30.596  17.926   9.106  0.00  0.00     0.214 C 
HETATM   10  O   UNK N   1      30.203  19.069   9.209  0.00  0.00    -0.644 OA
BRANCH   9  11
HETATM   11  O   UNK N   1      30.079  16.988   9.926  0.00  0.00    -0.771 OA
HETATM   12  H   UNK N   1      29.421  16.399   9.611  0.00  0.00     0.167 HD
ENDBRANCH   9  11
ENDBRANCH   7   9
ENDBRANCH   1   7
BRANCH   1  13
HETATM   13  C   UNK N   1      34.286  18.138   7.797  0.00  0.00     0.152 C 
HETATM   14  O   UNK N   1      34.536  17.934   6.620  0.00  0.00    -0.649 OA
BRANCH  13  15
HETATM   15  O   UNK N   1      34.973  19.098   8.430  0.00  0.00    -0.776 OA
HETATM   16  H   UNK N   1      35.900  19.066   8.563  0.00  0.00     0.167 HD
ENDBRANCH  13  15
ENDBRANCH   1  13
TORSDOF 8
ENDMDL
MODEL 8
REMARK VINA RESULT:      -4.5      2.077      3.813
REMARK  8 active torsions:
REMARK  status: ('A' for Active; 'I' for Inactive)
REMARK    1  A    between atoms: C_2  and  C_1 
REMARK    2  A    between atoms: C_3  and  C_1 
REMARK    3  A    between atoms: C_4  and  C_2 
REMARK    4  A    between atoms: C_2  and  C_5 
REMARK    5  A    between atoms: O_8  and  C_3 
REMARK    6  A    between atoms: C_6  and  C_4 
REMARK    7  A    between atoms: O_11  and  C_5 
REMARK    8  A    between atoms: O_12  and  C_6 
ROOT
HETATM    1  C   UNK N   1      32.324  16.699   8.115  0.00  0.00     0.174 C 
ENDROOT
BRANCH   1   2
HETATM    2  C   UNK N   1      33.037  17.962   8.638  0.00  0.00     0.133 C 
BRANCH   2   3
HETATM    3  C   UNK N   1      34.312  18.294   7.908  0.00  0.00     0.140 C 
HETATM    4  O   UNK N   1      34.511  17.824   6.801  0.00  0.00    -0.650 OA
BRANCH   3   5
HETATM    5  O   UNK N   1      35.227  19.116   8.454  0.00  0.00    -0.776 OA
HETATM    6  H   UNK N   1      35.647  18.898   9.262  0.00  0.00     0.167 HD
ENDBRANCH   3   5
ENDBRANCH   2   3
ENDBRANCH   1   2
BRANCH   1   7
HETATM    7  C   UNK N   1      30.835  17.064   7.934  0.00  0.00     0.236 C 
HETATM    8  O   UNK N   1      30.335  16.778   6.855  0.00  0.00    -0.285 OA
BRANCH   7   9
HETATM    9  C   UNK N   1      29.910  17.671   8.940  0.00  0.00     0.214 C 
HETATM   10  O   UNK N   1      29.253  18.665   8.708  0.00  0.00    -0.644 OA
BRANCH   9  11
HETATM   11  O   UNK N   1      29.856  17.135  10.176  0.00  0.00    -0.771 OA
HETATM   12  H   UNK N   1      29.779  17.692  10.926  0.00  0.00     0.167 HD
ENDBRANCH   9  11
ENDBRANCH   7   9
ENDBRANCH   1   7
BRANCH   1  13
HETATM   13  C   UNK N   1      32.783  15.509   8.957  0.00  0.00     0.152 C 
HETATM   14  O   UNK N   1      33.743  14.854   8.585  0.00  0.00    -0.649 OA
BRANCH  13  15
HETATM   15  O   UNK N   1      32.199  15.169  10.114  0.00  0.00    -0.776 OA
HETATM   16  H   UNK N   1      31.457  15.619  10.469  0.00  0.00     0.167 HD
ENDBRANCH  13  15
ENDBRANCH   1  13
TORSDOF 8
ENDMDL
MODEL 9
REMARK VINA RESULT:      -4.5      1.203      3.971
REMARK  8 active torsions:
REMARK  status: ('A' for Active; 'I' for Inactive)
REMARK    1  A    between atoms: C_2  and  C_1 
REMARK    2  A    between atoms: C_3  and  C_1 
REMARK    3  A    between atoms: C_4  and  C_2 
REMARK    4  A    between atoms: C_2  and  C_5 
REMARK    5  A    between atoms: O_8  and  C_3 
REMARK    6  A    between atoms: C_6  and  C_4 
REMARK    7  A    between atoms: O_11  and  C_5 
REMARK    8  A    between atoms: O_12  and  C_6 
ROOT
HETATM    1  C   UNK N   1      33.900  16.071   9.397  0.00  0.00     0.174 C 
ENDROOT
BRANCH   1   2
HETATM    2  C   UNK N   1      33.986  14.874   8.429  0.00  0.00     0.133 C 
BRANCH   2   3
HETATM    3  C   UNK N   1      32.718  14.068   8.336  0.00  0.00     0.140 C 
HETATM    4  O   UNK N   1      32.049  14.112   7.317  0.00  0.00    -0.650 OA
BRANCH   3   5
HETATM    5  O   UNK N   1      32.321  13.283   9.356  0.00  0.00    -0.776 OA
HETATM    6  H   UNK N   1      31.517  13.453   9.806  0.00  0.00     0.167 HD
ENDBRANCH   3   5
ENDBRANCH   2   3
ENDBRANCH   1   2
BRANCH   1   7
HETATM    7  C   UNK N   1      33.434  17.288   8.569  0.00  0.00     0.236 C 
HETATM    8  O   UNK N   1      32.248  17.573   8.650  0.00  0.00    -0.285 OA
BRANCH   7   9
HETATM    9  C   UNK N   1      34.267  18.199   7.726  0.00  0.00     0.214 C 
HETATM   10  O   UNK N   1      34.337  18.092   6.520  0.00  0.00    -0.644 OA
BRANCH   9  11
HETATM   11  O   UNK N   1      35.027  19.131   8.337  0.00  0.00    -0.771 OA
HETATM   12  H   UNK N   1      35.962  19.066   8.310  0.00  0.00     0.167 HD
ENDBRANCH   9  11
ENDBRANCH   7   9
ENDBRANCH   1   7
BRANCH   1  13
HETATM   13  C   UNK N   1      35.172  16.090  10.244  0.00  0.00     0.152 C 
HETATM   14  O   UNK N   1      35.624  17.163  10.611  0.00  0.00    -0.649 OA
BRANCH  13  15
HETATM   15  O   UNK N   1      35.803  14.974  10.635  0.00  0.00    -0.776 OA
HETATM   16  H   UNK N   1      36.575  14.645  10.218  0.00  0.00     0.167 HD
ENDBRANCH  13  15
ENDBRANCH   1  13
TORSDOF 8
ENDMDL
