MODEL 1
REMARK VINA RESULT:      -5.3      0.000      0.000
REMARK  4 active torsions:
REMARK  status: ('A' for Active; 'I' for Inactive)
REMARK    1  A    between atoms: C_1  and  C_2 
REMARK    2  A    between atoms: C_2  and  C_5 
REMARK    3  A    between atoms: C_2  and  O_6 
REMARK    4  A    between atoms: C_5  and  O_9 
ROOT
HETATM    1  C   UNK N   1      23.912  12.195  11.668  0.00  0.00     0.248 C 
ENDROOT
BRANCH   1   2
HETATM    2  C   UNK N   1      23.108  12.298  10.398  0.00  0.00    -0.019 A 
HETATM    3  C   UNK N   1      21.993  13.146  10.337  0.00  0.00     0.010 A 
HETATM    4  C   UNK N   1      21.247  13.243   9.159  0.00  0.00     0.001 A 
HETATM    5  C   UNK N   1      21.610  12.494   8.036  0.00  0.00     0.000 A 
HETATM    6  C   UNK N   1      22.719  11.648   8.090  0.00  0.00     0.001 A 
HETATM    7  C   UNK N   1      23.464  11.552   9.266  0.00  0.00     0.010 A 
ENDBRANCH   1   2
BRANCH   1   8
HETATM    8  C   UNK N   1      23.321  11.892  13.018  0.00  0.00     0.174 C 
HETATM    9  O   UNK N   1      23.829  12.369  14.024  0.00  0.00    -0.648 OA
BRANCH   8  10
HETATM   10  O   UNK N   1      22.239  11.103  13.137  0.00  0.00    -0.774 OA
HETATM   11  H   UNK N   1      22.318  10.178  13.020  0.00  0.00     0.167 HD
ENDBRANCH   8  10
ENDBRANCH   1   8
BRANCH   1  12
HETATM   12  O   UNK N   1      25.292  12.392  11.591  0.00  0.00    -0.380 OA
HETATM   13  H   UNK N   1      25.886  11.631  11.496  0.00  0.00     0.211 HD
ENDBRANCH   1  12
TORSDOF 4
ENDMDL
MODEL 2
REMARK VINA RESULT:      -5.3     10.370     11.361
REMARK  4 active torsions:
REMARK  status: ('A' for Active; 'I' for Inactive)
REMARK    1  A    between atoms: C_1  and  C_2 
REMARK    2  A    between atoms: C_2  and  C_5 
REMARK    3  A    between atoms: C_2  and  O_6 
REMARK    4  A    between atoms: C_5  and  O_9 
ROOT
HETATM    1  C   UNK N   1      33.165  17.518   8.549  0.00  0.00     0.248 C 
ENDROOT
BRANCH   1   2
HETATM    2  C   UNK N   1      31.709  17.614   8.174  0.00  0.00    -0.019 A 
HETATM    3  C   UNK N   1      30.836  18.401   8.939  0.00  0.00     0.010 A 
HETATM    4  C   UNK N   1      29.484  18.491   8.592  0.00  0.00     0.001 A 
HETATM    5  C   UNK N   1      28.998  17.796   7.481  0.00  0.00     0.000 A 
HETATM    6  C   UNK N   1      29.862  17.011   6.716  0.00  0.00     0.001 A 
HETATM    7  C   UNK N   1      31.211  16.921   7.063  0.00  0.00     0.010 A 
ENDBRANCH   1   2
BRANCH   1   8
HETATM    8  C   UNK N   1      34.274  18.217   7.810  0.00  0.00     0.174 C 
HETATM    9  O   UNK N   1      34.494  17.938   6.639  0.00  0.00    -0.648 OA
BRANCH   8  10
HETATM   10  O   UNK N   1      35.030  19.146   8.419  0.00  0.00    -0.774 OA
HETATM   11  H   UNK N   1      35.753  19.533   7.966  0.00  0.00     0.167 HD
ENDBRANCH   8  10
ENDBRANCH   1   8
BRANCH   1  12
HETATM   12  O   UNK N   1      33.511  16.731   9.650  0.00  0.00    -0.380 OA
HETATM   13  H   UNK N   1      32.829  16.227  10.119  0.00  0.00     0.211 HD
ENDBRANCH   1  12
TORSDOF 4
ENDMDL
MODEL 3
REMARK VINA RESULT:      -5.2     13.358     14.724
REMARK  4 active torsions:
REMARK  status: ('A' for Active; 'I' for Inactive)
REMARK    1  A    between atoms: C_1  and  C_2 
REMARK    2  A    between atoms: C_2  and  C_5 
REMARK    3  A    between atoms: C_2  and  O_6 
REMARK    4  A    between atoms: C_5  and  O_9 
ROOT
HETATM    1  C   UNK N   1      35.567  13.337  15.335  0.00  0.00     0.248 C 
ENDROOT
BRANCH   1   2
HETATM    2  C   UNK N   1      35.501  12.751  16.721  0.00  0.00    -0.019 A 
HETATM    3  C   UNK N   1      35.773  11.390  16.923  0.00  0.00     0.010 A 
HETATM    4  C   UNK N   1      35.713  10.846  18.210  0.00  0.00     0.001 A 
HETATM    5  C   UNK N   1      35.381  11.657  19.299  0.00  0.00     0.000 A 
HETATM    6  C   UNK N   1      35.110  13.012  19.104  0.00  0.00     0.001 A 
HETATM    7  C   UNK N   1      35.170  13.555  17.820  0.00  0.00     0.010 A 
ENDBRANCH   1   2
BRANCH   1   8
HETATM    8  C   UNK N   1      36.672  14.235  14.849  0.00  0.00     0.174 C 
HETATM    9  O   UNK N   1      37.500  14.662  15.642  0.00  0.00    -0.648 OA
BRANCH   8  10
HETATM   10  O   UNK N   1      36.764  14.578  13.552  0.00  0.00    -0.774 OA
HETATM   11  H   UNK N   1      36.480  13.982  12.889  0.00  0.00     0.167 HD
ENDBRANCH   8  10
ENDBRANCH   1   8
BRANCH   1  12
HETATM   12  O   UNK N   1      34.538  13.029  14.441  0.00  0.00    -0.380 OA
HETATM   13  H   UNK N   1      33.649  12.834  14.774  0.00  0.00     0.211 HD
ENDBRANCH   1  12
TORSDOF 4
ENDMDL
MODEL 4
REMARK VINA RESULT:      -5.1     11.391     12.327
REMARK  4 active torsions:
REMARK  status: ('A' for Active; 'I' for Inactive)
REMARK    1  A    between atoms: C_1  and  C_2 
REMARK    2  A    between atoms: C_2  and  C_5 
REMARK    3  A    between atoms: C_2  and  O_6 
REMARK    4  A    between atoms: C_5  and  O_9 
ROOT
HETATM    1  C   UNK N   1      34.445  17.936   8.388  0.00  0.00     0.248 C 
ENDROOT
BRANCH   1   2
HETATM    2  C   UNK N   1      33.364  17.655   7.378  0.00  0.00    -0.019 A 
HETATM    3  C   UNK N   1      33.682  17.559   6.016  0.00  0.00     0.010 A 
HETATM    4  C   UNK N   1      32.678  17.298   5.077  0.00  0.00     0.001 A 
HETATM    5  C   UNK N   1      31.355  17.132   5.494  0.00  0.00     0.000 A 
HETATM    6  C   UNK N   1      31.032  17.227   6.848  0.00  0.00     0.001 A 
HETATM    7  C   UNK N   1      32.034  17.487   7.785  0.00  0.00     0.010 A 
ENDBRANCH   1   2
BRANCH   1   8
HETATM    8  C   UNK N   1      34.904  16.951   9.430  0.00  0.00     0.174 C 
HETATM    9  O   UNK N   1      34.680  15.758   9.277  0.00  0.00    -0.648 OA
BRANCH   8  10
HETATM   10  O   UNK N   1      35.558  17.363  10.529  0.00  0.00    -0.774 OA
HETATM   11  H   UNK N   1      35.078  17.635  11.286  0.00  0.00     0.167 HD
ENDBRANCH   8  10
ENDBRANCH   1   8
BRANCH   1  12
HETATM   12  O   UNK N   1      35.063  19.188   8.361  0.00  0.00    -0.380 OA
HETATM   13  H   UNK N   1      35.137  19.674   7.525  0.00  0.00     0.211 HD
ENDBRANCH   1  12
TORSDOF 4
ENDMDL
MODEL 5
REMARK VINA RESULT:      -5.0     10.608     11.976
REMARK  4 active torsions:
REMARK  status: ('A' for Active; 'I' for Inactive)
REMARK    1  A    between atoms: C_1  and  C_2 
REMARK    2  A    between atoms: C_2  and  C_5 
REMARK    3  A    between atoms: C_2  and  O_6 
REMARK    4  A    between atoms: C_5  and  O_9 
ROOT
HETATM    1  C   UNK N   1      21.498  20.502   2.513  0.00  0.00     0.248 C 
ENDROOT
BRANCH   1   2
HETATM    2  C   UNK N   1      22.805  20.016   3.082  0.00  0.00    -0.019 A 
HETATM    3  C   UNK N   1      22.836  18.878   3.901  0.00  0.00     0.010 A 
HETATM    4  C   UNK N   1      24.049  18.426   4.430  0.00  0.00     0.001 A 
HETATM    5  C   UNK N   1      25.235  19.108   4.144  0.00  0.00     0.000 A 
HETATM    6  C   UNK N   1      25.210  20.241   3.329  0.00  0.00     0.001 A 
HETATM    7  C   UNK N   1      24.000  20.691   2.802  0.00  0.00     0.010 A 
ENDBRANCH   1   2
BRANCH   1   8
HETATM    8  C   UNK N   1      21.013  20.186   1.123  0.00  0.00     0.174 C 
HETATM    9  O   UNK N   1      21.262  20.955   0.204  0.00  0.00    -0.648 OA
BRANCH   8  10
HETATM   10  O   UNK N   1      20.307  19.069   0.875  0.00  0.00    -0.774 OA
HETATM   11  H   UNK N   1      20.741  18.299   0.568  0.00  0.00     0.167 HD
ENDBRANCH   8  10
ENDBRANCH   1   8
BRANCH   1  12
HETATM   12  O   UNK N   1      20.681  21.295   3.322  0.00  0.00    -0.380 OA
HETATM   13  H   UNK N   1      21.058  21.755   4.088  0.00  0.00     0.211 HD
ENDBRANCH   1  12
TORSDOF 4
ENDMDL
MODEL 6
REMARK VINA RESULT:      -5.0     13.480     14.549
REMARK  4 active torsions:
REMARK  status: ('A' for Active; 'I' for Inactive)
REMARK    1  A    between atoms: C_1  and  C_2 
REMARK    2  A    between atoms: C_2  and  C_5 
REMARK    3  A    between atoms: C_2  and  O_6 
REMARK    4  A    between atoms: C_5  and  O_9 
ROOT
HETATM    1  C   UNK N   1      36.651  14.001  14.899  0.00  0.00     0.248 C 
ENDROOT
BRANCH   1   2
HETATM    2  C   UNK N   1      36.166  13.107  16.010  0.00  0.00    -0.019 A 
HETATM    3  C   UNK N   1      35.537  13.659  17.135  0.00  0.00     0.010 A 
HETATM    4  C   UNK N   1      35.087  12.829  18.167  0.00  0.00     0.001 A 
HETATM    5  C   UNK N   1      35.261  11.445  18.079  0.00  0.00     0.000 A 
HETATM    6  C   UNK N   1      35.886  10.889  16.961  0.00  0.00     0.001 A 
HETATM    7  C   UNK N   1      36.336  11.718  15.932  0.00  0.00     0.010 A 
ENDBRANCH   1   2
BRANCH   1   8
HETATM    8  C   UNK N   1      36.180  13.907  13.473  0.00  0.00     0.174 C 
HETATM    9  O   UNK N   1      34.984  13.811  13.233  0.00  0.00    -0.648 OA
BRANCH   8  10
HETATM   10  O   UNK N   1      37.057  13.927  12.454  0.00  0.00    -0.774 OA
HETATM   11  H   UNK N   1      37.874  14.373  12.547  0.00  0.00     0.167 HD
ENDBRANCH   8  10
ENDBRANCH   1   8
BRANCH   1  12
HETATM   12  O   UNK N   1      37.597  14.981  15.208  0.00  0.00    -0.380 OA
HETATM   13  H   UNK N   1      37.308  15.852  15.523  0.00  0.00     0.211 HD
ENDBRANCH   1  12
TORSDOF 4
ENDMDL
MODEL 7
REMARK VINA RESULT:      -4.8     13.159     14.595
REMARK  4 active torsions:
REMARK  status: ('A' for Active; 'I' for Inactive)
REMARK    1  A    between atoms: C_1  and  C_2 
REMARK    2  A    between atoms: C_2  and  C_5 
REMARK    3  A    between atoms: C_2  and  O_6 
REMARK    4  A    between atoms: C_5  and  O_9 
ROOT
HETATM    1  C   UNK N   1      35.437  12.802  15.249  0.00  0.00     0.248 C 
ENDROOT
BRANCH   1   2
HETATM    2  C   UNK N   1      35.410  12.499  16.724  0.00  0.00    -0.019 A 
HETATM    3  C   UNK N   1      35.164  13.524  17.648  0.00  0.00     0.010 A 
HETATM    4  C   UNK N   1      35.139  13.243  19.018  0.00  0.00     0.001 A 
HETATM    5  C   UNK N   1      35.360  11.939  19.471  0.00  0.00     0.000 A 
HETATM    6  C   UNK N   1      35.606  10.915  18.555  0.00  0.00     0.001 A 
HETATM    7  C   UNK N   1      35.630  11.195  17.188  0.00  0.00     0.010 A 
ENDBRANCH   1   2
BRANCH   1   8
HETATM    8  C   UNK N   1      36.619  13.395  14.529  0.00  0.00     0.174 C 
HETATM    9  O   UNK N   1      36.620  14.584  14.242  0.00  0.00    -0.648 OA
BRANCH   8  10
HETATM   10  O   UNK N   1      37.677  12.635  14.197  0.00  0.00    -0.774 OA
HETATM   11  H   UNK N   1      38.004  11.998  14.800  0.00  0.00     0.167 HD
ENDBRANCH   8  10
ENDBRANCH   1   8
BRANCH   1  12
HETATM   12  O   UNK N   1      34.295  12.516  14.497  0.00  0.00    -0.380 OA
HETATM   13  H   UNK N   1      34.281  11.744  13.910  0.00  0.00     0.211 HD
ENDBRANCH   1  12
TORSDOF 4
ENDMDL
MODEL 8
REMARK VINA RESULT:      -4.8     10.342     11.912
REMARK  4 active torsions:
REMARK  status: ('A' for Active; 'I' for Inactive)
REMARK    1  A    between atoms: C_1  and  C_2 
REMARK    2  A    between atoms: C_2  and  C_5 
REMARK    3  A    between atoms: C_2  and  O_6 
REMARK    4  A    between atoms: C_5  and  O_9 
ROOT
HETATM    1  C   UNK N   1      20.684  20.468   2.388  0.00  0.00     0.248 C 
ENDROOT
BRANCH   1   2
HETATM    2  C   UNK N   1      20.895  18.996   2.624  0.00  0.00    -0.019 A 
HETATM    3  C   UNK N   1      20.033  18.058   2.038  0.00  0.00     0.010 A 
HETATM    4  C   UNK N   1      20.229  16.691   2.256  0.00  0.00     0.001 A 
HETATM    5  C   UNK N   1      21.285  16.254   3.061  0.00  0.00     0.000 A 
HETATM    6  C   UNK N   1      22.146  17.183   3.647  0.00  0.00     0.001 A 
HETATM    7  C   UNK N   1      21.951  18.547   3.429  0.00  0.00     0.010 A 
ENDBRANCH   1   2
BRANCH   1   8
HETATM    8  C   UNK N   1      20.764  21.127   1.037  0.00  0.00     0.174 C 
HETATM    9  O   UNK N   1      21.142  20.481   0.068  0.00  0.00    -0.648 OA
BRANCH   8  10
HETATM   10  O   UNK N   1      20.425  22.418   0.877  0.00  0.00    -0.774 OA
HETATM   11  H   UNK N   1      19.831  22.824   1.476  0.00  0.00     0.167 HD
ENDBRANCH   8  10
ENDBRANCH   1   8
BRANCH   1  12
HETATM   12  O   UNK N   1      20.396  21.277   3.489  0.00  0.00    -0.380 OA
HETATM   13  H   UNK N   1      19.544  21.738   3.543  0.00  0.00     0.211 HD
ENDBRANCH   1  12
TORSDOF 4
ENDMDL
MODEL 9
REMARK VINA RESULT:      -4.6     12.147     13.838
REMARK  4 active torsions:
REMARK  status: ('A' for Active; 'I' for Inactive)
REMARK    1  A    between atoms: C_1  and  C_2 
REMARK    2  A    between atoms: C_2  and  C_5 
REMARK    3  A    between atoms: C_2  and  O_6 
REMARK    4  A    between atoms: C_5  and  O_9 
ROOT
HETATM    1  C   UNK N   1      35.987  15.183  11.344  0.00  0.00     0.248 C 
ENDROOT
BRANCH   1   2
HETATM    2  C   UNK N   1      36.360  14.177  12.401  0.00  0.00    -0.019 A 
HETATM    3  C   UNK N   1      36.298  14.526  13.757  0.00  0.00     0.010 A 
HETATM    4  C   UNK N   1      36.644  13.593  14.740  0.00  0.00     0.001 A 
HETATM    5  C   UNK N   1      37.054  12.308  14.373  0.00  0.00     0.000 A 
HETATM    6  C   UNK N   1      37.118  11.955  13.024  0.00  0.00     0.001 A 
HETATM    7  C   UNK N   1      36.772  12.887  12.044  0.00  0.00     0.010 A 
ENDBRANCH   1   2
BRANCH   1   8
HETATM    8  C   UNK N   1      34.626  15.274  10.708  0.00  0.00     0.174 C 
HETATM    9  O   UNK N   1      34.509  15.756   9.589  0.00  0.00    -0.648 OA
BRANCH   8  10
HETATM   10  O   UNK N   1      33.532  14.832  11.352  0.00  0.00    -0.774 OA
HETATM   11  H   UNK N   1      32.757  15.357  11.376  0.00  0.00     0.167 HD
ENDBRANCH   8  10
ENDBRANCH   1   8
BRANCH   1  12
HETATM   12  O   UNK N   1      36.963  16.089  10.924  0.00  0.00    -0.380 OA
HETATM   13  H   UNK N   1      36.728  17.018  10.770  0.00  0.00     0.211 HD
ENDBRANCH   1  12
TORSDOF 4
ENDMDL
