REMARK  1 active torsions:
REMARK  status: ('A' for Active; 'I' for Inactive)
REMARK    1  A    between atoms: C_10  and  N_11 
ROOT
HETATM    1  C   UNK N   1       3.233   1.562   0.000  0.00  0.00     0.054 C 
HETATM    2  C   UNK N   1       1.897   0.899   0.000  0.00  0.00    -0.003 A 
HETATM    3  C   UNK N   1       1.819  -0.491  -0.000  0.00  0.00     0.099 A 
HETATM    4  N   UNK N   1       0.608  -1.104  -0.000  0.00  0.00    -0.355 N 
ATOM      5  HN  UNK N   1       0.560  -2.123  -0.000  1.00  0.00     0.166 HD
HETATM    6  C   UNK N   1      -0.541  -0.378  -0.000  0.00  0.00     0.078 A 
HETATM    7  C   UNK N   1      -1.855  -1.073  -0.000  0.00  0.00     0.089 C 
HETATM    8  N   UNK N   1      -0.489   0.981   0.000  0.00  0.00    -0.332 N 
ATOM      9  HN  UNK N   1      -1.357   1.517   0.000  1.00  0.00     0.168 HD
HETATM   10  C   UNK N   1       0.703   1.635   0.000  0.00  0.00     0.107 A 
ENDROOT
BRANCH  10  11
HETATM   11  N   UNK N   1       0.724   3.046   0.000  0.00  0.00    -0.385 N 
HETATM   12  H   UNK N   1       1.585   3.525   0.000  0.00  0.00     0.157 HD
HETATM   13  H   UNK N   1      -0.120   3.552   0.000  0.00  0.00     0.157 HD
ENDBRANCH  10  11
TORSDOF 1
