MODEL 1
REMARK VINA RESULT:      -4.7      0.000      0.000
REMARK  15 active torsions:
REMARK  status: ('A' for Active; 'I' for Inactive)
REMARK    1  A    between atoms: C_2  and  C_3 
REMARK    2  A    between atoms: C_3  and  C_4 
REMARK    3  A    between atoms: C_4  and  C_5 
REMARK    4  A    between atoms: C_5  and  C_6 
REMARK    5  A    between atoms: C_6  and  C_7 
REMARK    6  A    between atoms: C_7  and  C_8 
REMARK    7  A    between atoms: C_8  and  C_9 
REMARK    8  A    between atoms: C_9  and  C_10 
REMARK    9  A    between atoms: C_10  and  C_11 
REMARK   10  A    between atoms: C_11  and  C_12 
REMARK   11  A    between atoms: C_12  and  C_13 
REMARK   12  A    between atoms: C_13  and  C_14 
REMARK   13  A    between atoms: C_14  and  C_15 
REMARK   14  A    between atoms: C_15  and  C_16 
REMARK   15  A    between atoms: C_16  and  S_17 
ROOT
HETATM    1  C   UNK N   1      26.115  23.894  -5.428  0.00  0.00     0.000 C 
ENDROOT
BRANCH   1   2
HETATM    2  C   UNK N   1      25.682  25.053  -6.293  0.00  0.00     0.000 C 
BRANCH   2   3
HETATM    3  C   UNK N   1      25.230  26.188  -5.403  0.00  0.00     0.000 C 
BRANCH   3   4
HETATM    4  C   UNK N   1      25.661  27.494  -6.025  0.00  0.00     0.000 C 
BRANCH   4   5
HETATM    5  C   UNK N   1      27.046  27.354  -6.615  0.00  0.00     0.000 C 
BRANCH   5   6
HETATM    6  C   UNK N   1      27.715  28.707  -6.562  0.00  0.00     0.000 C 
BRANCH   6   7
HETATM    7  C   UNK N   1      27.441  29.381  -5.236  0.00  0.00     0.000 C 
BRANCH   7   8
HETATM    8  C   UNK N   1      28.507  28.945  -4.256  0.00  0.00    -0.000 C 
BRANCH   8   9
HETATM    9  C   UNK N   1      28.820  30.070  -3.296  0.00  0.00    -0.005 C 
HETATM   10  C   UNK N   1      28.395  29.661  -1.901  0.00  0.00     0.005 C 
ENDBRANCH   8   9
ENDBRANCH   7   8
ENDBRANCH   6   7
ENDBRANCH   5   6
ENDBRANCH   4   5
ENDBRANCH   3   4
ENDBRANCH   2   3
ENDBRANCH   1   2
BRANCH   1  11
HETATM   11  C   UNK N   1      26.403  24.390  -4.027  0.00  0.00     0.000 C 
BRANCH  11  12
HETATM   12  C   UNK N   1      27.865  24.154  -3.711  0.00  0.00     0.000 C 
BRANCH  12  13
HETATM   13  C   UNK N   1      28.669  25.436  -3.859  0.00  0.00     0.000 C 
BRANCH  13  14
HETATM   14  C   UNK N   1      29.758  25.262  -4.909  0.00  0.00     0.001 C 
BRANCH  14  15
HETATM   15  C   UNK N   1      30.203  23.811  -5.039  0.00  0.00     0.018 C 
BRANCH  15  16
HETATM   16  C   UNK N   1      31.373  23.528  -4.114  0.00  0.00     0.175 C 
BRANCH  16  17
HETATM   17  S   UNK N   1      30.974  22.275  -2.851  0.00  0.00     0.300 S 
HETATM   18  F   UNK N   1      29.954  20.915  -3.035  0.00  0.00    -0.105 F 
HETATM   19  O   UNK N   1      32.316  21.751  -2.321  0.00  0.00    -0.194 OA
HETATM   20  O   UNK N   1      30.507  22.992  -1.574  0.00  0.00    -0.194 OA
ENDBRANCH  16  17
ENDBRANCH  15  16
ENDBRANCH  14  15
ENDBRANCH  13  14
ENDBRANCH  12  13
ENDBRANCH  11  12
ENDBRANCH   1  11
TORSDOF 15
ENDMDL
MODEL 2
REMARK VINA RESULT:      -4.7      1.301      2.121
REMARK  15 active torsions:
REMARK  status: ('A' for Active; 'I' for Inactive)
REMARK    1  A    between atoms: C_2  and  C_3 
REMARK    2  A    between atoms: C_3  and  C_4 
REMARK    3  A    between atoms: C_4  and  C_5 
REMARK    4  A    between atoms: C_5  and  C_6 
REMARK    5  A    between atoms: C_6  and  C_7 
REMARK    6  A    between atoms: C_7  and  C_8 
REMARK    7  A    between atoms: C_8  and  C_9 
REMARK    8  A    between atoms: C_9  and  C_10 
REMARK    9  A    between atoms: C_10  and  C_11 
REMARK   10  A    between atoms: C_11  and  C_12 
REMARK   11  A    between atoms: C_12  and  C_13 
REMARK   12  A    between atoms: C_13  and  C_14 
REMARK   13  A    between atoms: C_14  and  C_15 
REMARK   14  A    between atoms: C_15  and  C_16 
REMARK   15  A    between atoms: C_16  and  S_17 
ROOT
HETATM    1  C   UNK N   1      27.353  24.223  -7.877  0.00  0.00     0.000 C 
ENDROOT
BRANCH   1   2
HETATM    2  C   UNK N   1      25.975  24.437  -7.298  0.00  0.00     0.000 C 
BRANCH   2   3
HETATM    3  C   UNK N   1      25.991  24.051  -5.837  0.00  0.00     0.000 C 
BRANCH   3   4
HETATM    4  C   UNK N   1      25.482  25.216  -5.022  0.00  0.00     0.000 C 
BRANCH   4   5
HETATM    5  C   UNK N   1      25.102  26.359  -5.935  0.00  0.00     0.000 C 
BRANCH   5   6
HETATM    6  C   UNK N   1      25.902  27.573  -5.521  0.00  0.00     0.000 C 
BRANCH   6   7
HETATM    7  C   UNK N   1      25.623  27.922  -4.077  0.00  0.00     0.000 C 
BRANCH   7   8
HETATM    8  C   UNK N   1      26.312  29.234  -3.768  0.00  0.00    -0.000 C 
BRANCH   8   9
HETATM    9  C   UNK N   1      27.715  29.228  -4.330  0.00  0.00    -0.005 C 
HETATM   10  C   UNK N   1      27.937  30.503  -5.116  0.00  0.00     0.005 C 
ENDBRANCH   8   9
ENDBRANCH   7   8
ENDBRANCH   6   7
ENDBRANCH   5   6
ENDBRANCH   4   5
ENDBRANCH   3   4
ENDBRANCH   2   3
ENDBRANCH   1   2
BRANCH   1  11
HETATM   11  C   UNK N   1      28.337  23.965  -6.755  0.00  0.00     0.000 C 
BRANCH  11  12
HETATM   12  C   UNK N   1      29.358  25.083  -6.728  0.00  0.00     0.000 C 
BRANCH  12  13
HETATM   13  C   UNK N   1      29.189  25.945  -5.488  0.00  0.00     0.000 C 
BRANCH  13  14
HETATM   14  C   UNK N   1      29.223  25.085  -4.233  0.00  0.00     0.001 C 
BRANCH  14  15
HETATM   15  C   UNK N   1      30.572  25.151  -3.528  0.00  0.00     0.018 C 
BRANCH  15  16
HETATM   16  C   UNK N   1      31.388  23.905  -3.821  0.00  0.00     0.175 C 
BRANCH  16  17
HETATM   17  S   UNK N   1      30.883  22.484  -2.796  0.00  0.00     0.300 S 
HETATM   18  F   UNK N   1      29.847  21.202  -3.252  0.00  0.00    -0.105 F 
HETATM   19  O   UNK N   1      32.177  21.843  -2.277  0.00  0.00    -0.194 OA
HETATM   20  O   UNK N   1      30.351  23.009  -1.452  0.00  0.00    -0.194 OA
ENDBRANCH  16  17
ENDBRANCH  15  16
ENDBRANCH  14  15
ENDBRANCH  13  14
ENDBRANCH  12  13
ENDBRANCH  11  12
ENDBRANCH   1  11
TORSDOF 15
ENDMDL
MODEL 3
REMARK VINA RESULT:      -4.5      1.477      2.326
REMARK  15 active torsions:
REMARK  status: ('A' for Active; 'I' for Inactive)
REMARK    1  A    between atoms: C_2  and  C_3 
REMARK    2  A    between atoms: C_3  and  C_4 
REMARK    3  A    between atoms: C_4  and  C_5 
REMARK    4  A    between atoms: C_5  and  C_6 
REMARK    5  A    between atoms: C_6  and  C_7 
REMARK    6  A    between atoms: C_7  and  C_8 
REMARK    7  A    between atoms: C_8  and  C_9 
REMARK    8  A    between atoms: C_9  and  C_10 
REMARK    9  A    between atoms: C_10  and  C_11 
REMARK   10  A    between atoms: C_11  and  C_12 
REMARK   11  A    between atoms: C_12  and  C_13 
REMARK   12  A    between atoms: C_13  and  C_14 
REMARK   13  A    between atoms: C_14  and  C_15 
REMARK   14  A    between atoms: C_15  and  C_16 
REMARK   15  A    between atoms: C_16  and  S_17 
ROOT
HETATM    1  C   UNK N   1      25.904  24.926  -6.530  0.00  0.00     0.000 C 
ENDROOT
BRANCH   1   2
HETATM    2  C   UNK N   1      26.051  26.428  -6.498  0.00  0.00     0.000 C 
BRANCH   2   3
HETATM    3  C   UNK N   1      24.792  27.033  -5.922  0.00  0.00     0.000 C 
BRANCH   3   4
HETATM    4  C   UNK N   1      25.157  27.840  -4.699  0.00  0.00     0.000 C 
BRANCH   4   5
HETATM    5  C   UNK N   1      26.646  28.100  -4.676  0.00  0.00     0.000 C 
BRANCH   5   6
HETATM    6  C   UNK N   1      27.067  28.275  -3.235  0.00  0.00     0.000 C 
BRANCH   6   7
HETATM    7  C   UNK N   1      28.562  28.478  -3.142  0.00  0.00     0.000 C 
BRANCH   7   8
HETATM    8  C   UNK N   1      29.231  27.497  -4.080  0.00  0.00    -0.000 C 
BRANCH   8   9
HETATM    9  C   UNK N   1      30.586  27.103  -3.538  0.00  0.00    -0.005 C 
HETATM   10  C   UNK N   1      31.444  26.596  -4.678  0.00  0.00     0.005 C 
ENDBRANCH   8   9
ENDBRANCH   7   8
ENDBRANCH   6   7
ENDBRANCH   5   6
ENDBRANCH   4   5
ENDBRANCH   3   4
ENDBRANCH   2   3
ENDBRANCH   1   2
BRANCH   1  11
HETATM   11  C   UNK N   1      26.877  24.303  -5.551  0.00  0.00     0.000 C 
BRANCH  11  12
HETATM   12  C   UNK N   1      26.222  24.222  -4.188  0.00  0.00     0.000 C 
BRANCH  12  13
HETATM   13  C   UNK N   1      27.265  24.203  -3.083  0.00  0.00     0.000 C 
BRANCH  13  14
HETATM   14  C   UNK N   1      28.618  23.780  -3.636  0.00  0.00     0.001 C 
BRANCH  14  15
HETATM   15  C   UNK N   1      29.589  23.377  -2.532  0.00  0.00     0.018 C 
BRANCH  15  16
HETATM   16  C   UNK N   1      31.018  23.413  -3.040  0.00  0.00     0.175 C 
BRANCH  16  17
HETATM   17  S   UNK N   1      31.712  21.744  -3.284  0.00  0.00     0.300 S 
HETATM   18  F   UNK N   1      30.854  20.320  -3.685  0.00  0.00    -0.105 F 
HETATM   19  O   UNK N   1      32.835  21.889  -4.320  0.00  0.00    -0.194 OA
HETATM   20  O   UNK N   1      32.586  21.391  -2.070  0.00  0.00    -0.194 OA
ENDBRANCH  16  17
ENDBRANCH  15  16
ENDBRANCH  14  15
ENDBRANCH  13  14
ENDBRANCH  12  13
ENDBRANCH  11  12
ENDBRANCH   1  11
TORSDOF 15
ENDMDL
MODEL 4
REMARK VINA RESULT:      -4.5      1.408      4.034
REMARK  15 active torsions:
REMARK  status: ('A' for Active; 'I' for Inactive)
REMARK    1  A    between atoms: C_2  and  C_3 
REMARK    2  A    between atoms: C_3  and  C_4 
REMARK    3  A    between atoms: C_4  and  C_5 
REMARK    4  A    between atoms: C_5  and  C_6 
REMARK    5  A    between atoms: C_6  and  C_7 
REMARK    6  A    between atoms: C_7  and  C_8 
REMARK    7  A    between atoms: C_8  and  C_9 
REMARK    8  A    between atoms: C_9  and  C_10 
REMARK    9  A    between atoms: C_10  and  C_11 
REMARK   10  A    between atoms: C_11  and  C_12 
REMARK   11  A    between atoms: C_12  and  C_13 
REMARK   12  A    between atoms: C_13  and  C_14 
REMARK   13  A    between atoms: C_14  and  C_15 
REMARK   14  A    between atoms: C_15  and  C_16 
REMARK   15  A    between atoms: C_16  and  S_17 
ROOT
HETATM    1  C   UNK N   1      28.263  28.542  -6.513  0.00  0.00     0.000 C 
ENDROOT
BRANCH   1   2
HETATM    2  C   UNK N   1      27.533  29.141  -5.334  0.00  0.00     0.000 C 
BRANCH   2   3
HETATM    3  C   UNK N   1      26.264  28.357  -5.093  0.00  0.00     0.000 C 
BRANCH   3   4
HETATM    4  C   UNK N   1      26.111  28.125  -3.609  0.00  0.00     0.000 C 
BRANCH   4   5
HETATM    5  C   UNK N   1      26.404  26.680  -3.277  0.00  0.00     0.000 C 
BRANCH   5   6
HETATM    6  C   UNK N   1      26.368  25.889  -4.564  0.00  0.00     0.000 C 
BRANCH   6   7
HETATM    7  C   UNK N   1      26.108  24.427  -4.279  0.00  0.00     0.000 C 
BRANCH   7   8
HETATM    8  C   UNK N   1      26.045  23.692  -5.600  0.00  0.00    -0.000 C 
BRANCH   8   9
HETATM    9  C   UNK N   1      27.436  23.528  -6.169  0.00  0.00    -0.005 C 
HETATM   10  C   UNK N   1      27.455  24.061  -7.586  0.00  0.00     0.005 C 
ENDBRANCH   8   9
ENDBRANCH   7   8
ENDBRANCH   6   7
ENDBRANCH   5   6
ENDBRANCH   4   5
ENDBRANCH   3   4
ENDBRANCH   2   3
ENDBRANCH   1   2
BRANCH   1  11
HETATM   11  C   UNK N   1      29.651  28.117  -6.083  0.00  0.00     0.000 C 
BRANCH  11  12
HETATM   12  C   UNK N   1      29.714  28.095  -4.570  0.00  0.00     0.000 C 
BRANCH  12  13
HETATM   13  C   UNK N   1      30.734  27.079  -4.082  0.00  0.00     0.000 C 
BRANCH  13  14
HETATM   14  C   UNK N   1      30.037  25.809  -3.617  0.00  0.00     0.001 C 
BRANCH  14  15
HETATM   15  C   UNK N   1      30.384  24.610  -4.491  0.00  0.00     0.018 C 
BRANCH  15  16
HETATM   16  C   UNK N   1      31.525  23.818  -3.880  0.00  0.00     0.175 C 
BRANCH  16  17
HETATM   17  S   UNK N   1      30.938  22.443  -2.836  0.00  0.00     0.300 S 
HETATM   18  F   UNK N   1      29.891  21.173  -3.298  0.00  0.00    -0.105 F 
HETATM   19  O   UNK N   1      32.191  21.788  -2.238  0.00  0.00    -0.194 OA
HETATM   20  O   UNK N   1      30.360  23.024  -1.534  0.00  0.00    -0.194 OA
ENDBRANCH  16  17
ENDBRANCH  15  16
ENDBRANCH  14  15
ENDBRANCH  13  14
ENDBRANCH  12  13
ENDBRANCH  11  12
ENDBRANCH   1  11
TORSDOF 15
ENDMDL
MODEL 5
REMARK VINA RESULT:      -4.4     11.884     13.970
REMARK  15 active torsions:
REMARK  status: ('A' for Active; 'I' for Inactive)
REMARK    1  A    between atoms: C_2  and  C_3 
REMARK    2  A    between atoms: C_3  and  C_4 
REMARK    3  A    between atoms: C_4  and  C_5 
REMARK    4  A    between atoms: C_5  and  C_6 
REMARK    5  A    between atoms: C_6  and  C_7 
REMARK    6  A    between atoms: C_7  and  C_8 
REMARK    7  A    between atoms: C_8  and  C_9 
REMARK    8  A    between atoms: C_9  and  C_10 
REMARK    9  A    between atoms: C_10  and  C_11 
REMARK   10  A    between atoms: C_11  and  C_12 
REMARK   11  A    between atoms: C_12  and  C_13 
REMARK   12  A    between atoms: C_13  and  C_14 
REMARK   13  A    between atoms: C_14  and  C_15 
REMARK   14  A    between atoms: C_15  and  C_16 
REMARK   15  A    between atoms: C_16  and  S_17 
ROOT
HETATM    1  C   UNK N   1      27.242  20.245   6.954  0.00  0.00     0.000 C 
ENDROOT
BRANCH   1   2
HETATM    2  C   UNK N   1      27.596  20.995   5.692  0.00  0.00     0.000 C 
BRANCH   2   3
HETATM    3  C   UNK N   1      27.777  20.002   4.566  0.00  0.00     0.000 C 
BRANCH   3   4
HETATM    4  C   UNK N   1      26.416  19.572   4.075  0.00  0.00     0.000 C 
BRANCH   4   5
HETATM    5  C   UNK N   1      26.319  18.063   4.073  0.00  0.00     0.000 C 
BRANCH   5   6
HETATM    6  C   UNK N   1      27.717  17.506   3.935  0.00  0.00     0.000 C 
BRANCH   6   7
HETATM    7  C   UNK N   1      27.924  16.356   4.894  0.00  0.00     0.000 C 
BRANCH   7   8
HETATM    8  C   UNK N   1      26.796  16.372   5.902  0.00  0.00    -0.000 C 
BRANCH   8   9
HETATM    9  C   UNK N   1      26.384  14.958   6.243  0.00  0.00    -0.005 C 
HETATM   10  C   UNK N   1      24.965  14.972   6.771  0.00  0.00     0.005 C 
ENDBRANCH   8   9
ENDBRANCH   7   8
ENDBRANCH   6   7
ENDBRANCH   5   6
ENDBRANCH   4   5
ENDBRANCH   3   4
ENDBRANCH   2   3
ENDBRANCH   1   2
BRANCH   1  11
HETATM   11  C   UNK N   1      28.380  19.318   7.325  0.00  0.00     0.000 C 
BRANCH  11  12
HETATM   12  C   UNK N   1      28.018  18.578   8.596  0.00  0.00     0.000 C 
BRANCH  12  13
HETATM   13  C   UNK N   1      28.907  17.361   8.790  0.00  0.00     0.000 C 
BRANCH  13  14
HETATM   14  C   UNK N   1      30.275  17.596   8.164  0.00  0.00     0.001 C 
BRANCH  14  15
HETATM   15  C   UNK N   1      30.698  16.446   7.259  0.00  0.00     0.018 C 
BRANCH  15  16
HETATM   16  C   UNK N   1      31.777  16.898   6.292  0.00  0.00     0.175 C 
BRANCH  16  17
HETATM   17  S   UNK N   1      33.246  17.559   7.148  0.00  0.00     0.300 S 
HETATM   18  F   UNK N   1      33.306  18.908   8.197  0.00  0.00    -0.105 F 
HETATM   19  O   UNK N   1      33.872  16.381   7.906  0.00  0.00    -0.194 OA
HETATM   20  O   UNK N   1      34.366  17.768   6.115  0.00  0.00    -0.194 OA
ENDBRANCH  16  17
ENDBRANCH  15  16
ENDBRANCH  14  15
ENDBRANCH  13  14
ENDBRANCH  12  13
ENDBRANCH  11  12
ENDBRANCH   1  11
TORSDOF 15
ENDMDL
MODEL 6
REMARK VINA RESULT:      -4.4      4.160      6.413
REMARK  15 active torsions:
REMARK  status: ('A' for Active; 'I' for Inactive)
REMARK    1  A    between atoms: C_2  and  C_3 
REMARK    2  A    between atoms: C_3  and  C_4 
REMARK    3  A    between atoms: C_4  and  C_5 
REMARK    4  A    between atoms: C_5  and  C_6 
REMARK    5  A    between atoms: C_6  and  C_7 
REMARK    6  A    between atoms: C_7  and  C_8 
REMARK    7  A    between atoms: C_8  and  C_9 
REMARK    8  A    between atoms: C_9  and  C_10 
REMARK    9  A    between atoms: C_10  and  C_11 
REMARK   10  A    between atoms: C_11  and  C_12 
REMARK   11  A    between atoms: C_12  and  C_13 
REMARK   12  A    between atoms: C_13  and  C_14 
REMARK   13  A    between atoms: C_14  and  C_15 
REMARK   14  A    between atoms: C_15  and  C_16 
REMARK   15  A    between atoms: C_16  and  S_17 
ROOT
HETATM    1  C   UNK N   1      27.424  22.282  -7.326  0.00  0.00     0.000 C 
ENDROOT
BRANCH   1   2
HETATM    2  C   UNK N   1      28.586  22.499  -6.387  0.00  0.00     0.000 C 
BRANCH   2   3
HETATM    3  C   UNK N   1      29.528  21.321  -6.491  0.00  0.00     0.000 C 
BRANCH   3   4
HETATM    4  C   UNK N   1      30.708  21.561  -5.581  0.00  0.00     0.000 C 
BRANCH   4   5
HETATM    5  C   UNK N   1      30.337  21.230  -4.154  0.00  0.00     0.000 C 
BRANCH   5   6
HETATM    6  C   UNK N   1      31.076  22.185  -3.246  0.00  0.00     0.000 C 
BRANCH   6   7
HETATM    7  C   UNK N   1      30.120  22.832  -2.269  0.00  0.00     0.000 C 
BRANCH   7   8
HETATM    8  C   UNK N   1      29.341  23.899  -3.007  0.00  0.00    -0.000 C 
BRANCH   8   9
HETATM    9  C   UNK N   1      30.289  24.920  -3.594  0.00  0.00    -0.005 C 
HETATM   10  C   UNK N   1      29.607  25.615  -4.754  0.00  0.00     0.005 C 
ENDBRANCH   8   9
ENDBRANCH   7   8
ENDBRANCH   6   7
ENDBRANCH   5   6
ENDBRANCH   4   5
ENDBRANCH   3   4
ENDBRANCH   2   3
ENDBRANCH   1   2
BRANCH   1  11
HETATM   11  C   UNK N   1      26.238  23.099  -6.857  0.00  0.00     0.000 C 
BRANCH  11  12
HETATM   12  C   UNK N   1      26.536  23.656  -5.481  0.00  0.00     0.000 C 
BRANCH  12  13
HETATM   13  C   UNK N   1      25.597  24.802  -5.142  0.00  0.00     0.000 C 
BRANCH  13  14
HETATM   14  C   UNK N   1      25.886  26.005  -6.029  0.00  0.00     0.001 C 
BRANCH  14  15
HETATM   15  C   UNK N   1      25.049  27.218  -5.641  0.00  0.00     0.018 C 
BRANCH  15  16
HETATM   16  C   UNK N   1      25.380  27.664  -4.229  0.00  0.00     0.175 C 
BRANCH  16  17
HETATM   17  S   UNK N   1      26.692  28.930  -4.188  0.00  0.00     0.300 S 
HETATM   18  F   UNK N   1      27.278  29.848  -5.505  0.00  0.00    -0.105 F 
HETATM   19  O   UNK N   1      26.293  29.931  -3.095  0.00  0.00    -0.194 OA
HETATM   20  O   UNK N   1      27.928  28.337  -3.492  0.00  0.00    -0.194 OA
ENDBRANCH  16  17
ENDBRANCH  15  16
ENDBRANCH  14  15
ENDBRANCH  13  14
ENDBRANCH  12  13
ENDBRANCH  11  12
ENDBRANCH   1  11
TORSDOF 15
ENDMDL
MODEL 7
REMARK VINA RESULT:      -4.3     19.291     22.167
REMARK  15 active torsions:
REMARK  status: ('A' for Active; 'I' for Inactive)
REMARK    1  A    between atoms: C_2  and  C_3 
REMARK    2  A    between atoms: C_3  and  C_4 
REMARK    3  A    between atoms: C_4  and  C_5 
REMARK    4  A    between atoms: C_5  and  C_6 
REMARK    5  A    between atoms: C_6  and  C_7 
REMARK    6  A    between atoms: C_7  and  C_8 
REMARK    7  A    between atoms: C_8  and  C_9 
REMARK    8  A    between atoms: C_9  and  C_10 
REMARK    9  A    between atoms: C_10  and  C_11 
REMARK   10  A    between atoms: C_11  and  C_12 
REMARK   11  A    between atoms: C_12  and  C_13 
REMARK   12  A    between atoms: C_13  and  C_14 
REMARK   13  A    between atoms: C_14  and  C_15 
REMARK   14  A    between atoms: C_15  and  C_16 
REMARK   15  A    between atoms: C_16  and  S_17 
ROOT
HETATM    1  C   UNK N   1      34.250  10.659  11.937  0.00  0.00     0.000 C 
ENDROOT
BRANCH   1   2
HETATM    2  C   UNK N   1      35.542  10.439  12.688  0.00  0.00     0.000 C 
BRANCH   2   3
HETATM    3  C   UNK N   1      35.259   9.609  13.919  0.00  0.00     0.000 C 
BRANCH   3   4
HETATM    4  C   UNK N   1      34.324  10.379  14.819  0.00  0.00     0.000 C 
BRANCH   4   5
HETATM    5  C   UNK N   1      34.652  10.101  16.268  0.00  0.00     0.000 C 
BRANCH   5   6
HETATM    6  C   UNK N   1      35.040  11.408  16.919  0.00  0.00     0.000 C 
BRANCH   6   7
HETATM    7  C   UNK N   1      34.855  12.555  15.952  0.00  0.00     0.000 C 
BRANCH   7   8
HETATM    8  C   UNK N   1      36.093  13.423  16.007  0.00  0.00    -0.000 C 
BRANCH   8   9
HETATM    9  C   UNK N   1      36.684  13.571  14.623  0.00  0.00    -0.005 C 
HETATM   10  C   UNK N   1      35.567  13.837  13.636  0.00  0.00     0.005 C 
ENDBRANCH   8   9
ENDBRANCH   7   8
ENDBRANCH   6   7
ENDBRANCH   5   6
ENDBRANCH   4   5
ENDBRANCH   3   4
ENDBRANCH   2   3
ENDBRANCH   1   2
BRANCH   1  11
HETATM   11  C   UNK N   1      34.558  10.994  10.493  0.00  0.00     0.000 C 
BRANCH  11  12
HETATM   12  C   UNK N   1      34.736  12.493  10.362  0.00  0.00     0.000 C 
BRANCH  12  13
HETATM   13  C   UNK N   1      34.753  12.914   8.902  0.00  0.00     0.000 C 
BRANCH  13  14
HETATM   14  C   UNK N   1      35.326  14.317   8.760  0.00  0.00     0.001 C 
BRANCH  14  15
HETATM   15  C   UNK N   1      34.243  15.387   8.808  0.00  0.00     0.018 C 
BRANCH  15  16
HETATM   16  C   UNK N   1      34.821  16.709   9.278  0.00  0.00     0.175 C 
BRANCH  16  17
HETATM   17  S   UNK N   1      34.283  18.111   8.242  0.00  0.00     0.300 S 
HETATM   18  F   UNK N   1      32.728  18.822   8.198  0.00  0.00    -0.105 F 
HETATM   19  O   UNK N   1      35.281  19.249   8.501  0.00  0.00    -0.194 OA
HETATM   20  O   UNK N   1      34.665  17.821   6.782  0.00  0.00    -0.194 OA
ENDBRANCH  16  17
ENDBRANCH  15  16
ENDBRANCH  14  15
ENDBRANCH  13  14
ENDBRANCH  12  13
ENDBRANCH  11  12
ENDBRANCH   1  11
TORSDOF 15
ENDMDL
MODEL 8
REMARK VINA RESULT:      -4.3      2.672      4.537
REMARK  15 active torsions:
REMARK  status: ('A' for Active; 'I' for Inactive)
REMARK    1  A    between atoms: C_2  and  C_3 
REMARK    2  A    between atoms: C_3  and  C_4 
REMARK    3  A    between atoms: C_4  and  C_5 
REMARK    4  A    between atoms: C_5  and  C_6 
REMARK    5  A    between atoms: C_6  and  C_7 
REMARK    6  A    between atoms: C_7  and  C_8 
REMARK    7  A    between atoms: C_8  and  C_9 
REMARK    8  A    between atoms: C_9  and  C_10 
REMARK    9  A    between atoms: C_10  and  C_11 
REMARK   10  A    between atoms: C_11  and  C_12 
REMARK   11  A    between atoms: C_12  and  C_13 
REMARK   12  A    between atoms: C_13  and  C_14 
REMARK   13  A    between atoms: C_14  and  C_15 
REMARK   14  A    between atoms: C_15  and  C_16 
REMARK   15  A    between atoms: C_16  and  S_17 
ROOT
HETATM    1  C   UNK N   1      30.738  23.389  -3.154  0.00  0.00     0.000 C 
ENDROOT
BRANCH   1   2
HETATM    2  C   UNK N   1      29.703  24.441  -3.473  0.00  0.00     0.000 C 
BRANCH   2   3
HETATM    3  C   UNK N   1      28.336  23.915  -3.100  0.00  0.00     0.000 C 
BRANCH   3   4
HETATM    4  C   UNK N   1      27.291  24.698  -3.857  0.00  0.00     0.000 C 
BRANCH   4   5
HETATM    5  C   UNK N   1      27.130  24.133  -5.250  0.00  0.00     0.000 C 
BRANCH   5   6
HETATM    6  C   UNK N   1      25.735  24.465  -5.730  0.00  0.00     0.000 C 
BRANCH   6   7
HETATM    7  C   UNK N   1      25.793  25.284  -6.999  0.00  0.00     0.000 C 
BRANCH   7   8
HETATM    8  C   UNK N   1      25.891  26.744  -6.614  0.00  0.00    -0.000 C 
BRANCH   8   9
HETATM    9  C   UNK N   1      24.797  27.095  -5.632  0.00  0.00    -0.005 C 
HETATM   10  C   UNK N   1      25.395  27.890  -4.490  0.00  0.00     0.005 C 
ENDBRANCH   8   9
ENDBRANCH   7   8
ENDBRANCH   6   7
ENDBRANCH   5   6
ENDBRANCH   4   5
ENDBRANCH   3   4
ENDBRANCH   2   3
ENDBRANCH   1   2
BRANCH   1  11
HETATM   11  C   UNK N   1      30.043  22.094  -2.786  0.00  0.00     0.000 C 
BRANCH  11  12
HETATM   12  C   UNK N   1      30.621  20.970  -3.621  0.00  0.00     0.000 C 
BRANCH  12  13
HETATM   13  C   UNK N   1      30.482  21.266  -5.105  0.00  0.00     0.000 C 
BRANCH  13  14
HETATM   14  C   UNK N   1      31.089  20.141  -5.930  0.00  0.00     0.001 C 
BRANCH  14  15
HETATM   15  C   UNK N   1      32.540  20.420  -6.303  0.00  0.00     0.018 C 
BRANCH  15  16
HETATM   16  C   UNK N   1      33.480  19.646  -5.397  0.00  0.00     0.175 C 
BRANCH  16  17
HETATM   17  S   UNK N   1      34.254  20.705  -4.130  0.00  0.00     0.300 S 
HETATM   18  F   UNK N   1      33.775  20.874  -2.497  0.00  0.00    -0.105 F 
HETATM   19  O   UNK N   1      35.746  20.344  -4.117  0.00  0.00    -0.194 OA
HETATM   20  O   UNK N   1      34.384  22.131  -4.690  0.00  0.00    -0.194 OA
ENDBRANCH  16  17
ENDBRANCH  15  16
ENDBRANCH  14  15
ENDBRANCH  13  14
ENDBRANCH  12  13
ENDBRANCH  11  12
ENDBRANCH   1  11
TORSDOF 15
ENDMDL
MODEL 9
REMARK VINA RESULT:      -4.3      3.872      6.091
REMARK  15 active torsions:
REMARK  status: ('A' for Active; 'I' for Inactive)
REMARK    1  A    between atoms: C_2  and  C_3 
REMARK    2  A    between atoms: C_3  and  C_4 
REMARK    3  A    between atoms: C_4  and  C_5 
REMARK    4  A    between atoms: C_5  and  C_6 
REMARK    5  A    between atoms: C_6  and  C_7 
REMARK    6  A    between atoms: C_7  and  C_8 
REMARK    7  A    between atoms: C_8  and  C_9 
REMARK    8  A    between atoms: C_9  and  C_10 
REMARK    9  A    between atoms: C_10  and  C_11 
REMARK   10  A    between atoms: C_11  and  C_12 
REMARK   11  A    between atoms: C_12  and  C_13 
REMARK   12  A    between atoms: C_13  and  C_14 
REMARK   13  A    between atoms: C_14  and  C_15 
REMARK   14  A    between atoms: C_15  and  C_16 
REMARK   15  A    between atoms: C_16  and  S_17 
ROOT
HETATM    1  C   UNK N   1      25.984  28.295  -4.137  0.00  0.00     0.000 C 
ENDROOT
BRANCH   1   2
HETATM    2  C   UNK N   1      26.931  27.408  -3.363  0.00  0.00     0.000 C 
BRANCH   2   3
HETATM    3  C   UNK N   1      28.297  27.468  -4.008  0.00  0.00     0.000 C 
BRANCH   3   4
HETATM    4  C   UNK N   1      28.755  26.061  -4.303  0.00  0.00     0.000 C 
BRANCH   4   5
HETATM    5  C   UNK N   1      27.805  25.064  -3.679  0.00  0.00     0.000 C 
BRANCH   5   6
HETATM    6  C   UNK N   1      28.597  23.831  -3.310  0.00  0.00     0.000 C 
BRANCH   6   7
HETATM    7  C   UNK N   1      30.079  24.088  -3.467  0.00  0.00     0.000 C 
BRANCH   7   8
HETATM    8  C   UNK N   1      30.827  22.977  -2.764  0.00  0.00    -0.000 C 
BRANCH   8   9
HETATM    9  C   UNK N   1      32.045  22.583  -3.568  0.00  0.00    -0.005 C 
HETATM   10  C   UNK N   1      32.625  21.309  -2.991  0.00  0.00     0.005 C 
ENDBRANCH   8   9
ENDBRANCH   7   8
ENDBRANCH   6   7
ENDBRANCH   5   6
ENDBRANCH   4   5
ENDBRANCH   3   4
ENDBRANCH   2   3
ENDBRANCH   1   2
BRANCH   1  11
HETATM   11  C   UNK N   1      25.851  27.775  -5.553  0.00  0.00     0.000 C 
BRANCH  11  12
HETATM   12  C   UNK N   1      24.784  26.701  -5.586  0.00  0.00     0.000 C 
BRANCH  12  13
HETATM   13  C   UNK N   1      25.345  25.391  -6.113  0.00  0.00     0.000 C 
BRANCH  13  14
HETATM   14  C   UNK N   1      26.435  25.656  -7.142  0.00  0.00     0.001 C 
BRANCH  14  15
HETATM   15  C   UNK N   1      26.882  24.380  -7.845  0.00  0.00     0.018 C 
BRANCH  15  16
HETATM   16  C   UNK N   1      26.587  23.166  -6.984  0.00  0.00     0.175 C 
BRANCH  16  17
HETATM   17  S   UNK N   1      25.328  22.075  -7.727  0.00  0.00     0.300 S 
HETATM   18  F   UNK N   1      25.596  20.583  -8.519  0.00  0.00    -0.105 F 
HETATM   19  O   UNK N   1      24.282  21.814  -6.635  0.00  0.00    -0.194 OA
HETATM   20  O   UNK N   1      24.447  22.910  -8.671  0.00  0.00    -0.194 OA
ENDBRANCH  16  17
ENDBRANCH  15  16
ENDBRANCH  14  15
ENDBRANCH  13  14
ENDBRANCH  12  13
ENDBRANCH  11  12
ENDBRANCH   1  11
TORSDOF 15
ENDMDL
