MODEL 1
REMARK VINA RESULT:      -4.1      0.000      0.000
REMARK  9 active torsions:
REMARK  status: ('A' for Active; 'I' for Inactive)
REMARK    1  A    between atoms: O_1  and  C_2 
REMARK    2  A    between atoms: C_2  and  C_3 
REMARK    3  A    between atoms: C_3  and  O_4 
REMARK    4  A    between atoms: O_4  and  C_5 
REMARK    5  A    between atoms: C_5  and  C_6 
REMARK    6  A    between atoms: C_6  and  O_7 
REMARK    7  A    between atoms: O_7  and  C_8 
REMARK    8  A    between atoms: C_8  and  C_9 
REMARK    9  A    between atoms: C_9  and  O_10 
ROOT
HETATM    1  C   UNK N   1      34.617  15.382  10.554  0.00  0.00     0.193 C 
ENDROOT
BRANCH   1   2
HETATM    2  O   UNK N   1      34.221  14.680  11.686  0.00  0.00    -0.387 OA
BRANCH   2   3
HETATM    3  C   UNK N   1      35.234  13.747  11.880  0.00  0.00     0.193 C 
BRANCH   3   4
HETATM    4  C   UNK N   1      35.598  13.698  13.345  0.00  0.00     0.190 C 
BRANCH   4   5
HETATM    5  O   UNK N   1      36.866  14.249  13.520  0.00  0.00    -0.399 OA
HETATM    6  H   UNK N   1      37.640  13.822  13.120  0.00  0.00     0.209 HD
ENDBRANCH   4   5
ENDBRANCH   3   4
ENDBRANCH   2   3
ENDBRANCH   1   2
BRANCH   1   7
HETATM    7  C   UNK N   1      35.676  16.386  10.937  0.00  0.00     0.193 C 
BRANCH   7   8
HETATM    8  O   UNK N   1      35.508  17.539  10.179  0.00  0.00    -0.387 OA
BRANCH   8   9
HETATM    9  C   UNK N   1      34.611  17.163   9.184  0.00  0.00     0.193 C 
BRANCH   9  10
HETATM   10  C   UNK N   1      34.479  18.281   8.177  0.00  0.00     0.190 C 
BRANCH  10  11
HETATM   11  O   UNK N   1      35.343  19.315   8.527  0.00  0.00    -0.399 OA
HETATM   12  H   UNK N   1      36.013  19.622   7.897  0.00  0.00     0.209 HD
ENDBRANCH  10  11
ENDBRANCH   9  10
ENDBRANCH   8   9
ENDBRANCH   7   8
ENDBRANCH   1   7
TORSDOF 9
ENDMDL
MODEL 2
REMARK VINA RESULT:      -4.0      0.919      5.341
REMARK  9 active torsions:
REMARK  status: ('A' for Active; 'I' for Inactive)
REMARK    1  A    between atoms: O_1  and  C_2 
REMARK    2  A    between atoms: C_2  and  C_3 
REMARK    3  A    between atoms: C_3  and  O_4 
REMARK    4  A    between atoms: O_4  and  C_5 
REMARK    5  A    between atoms: C_5  and  C_6 
REMARK    6  A    between atoms: C_6  and  O_7 
REMARK    7  A    between atoms: O_7  and  C_8 
REMARK    8  A    between atoms: C_8  and  C_9 
REMARK    9  A    between atoms: C_9  and  O_10 
ROOT
HETATM    1  C   UNK N   1      35.728  16.372  11.027  0.00  0.00     0.193 C 
ENDROOT
BRANCH   1   2
HETATM    2  O   UNK N   1      35.613  17.480  10.195  0.00  0.00    -0.387 OA
BRANCH   2   3
HETATM    3  C   UNK N   1      34.570  17.154   9.336  0.00  0.00     0.193 C 
BRANCH   3   4
HETATM    4  C   UNK N   1      34.505  18.167   8.217  0.00  0.00     0.190 C 
BRANCH   4   5
HETATM    5  O   UNK N   1      35.311  19.256   8.539  0.00  0.00    -0.399 OA
HETATM    6  H   UNK N   1      36.276  19.157   8.562  0.00  0.00     0.209 HD
ENDBRANCH   4   5
ENDBRANCH   3   4
ENDBRANCH   2   3
ENDBRANCH   1   2
BRANCH   1   7
HETATM    7  C   UNK N   1      34.502  15.506  10.874  0.00  0.00     0.193 C 
BRANCH   7   8
HETATM    8  O   UNK N   1      34.560  14.466  11.793  0.00  0.00    -0.387 OA
BRANCH   8   9
HETATM    9  C   UNK N   1      35.776  14.654  12.442  0.00  0.00     0.193 C 
BRANCH   9  10
HETATM   10  C   UNK N   1      35.806  13.824  13.705  0.00  0.00     0.190 C 
BRANCH  10  11
HETATM   11  O   UNK N   1      34.614  13.112  13.811  0.00  0.00    -0.399 OA
HETATM   12  H   UNK N   1      34.604  12.246  14.248  0.00  0.00     0.209 HD
ENDBRANCH  10  11
ENDBRANCH   9  10
ENDBRANCH   8   9
ENDBRANCH   7   8
ENDBRANCH   1   7
TORSDOF 9
ENDMDL
MODEL 3
REMARK VINA RESULT:      -3.9     16.699     17.648
REMARK  9 active torsions:
REMARK  status: ('A' for Active; 'I' for Inactive)
REMARK    1  A    between atoms: O_1  and  C_2 
REMARK    2  A    between atoms: C_2  and  C_3 
REMARK    3  A    between atoms: C_3  and  O_4 
REMARK    4  A    between atoms: O_4  and  C_5 
REMARK    5  A    between atoms: C_5  and  C_6 
REMARK    6  A    between atoms: C_6  and  O_7 
REMARK    7  A    between atoms: O_7  and  C_8 
REMARK    8  A    between atoms: C_8  and  C_9 
REMARK    9  A    between atoms: C_9  and  O_10 
ROOT
HETATM    1  C   UNK N   1      20.073  18.330   3.203  0.00  0.00     0.193 C 
ENDROOT
BRANCH   1   2
HETATM    2  O   UNK N   1      20.766  17.698   2.177  0.00  0.00    -0.387 OA
BRANCH   2   3
HETATM    3  C   UNK N   1      20.035  16.540   1.936  0.00  0.00     0.193 C 
BRANCH   3   4
HETATM    4  C   UNK N   1      19.765  16.417   0.455  0.00  0.00     0.190 C 
BRANCH   4   5
HETATM    5  O   UNK N   1      20.278  17.535  -0.199  0.00  0.00    -0.399 OA
HETATM    6  H   UNK N   1      20.127  17.654  -1.149  0.00  0.00     0.209 HD
ENDBRANCH   4   5
ENDBRANCH   3   4
ENDBRANCH   2   3
ENDBRANCH   1   2
BRANCH   1   7
HETATM    7  C   UNK N   1      20.962  19.373   3.835  0.00  0.00     0.193 C 
BRANCH   7   8
HETATM    8  O   UNK N   1      20.554  20.634   3.419  0.00  0.00    -0.387 OA
BRANCH   8   9
HETATM    9  C   UNK N   1      21.399  20.930   2.354  0.00  0.00     0.193 C 
BRANCH   9  10
HETATM   10  C   UNK N   1      20.574  21.186   1.114  0.00  0.00     0.190 C 
BRANCH  10  11
HETATM   11  O   UNK N   1      20.792  20.159   0.200  0.00  0.00    -0.399 OA
HETATM   12  H   UNK N   1      20.915  19.249   0.513  0.00  0.00     0.209 HD
ENDBRANCH  10  11
ENDBRANCH   9  10
ENDBRANCH   8   9
ENDBRANCH   7   8
ENDBRANCH   1   7
TORSDOF 9
ENDMDL
MODEL 4
REMARK VINA RESULT:      -3.8      2.094      2.267
REMARK  9 active torsions:
REMARK  status: ('A' for Active; 'I' for Inactive)
REMARK    1  A    between atoms: O_1  and  C_2 
REMARK    2  A    between atoms: C_2  and  C_3 
REMARK    3  A    between atoms: C_3  and  O_4 
REMARK    4  A    between atoms: O_4  and  C_5 
REMARK    5  A    between atoms: C_5  and  C_6 
REMARK    6  A    between atoms: C_6  and  O_7 
REMARK    7  A    between atoms: O_7  and  C_8 
REMARK    8  A    between atoms: C_8  and  C_9 
REMARK    9  A    between atoms: C_9  and  O_10 
ROOT
HETATM    1  C   UNK N   1      35.968  15.260  10.047  0.00  0.00     0.193 C 
ENDROOT
BRANCH   1   2
HETATM    2  O   UNK N   1      37.349  15.125  10.130  0.00  0.00    -0.387 OA
BRANCH   2   3
HETATM    3  C   UNK N   1      37.611  13.912   9.503  0.00  0.00     0.193 C 
BRANCH   3   4
HETATM    4  C   UNK N   1      38.630  13.140  10.308  0.00  0.00     0.190 C 
BRANCH   4   5
HETATM    5  O   UNK N   1      38.202  13.060  11.631  0.00  0.00    -0.399 OA
HETATM    6  H   UNK N   1      38.138  13.865  12.170  0.00  0.00     0.209 HD
ENDBRANCH   4   5
ENDBRANCH   3   4
ENDBRANCH   2   3
ENDBRANCH   1   2
BRANCH   1   7
HETATM    7  C   UNK N   1      35.524  16.392  10.939  0.00  0.00     0.193 C 
BRANCH   7   8
HETATM    8  O   UNK N   1      35.434  17.558  10.187  0.00  0.00    -0.387 OA
BRANCH   8   9
HETATM    9  C   UNK N   1      34.500  17.254   9.201  0.00  0.00     0.193 C 
BRANCH   9  10
HETATM   10  C   UNK N   1      34.521  18.330   8.140  0.00  0.00     0.190 C 
BRANCH  10  11
HETATM   11  O   UNK N   1      35.381  19.349   8.540  0.00  0.00    -0.399 OA
HETATM   12  H   UNK N   1      35.155  19.903   9.304  0.00  0.00     0.209 HD
ENDBRANCH  10  11
ENDBRANCH   9  10
ENDBRANCH   8   9
ENDBRANCH   7   8
ENDBRANCH   1   7
TORSDOF 9
ENDMDL
MODEL 5
REMARK VINA RESULT:      -3.7      4.393      5.996
REMARK  9 active torsions:
REMARK  status: ('A' for Active; 'I' for Inactive)
REMARK    1  A    between atoms: O_1  and  C_2 
REMARK    2  A    between atoms: C_2  and  C_3 
REMARK    3  A    between atoms: C_3  and  O_4 
REMARK    4  A    between atoms: O_4  and  C_5 
REMARK    5  A    between atoms: C_5  and  C_6 
REMARK    6  A    between atoms: C_6  and  O_7 
REMARK    7  A    between atoms: O_7  and  C_8 
REMARK    8  A    between atoms: C_8  and  C_9 
REMARK    9  A    between atoms: C_9  and  O_10 
ROOT
HETATM    1  C   UNK N   1      32.317  17.738   8.170  0.00  0.00     0.193 C 
ENDROOT
BRANCH   1   2
HETATM    2  O   UNK N   1      32.992  16.770   8.904  0.00  0.00    -0.387 OA
BRANCH   2   3
HETATM    3  C   UNK N   1      34.294  17.251   8.986  0.00  0.00     0.193 C 
BRANCH   3   4
HETATM    4  C   UNK N   1      34.440  18.459   8.090  0.00  0.00     0.190 C 
BRANCH   4   5
HETATM    5  O   UNK N   1      35.419  19.301   8.613  0.00  0.00    -0.399 OA
HETATM    6  H   UNK N   1      35.630  19.272   9.559  0.00  0.00     0.209 HD
ENDBRANCH   4   5
ENDBRANCH   3   4
ENDBRANCH   2   3
ENDBRANCH   1   2
BRANCH   1   7
HETATM    7  C   UNK N   1      30.855  17.712   8.539  0.00  0.00     0.193 C 
BRANCH   7   8
HETATM    8  O   UNK N   1      30.091  17.689   7.378  0.00  0.00    -0.387 OA
BRANCH   8   9
HETATM    9  C   UNK N   1      28.828  17.296   7.810  0.00  0.00     0.193 C 
BRANCH   9  10
HETATM   10  C   UNK N   1      28.627  17.737   9.241  0.00  0.00     0.190 C 
BRANCH  10  11
HETATM   11  O   UNK N   1      27.360  18.299   9.371  0.00  0.00    -0.399 OA
HETATM   12  H   UNK N   1      27.255  19.263   9.380  0.00  0.00     0.209 HD
ENDBRANCH  10  11
ENDBRANCH   9  10
ENDBRANCH   8   9
ENDBRANCH   7   8
ENDBRANCH   1   7
TORSDOF 9
ENDMDL
MODEL 6
REMARK VINA RESULT:      -3.7      2.173      3.467
REMARK  9 active torsions:
REMARK  status: ('A' for Active; 'I' for Inactive)
REMARK    1  A    between atoms: O_1  and  C_2 
REMARK    2  A    between atoms: C_2  and  C_3 
REMARK    3  A    between atoms: C_3  and  O_4 
REMARK    4  A    between atoms: O_4  and  C_5 
REMARK    5  A    between atoms: C_5  and  C_6 
REMARK    6  A    between atoms: C_6  and  O_7 
REMARK    7  A    between atoms: O_7  and  C_8 
REMARK    8  A    between atoms: C_8  and  C_9 
REMARK    9  A    between atoms: C_9  and  O_10 
ROOT
HETATM    1  C   UNK N   1      34.768  17.102   8.979  0.00  0.00     0.193 C 
ENDROOT
BRANCH   1   2
HETATM    2  O   UNK N   1      35.395  17.517  10.148  0.00  0.00    -0.387 OA
BRANCH   2   3
HETATM    3  C   UNK N   1      35.335  16.404  10.980  0.00  0.00     0.193 C 
BRANCH   3   4
HETATM    4  C   UNK N   1      34.434  15.361  10.359  0.00  0.00     0.190 C 
BRANCH   4   5
HETATM    5  O   UNK N   1      33.515  14.926  11.310  0.00  0.00    -0.399 OA
HETATM    6  H   UNK N   1      33.381  15.435  12.125  0.00  0.00     0.209 HD
ENDBRANCH   4   5
ENDBRANCH   3   4
ENDBRANCH   2   3
ENDBRANCH   1   2
BRANCH   1   7
HETATM    7  C   UNK N   1      34.399  18.311   8.156  0.00  0.00     0.193 C 
BRANCH   7   8
HETATM    8  O   UNK N   1      33.023  18.498   8.210  0.00  0.00    -0.387 OA
BRANCH   8   9
HETATM    9  C   UNK N   1      32.498  17.280   7.787  0.00  0.00     0.193 C 
BRANCH   9  10
HETATM   10  C   UNK N   1      31.088  17.132   8.308  0.00  0.00     0.190 C 
BRANCH  10  11
HETATM   11  O   UNK N   1      30.875  18.064   9.320  0.00  0.00    -0.399 OA
HETATM   12  H   UNK N   1      30.732  18.998   9.098  0.00  0.00     0.209 HD
ENDBRANCH  10  11
ENDBRANCH   9  10
ENDBRANCH   8   9
ENDBRANCH   7   8
ENDBRANCH   1   7
TORSDOF 9
ENDMDL
MODEL 7
REMARK VINA RESULT:      -3.6     13.797     16.078
REMARK  9 active torsions:
REMARK  status: ('A' for Active; 'I' for Inactive)
REMARK    1  A    between atoms: O_1  and  C_2 
REMARK    2  A    between atoms: C_2  and  C_3 
REMARK    3  A    between atoms: C_3  and  O_4 
REMARK    4  A    between atoms: O_4  and  C_5 
REMARK    5  A    between atoms: C_5  and  C_6 
REMARK    6  A    between atoms: C_6  and  O_7 
REMARK    7  A    between atoms: O_7  and  C_8 
REMARK    8  A    between atoms: C_8  and  C_9 
REMARK    9  A    between atoms: C_9  and  O_10 
ROOT
HETATM    1  C   UNK N   1      21.191  19.120   3.373  0.00  0.00     0.193 C 
ENDROOT
BRANCH   1   2
HETATM    2  O   UNK N   1      20.788  20.435   3.578  0.00  0.00    -0.387 OA
BRANCH   2   3
HETATM    3  C   UNK N   1      21.081  21.071   2.377  0.00  0.00     0.193 C 
BRANCH   3   4
HETATM    4  C   UNK N   1      20.843  20.115   1.231  0.00  0.00     0.190 C 
BRANCH   4   5
HETATM    5  O   UNK N   1      20.780  20.836   0.040  0.00  0.00    -0.399 OA
HETATM    6  H   UNK N   1      21.354  20.595  -0.704  0.00  0.00     0.209 HD
ENDBRANCH   4   5
ENDBRANCH   3   4
ENDBRANCH   2   3
ENDBRANCH   1   2
BRANCH   1   7
HETATM    7  C   UNK N   1      22.357  18.810   4.278  0.00  0.00     0.193 C 
BRANCH   7   8
HETATM    8  O   UNK N   1      23.505  18.660   3.509  0.00  0.00    -0.387 OA
BRANCH   8   9
HETATM    9  C   UNK N   1      24.418  19.537   4.086  0.00  0.00     0.193 C 
BRANCH   9  10
HETATM   10  C   UNK N   1      25.330  20.090   3.015  0.00  0.00     0.190 C 
BRANCH  10  11
HETATM   11  O   UNK N   1      24.572  20.820   2.103  0.00  0.00    -0.399 OA
HETATM   12  H   UNK N   1      23.906  20.372   1.558  0.00  0.00     0.209 HD
ENDBRANCH  10  11
ENDBRANCH   9  10
ENDBRANCH   8   9
ENDBRANCH   7   8
ENDBRANCH   1   7
TORSDOF 9
ENDMDL
MODEL 8
REMARK VINA RESULT:      -3.6      4.401      6.245
REMARK  9 active torsions:
REMARK  status: ('A' for Active; 'I' for Inactive)
REMARK    1  A    between atoms: O_1  and  C_2 
REMARK    2  A    between atoms: C_2  and  C_3 
REMARK    3  A    between atoms: C_3  and  O_4 
REMARK    4  A    between atoms: O_4  and  C_5 
REMARK    5  A    between atoms: C_5  and  C_6 
REMARK    6  A    between atoms: C_6  and  O_7 
REMARK    7  A    between atoms: O_7  and  C_8 
REMARK    8  A    between atoms: C_8  and  C_9 
REMARK    9  A    between atoms: C_9  and  O_10 
ROOT
HETATM    1  C   UNK N   1      30.857  17.365   8.559  0.00  0.00     0.193 C 
ENDROOT
BRANCH   1   2
HETATM    2  O   UNK N   1      30.272  17.549   7.312  0.00  0.00    -0.387 OA
BRANCH   2   3
HETATM    3  C   UNK N   1      28.921  17.725   7.592  0.00  0.00     0.193 C 
BRANCH   3   4
HETATM    4  C   UNK N   1      28.770  18.347   8.961  0.00  0.00     0.190 C 
BRANCH   4   5
HETATM    5  O   UNK N   1      27.449  18.211   9.381  0.00  0.00    -0.399 OA
HETATM    6  H   UNK N   1      26.899  17.492   9.032  0.00  0.00     0.209 HD
ENDBRANCH   4   5
ENDBRANCH   3   4
ENDBRANCH   2   3
ENDBRANCH   1   2
BRANCH   1   7
HETATM    7  C   UNK N   1      32.356  17.297   8.401  0.00  0.00     0.193 C 
BRANCH   7   8
HETATM    8  O   UNK N   1      32.673  17.303   7.048  0.00  0.00    -0.387 OA
BRANCH   8   9
HETATM    9  C   UNK N   1      33.950  17.853   7.001  0.00  0.00     0.193 C 
BRANCH   9  10
HETATM   10  C   UNK N   1      34.463  18.053   8.408  0.00  0.00     0.190 C 
BRANCH  10  11
HETATM   11  O   UNK N   1      35.301  19.164   8.435  0.00  0.00    -0.399 OA
HETATM   12  H   UNK N   1      35.746  19.417   9.260  0.00  0.00     0.209 HD
ENDBRANCH  10  11
ENDBRANCH   9  10
ENDBRANCH   8   9
ENDBRANCH   7   8
ENDBRANCH   1   7
TORSDOF 9
ENDMDL
MODEL 9
REMARK VINA RESULT:      -3.6     12.730     14.719
REMARK  9 active torsions:
REMARK  status: ('A' for Active; 'I' for Inactive)
REMARK    1  A    between atoms: O_1  and  C_2 
REMARK    2  A    between atoms: C_2  and  C_3 
REMARK    3  A    between atoms: C_3  and  O_4 
REMARK    4  A    between atoms: O_4  and  C_5 
REMARK    5  A    between atoms: C_5  and  C_6 
REMARK    6  A    between atoms: C_6  and  O_7 
REMARK    7  A    between atoms: O_7  and  C_8 
REMARK    8  A    between atoms: C_8  and  C_9 
REMARK    9  A    between atoms: C_9  and  O_10 
ROOT
HETATM    1  C   UNK N   1      23.404  19.359   3.698  0.00  0.00     0.193 C 
ENDROOT
BRANCH   1   2
HETATM    2  O   UNK N   1      24.561  18.922   4.334  0.00  0.00    -0.387 OA
BRANCH   2   3
HETATM    3  C   UNK N   1      25.580  19.245   3.445  0.00  0.00     0.193 C 
BRANCH   3   4
HETATM    4  C   UNK N   1      26.911  18.860   4.046  0.00  0.00     0.190 C 
BRANCH   4   5
HETATM    5  O   UNK N   1      27.854  19.837   3.733  0.00  0.00    -0.399 OA
HETATM    6  H   UNK N   1      28.800  19.652   3.846  0.00  0.00     0.209 HD
ENDBRANCH   4   5
ENDBRANCH   3   4
ENDBRANCH   2   3
ENDBRANCH   1   2
BRANCH   1   7
HETATM    7  C   UNK N   1      23.708  20.616   2.922  0.00  0.00     0.193 C 
BRANCH   7   8
HETATM    8  O   UNK N   1      22.521  21.291   2.663  0.00  0.00    -0.387 OA
BRANCH   8   9
HETATM    9  C   UNK N   1      21.665  20.302   2.190  0.00  0.00     0.193 C 
BRANCH   9  10
HETATM   10  C   UNK N   1      20.571  20.937   1.363  0.00  0.00     0.190 C 
BRANCH  10  11
HETATM   11  O   UNK N   1      20.896  20.827   0.014  0.00  0.00    -0.399 OA
HETATM   12  H   UNK N   1      20.243  21.061  -0.664  0.00  0.00     0.209 HD
ENDBRANCH  10  11
ENDBRANCH   9  10
ENDBRANCH   8   9
ENDBRANCH   7   8
ENDBRANCH   1   7
TORSDOF 9
ENDMDL
