REMARK  15 active torsions:
REMARK  status: ('A' for Active; 'I' for Inactive)
REMARK    1  A    between atoms: C_1  and  N_2 
REMARK    2  A    between atoms: C_4  and  O_9 
REMARK    3  A    between atoms: C_7  and  C_14 
REMARK    4  A    between atoms: C_8  and  O_15 
REMARK    5  A    between atoms: C_14  and  O_17 
REMARK    6  A    between atoms: C_16  and  N_18 
REMARK    7  A    between atoms: O_17  and  P_19 
REMARK    8  A    between atoms: P_19  and  O_20 
REMARK    9  A    between atoms: P_19  and  O_21 
REMARK   10  A    between atoms: O_20  and  P_23 
REMARK   11  A    between atoms: P_23  and  O_24 
REMARK   12  A    between atoms: P_23  and  O_25 
REMARK   13  A    between atoms: O_24  and  P_27 
REMARK   14  A    between atoms: P_27  and  O_28 
REMARK   15  A    between atoms: P_27  and  O_29 
ROOT
HETATM    1  C   UNK N   1       3.081  -0.221  -0.296  0.00  0.00     0.263 C 
HETATM    2  O   UNK N   1       2.072   0.223   0.565  0.00  0.00    -0.353 OA
HETATM    3  C   UNK N   1       3.098  -1.720  -0.141  0.00  0.00     0.198 C 
HETATM    4  C   UNK N   1       1.018  -0.667   0.290  0.00  0.00     0.180 C 
HETATM    5  C   UNK N   1       1.621  -1.990  -0.158  0.00  0.00     0.182 C 
ENDROOT
BRANCH   4   6
HETATM    6  C   UNK N   1       0.162  -0.086  -0.826  0.00  0.00     0.215 C 
BRANCH   6   7
HETATM    7  O   UNK N   1      -0.646   0.919  -0.288  0.00  0.00    -0.294 OA
BRANCH   7   8
HETATM    8  P   UNK N   1      -2.272   0.478  -0.719  0.00  0.00     0.401 P 
HETATM    9  O   UNK N   1      -2.397   2.018  -0.558  0.00  0.00    -0.631 OA
BRANCH   8  10
HETATM   10  O   UNK N   1      -3.573   0.615   0.420  0.00  0.00    -0.195 OA
BRANCH  10  11
HETATM   11  P   UNK N   1      -5.014   0.210  -0.462  0.00  0.00     0.410 P 
HETATM   12  O   UNK N   1      -5.330   1.570   0.218  0.00  0.00    -0.631 OA
BRANCH  11  13
HETATM   13  O   UNK N   1      -6.445  -0.122   0.469  0.00  0.00    -0.195 OA
BRANCH  13  14
HETATM   14  P   UNK N   1      -7.731  -0.276  -0.692  0.00  0.00     0.399 P 
HETATM   15  O   UNK N   1      -8.134   1.000   0.096  0.00  0.00    -0.631 OA
BRANCH  14  16
HETATM   16  O   UNK N   1      -7.712  -1.656   0.361  0.00  0.00    -0.307 OA
HETATM   17  H   UNK N   1      -8.375  -2.051   0.949  0.00  0.00     0.222 HD
ENDBRANCH  14  16
BRANCH  14  18
HETATM   18  O   UNK N   1      -9.335  -0.640  -0.141  0.00  0.00    -0.307 OA
HETATM   19  H   UNK N   1      -9.960   0.035   0.168  0.00  0.00     0.222 HD
ENDBRANCH  14  18
ENDBRANCH  13  14
ENDBRANCH  11  13
BRANCH  11  20
HETATM   20  O   UNK N   1      -4.687  -1.050   0.689  0.00  0.00    -0.307 OA
HETATM   21  H   UNK N   1      -5.205  -1.560   1.331  0.00  0.00     0.222 HD
ENDBRANCH  11  20
ENDBRANCH  10  11
ENDBRANCH   8  10
BRANCH   8  22
HETATM   22  O   UNK N   1      -1.927  -0.225   0.836  0.00  0.00    -0.307 OA
HETATM   23  H   UNK N   1      -2.169  -0.587   1.703  0.00  0.00     0.222 HD
ENDBRANCH   8  22
ENDBRANCH   7   8
ENDBRANCH   6   7
ENDBRANCH   4   6
BRANCH   5  24
HETATM   24  O   UNK N   1       1.312  -2.998   0.754  0.00  0.00    -0.390 OA
HETATM   25  H   UNK N   1       0.597  -3.163   1.389  0.00  0.00     0.210 HD
ENDBRANCH   5  24
BRANCH   1  26
HETATM   26  N   UNK N   1       4.328   0.537  -0.103  0.00  0.00    -0.280 N 
HETATM   27  C   UNK N   1       5.554  -0.014   0.242  0.00  0.00     0.330 A 
HETATM   28  N   UNK N   1       6.657   0.792   0.356  0.00  0.00    -0.295 N 
HETATM   29  O   UNK N   1       5.675  -1.209   0.443  0.00  0.00    -0.246 OA
HETATM   30  C   UNK N   1       6.574   2.128   0.140  0.00  0.00     0.103 A 
ATOM     31  HN  UNK N   1       7.556   0.380   0.607  1.00  0.00     0.172 HD
HETATM   32  C   UNK N   1       5.357   2.701  -0.198  0.00  0.00     0.065 A 
HETATM   33  C   UNK N   1       4.242   1.881  -0.317  0.00  0.00     0.102 A 
BRANCH  30  34
HETATM   34  N   UNK N   1       7.723   2.934   0.252  0.00  0.00    -0.385 N 
HETATM   35  H   UNK N   1       8.613   2.520   0.330  0.00  0.00     0.157 HD
HETATM   36  H   UNK N   1       7.637   3.915   0.252  0.00  0.00     0.157 HD
ENDBRANCH  30  34
ENDBRANCH   1  26
BRANCH   3  37
HETATM   37  O   UNK N   1       3.711  -2.335  -1.231  0.00  0.00    -0.388 OA
HETATM   38  H   UNK N   1       3.554  -2.918  -1.990  0.00  0.00     0.210 HD
ENDBRANCH   3  37
TORSDOF 15
