MODEL 1
REMARK VINA RESULT:      -4.1      0.000      0.000
REMARK  3 active torsions:
REMARK  status: ('A' for Active; 'I' for Inactive)
REMARK    1  A    between atoms: C_4  and  C_3 
REMARK    2  A    between atoms: C_5  and  C_4 
REMARK    3  A    between atoms: O_7  and  C_5 
ROOT
HETATM    1  C   UNK N   1      21.341  20.609   2.436  0.00  0.00     0.244 C 
HETATM    2  O   UNK N   1      22.202  21.439   2.676  0.00  0.00    -0.281 OA
ENDROOT
BRANCH   1   3
HETATM    3  C   UNK N   1      20.627  19.911   3.544  0.00  0.00     0.057 C 
HETATM    4  C   UNK N   1      21.112  18.835   4.193  0.00  0.00    -0.027 C 
HETATM    5  C   UNK N   1      22.434  18.211   3.875  0.00  0.00     0.036 C 
ENDBRANCH   1   3
BRANCH   1   6
HETATM    6  C   UNK N   1      21.021  20.310   1.026  0.00  0.00     0.218 C 
HETATM    7  O   UNK N   1      21.262  21.118   0.145  0.00  0.00    -0.644 OA
BRANCH   6   8
HETATM    8  O   UNK N   1      20.454  19.128   0.709  0.00  0.00    -0.770 OA
HETATM    9  H   UNK N   1      19.528  19.015   0.796  0.00  0.00     0.168 HD
ENDBRANCH   6   8
ENDBRANCH   1   6
TORSDOF 3
ENDMDL
MODEL 2
REMARK VINA RESULT:      -4.1     10.736     12.126
REMARK  3 active torsions:
REMARK  status: ('A' for Active; 'I' for Inactive)
REMARK    1  A    between atoms: C_4  and  C_3 
REMARK    2  A    between atoms: C_5  and  C_4 
REMARK    3  A    between atoms: O_7  and  C_5 
ROOT
HETATM    1  C   UNK N   1      22.847  11.761  10.835  0.00  0.00     0.244 C 
HETATM    2  O   UNK N   1      23.201  11.194   9.815  0.00  0.00    -0.281 OA
ENDROOT
BRANCH   1   3
HETATM    3  C   UNK N   1      21.417  12.135  11.040  0.00  0.00     0.057 C 
HETATM    4  C   UNK N   1      20.816  13.177  10.434  0.00  0.00    -0.027 C 
HETATM    5  C   UNK N   1      21.518  14.088   9.477  0.00  0.00     0.036 C 
ENDBRANCH   1   3
BRANCH   1   6
HETATM    6  C   UNK N   1      23.862  12.071  11.861  0.00  0.00     0.218 C 
HETATM    7  O   UNK N   1      23.588  12.013  13.048  0.00  0.00    -0.644 OA
BRANCH   6   8
HETATM    8  O   UNK N   1      25.107  12.423  11.481  0.00  0.00    -0.770 OA
HETATM    9  H   UNK N   1      25.232  13.155  10.909  0.00  0.00     0.168 HD
ENDBRANCH   6   8
ENDBRANCH   1   6
TORSDOF 3
ENDMDL
MODEL 3
REMARK VINA RESULT:      -4.1     12.805     14.178
REMARK  3 active torsions:
REMARK  status: ('A' for Active; 'I' for Inactive)
REMARK    1  A    between atoms: C_4  and  C_3 
REMARK    2  A    between atoms: C_5  and  C_4 
REMARK    3  A    between atoms: O_7  and  C_5 
ROOT
HETATM    1  C   UNK N   1      34.110  17.225   8.985  0.00  0.00     0.244 C 
HETATM    2  O   UNK N   1      34.617  17.170  10.093  0.00  0.00    -0.281 OA
ENDROOT
BRANCH   1   3
HETATM    3  C   UNK N   1      33.033  16.271   8.592  0.00  0.00     0.057 C 
HETATM    4  C   UNK N   1      31.737  16.612   8.459  0.00  0.00    -0.027 C 
HETATM    5  C   UNK N   1      31.223  17.998   8.692  0.00  0.00     0.036 C 
ENDBRANCH   1   3
BRANCH   1   6
HETATM    6  C   UNK N   1      34.586  18.256   8.040  0.00  0.00     0.218 C 
HETATM    7  O   UNK N   1      35.137  19.266   8.443  0.00  0.00    -0.644 OA
BRANCH   6   8
HETATM    8  O   UNK N   1      34.408  18.077   6.716  0.00  0.00    -0.770 OA
HETATM    9  H   UNK N   1      34.839  17.370   6.277  0.00  0.00     0.168 HD
ENDBRANCH   6   8
ENDBRANCH   1   6
TORSDOF 3
ENDMDL
MODEL 4
REMARK VINA RESULT:      -4.1     12.946     13.993
REMARK  3 active torsions:
REMARK  status: ('A' for Active; 'I' for Inactive)
REMARK    1  A    between atoms: C_4  and  C_3 
REMARK    2  A    between atoms: C_5  and  C_4 
REMARK    3  A    between atoms: O_7  and  C_5 
ROOT
HETATM    1  C   UNK N   1      33.741  17.793   7.288  0.00  0.00     0.244 C 
HETATM    2  O   UNK N   1      34.312  17.777   6.210  0.00  0.00    -0.281 OA
ENDROOT
BRANCH   1   3
HETATM    3  C   UNK N   1      32.297  17.433   7.389  0.00  0.00     0.057 C 
HETATM    4  C   UNK N   1      31.844  16.173   7.533  0.00  0.00    -0.027 C 
HETATM    5  C   UNK N   1      32.742  14.979   7.609  0.00  0.00     0.036 C 
ENDBRANCH   1   3
BRANCH   1   6
HETATM    6  C   UNK N   1      34.508  18.177   8.489  0.00  0.00     0.218 C 
HETATM    7  O   UNK N   1      35.267  19.131   8.468  0.00  0.00    -0.644 OA
BRANCH   6   8
HETATM    8  O   UNK N   1      34.368  17.463   9.624  0.00  0.00    -0.770 OA
HETATM    9  H   UNK N   1      35.100  17.345  10.197  0.00  0.00     0.168 HD
ENDBRANCH   6   8
ENDBRANCH   1   6
TORSDOF 3
ENDMDL
MODEL 5
REMARK VINA RESULT:      -4.0      1.564      1.672
REMARK  3 active torsions:
REMARK  status: ('A' for Active; 'I' for Inactive)
REMARK    1  A    between atoms: C_4  and  C_3 
REMARK    2  A    between atoms: C_5  and  C_4 
REMARK    3  A    between atoms: O_7  and  C_5 
ROOT
HETATM    1  C   UNK N   1      20.278  19.920   2.709  0.00  0.00     0.244 C 
HETATM    2  O   UNK N   1      20.297  20.638   3.695  0.00  0.00    -0.281 OA
ENDROOT
BRANCH   1   3
HETATM    3  C   UNK N   1      19.451  18.678   2.688  0.00  0.00     0.057 C 
HETATM    4  C   UNK N   1      19.907  17.464   3.049  0.00  0.00    -0.027 C 
HETATM    5  C   UNK N   1      21.306  17.216   3.517  0.00  0.00     0.036 C 
ENDBRANCH   1   3
BRANCH   1   6
HETATM    6  C   UNK N   1      21.091  20.304   1.538  0.00  0.00     0.218 C 
HETATM    7  O   UNK N   1      22.192  20.810   1.680  0.00  0.00    -0.644 OA
BRANCH   6   8
HETATM    8  O   UNK N   1      20.611  20.092   0.296  0.00  0.00    -0.770 OA
HETATM    9  H   UNK N   1      20.183  19.284   0.091  0.00  0.00     0.168 HD
ENDBRANCH   6   8
ENDBRANCH   1   6
TORSDOF 3
ENDMDL
MODEL 6
REMARK VINA RESULT:      -4.0     13.398     14.707
REMARK  3 active torsions:
REMARK  status: ('A' for Active; 'I' for Inactive)
REMARK    1  A    between atoms: C_4  and  C_3 
REMARK    2  A    between atoms: C_5  and  C_4 
REMARK    3  A    between atoms: O_7  and  C_5 
ROOT
HETATM    1  C   UNK N   1      34.577  18.021   8.352  0.00  0.00     0.244 C 
HETATM    2  O   UNK N   1      35.031  19.153   8.397  0.00  0.00    -0.281 OA
ENDROOT
BRANCH   1   3
HETATM    3  C   UNK N   1      33.735  17.584   7.201  0.00  0.00     0.057 C 
HETATM    4  C   UNK N   1      32.389  17.534   7.229  0.00  0.00    -0.027 C 
HETATM    5  C   UNK N   1      31.577  17.914   8.426  0.00  0.00     0.036 C 
ENDBRANCH   1   3
BRANCH   1   6
HETATM    6  C   UNK N   1      34.879  17.094   9.460  0.00  0.00     0.218 C 
HETATM    7  O   UNK N   1      35.608  17.432  10.378  0.00  0.00    -0.644 OA
BRANCH   6   8
HETATM    8  O   UNK N   1      34.341  15.857   9.458  0.00  0.00    -0.770 OA
HETATM    9  H   UNK N   1      34.860  15.120   9.714  0.00  0.00     0.168 HD
ENDBRANCH   6   8
ENDBRANCH   1   6
TORSDOF 3
ENDMDL
MODEL 7
REMARK VINA RESULT:      -3.9     14.014     14.838
REMARK  3 active torsions:
REMARK  status: ('A' for Active; 'I' for Inactive)
REMARK    1  A    between atoms: C_4  and  C_3 
REMARK    2  A    between atoms: C_5  and  C_4 
REMARK    3  A    between atoms: O_7  and  C_5 
ROOT
HETATM    1  C   UNK N   1      34.262  17.258   9.112  0.00  0.00     0.244 C 
HETATM    2  O   UNK N   1      34.875  17.154  10.162  0.00  0.00    -0.281 OA
ENDROOT
BRANCH   1   3
HETATM    3  C   UNK N   1      33.108  16.360   8.813  0.00  0.00     0.057 C 
HETATM    4  C   UNK N   1      33.228  15.137   8.262  0.00  0.00    -0.027 C 
HETATM    5  C   UNK N   1      34.543  14.532   7.883  0.00  0.00     0.036 C 
ENDBRANCH   1   3
BRANCH   1   6
HETATM    6  C   UNK N   1      34.685  18.289   8.144  0.00  0.00     0.218 C 
HETATM    7  O   UNK N   1      34.431  18.173   6.957  0.00  0.00    -0.644 OA
BRANCH   6   8
HETATM    8  O   UNK N   1      35.362  19.371   8.578  0.00  0.00    -0.770 OA
HETATM    9  H   UNK N   1      35.788  19.354   9.413  0.00  0.00     0.168 HD
ENDBRANCH   6   8
ENDBRANCH   1   6
TORSDOF 3
ENDMDL
MODEL 8
REMARK VINA RESULT:      -3.8     20.348     21.460
REMARK  3 active torsions:
REMARK  status: ('A' for Active; 'I' for Inactive)
REMARK    1  A    between atoms: C_4  and  C_3 
REMARK    2  A    between atoms: C_5  and  C_4 
REMARK    3  A    between atoms: O_7  and  C_5 
ROOT
HETATM    1  C   UNK N   1      35.430  13.270  15.848  0.00  0.00     0.244 C 
HETATM    2  O   UNK N   1      34.505  13.052  15.083  0.00  0.00    -0.281 OA
ENDROOT
BRANCH   1   3
HETATM    3  C   UNK N   1      35.180  13.482  17.304  0.00  0.00     0.057 C 
HETATM    4  C   UNK N   1      35.224  12.502  18.226  0.00  0.00    -0.027 C 
HETATM    5  C   UNK N   1      35.531  11.076  17.897  0.00  0.00     0.036 C 
ENDBRANCH   1   3
BRANCH   1   6
HETATM    6  C   UNK N   1      36.801  13.318  15.304  0.00  0.00     0.218 C 
HETATM    7  O   UNK N   1      37.276  12.359  14.719  0.00  0.00    -0.644 OA
BRANCH   6   8
HETATM    8  O   UNK N   1      37.538  14.437  15.457  0.00  0.00    -0.770 OA
HETATM    9  H   UNK N   1      38.438  14.445  15.193  0.00  0.00     0.168 HD
ENDBRANCH   6   8
ENDBRANCH   1   6
TORSDOF 3
ENDMDL
MODEL 9
REMARK VINA RESULT:      -3.8     11.054     12.249
REMARK  3 active torsions:
REMARK  status: ('A' for Active; 'I' for Inactive)
REMARK    1  A    between atoms: C_4  and  C_3 
REMARK    2  A    between atoms: C_5  and  C_4 
REMARK    3  A    between atoms: O_7  and  C_5 
ROOT
HETATM    1  C   UNK N   1      22.503  12.372  11.147  0.00  0.00     0.244 C 
HETATM    2  O   UNK N   1      21.346  11.998  11.251  0.00  0.00    -0.281 OA
ENDROOT
BRANCH   1   3
HETATM    3  C   UNK N   1      22.944  13.163   9.961  0.00  0.00     0.057 C 
HETATM    4  C   UNK N   1      23.392  12.615   8.815  0.00  0.00    -0.027 C 
HETATM    5  C   UNK N   1      23.500  11.139   8.597  0.00  0.00     0.036 C 
ENDBRANCH   1   3
BRANCH   1   6
HETATM    6  C   UNK N   1      23.457  12.025  12.219  0.00  0.00     0.218 C 
HETATM    7  O   UNK N   1      23.063  11.622  13.300  0.00  0.00    -0.644 OA
BRANCH   6   8
HETATM    8  O   UNK N   1      24.781  12.157  11.999  0.00  0.00    -0.770 OA
HETATM    9  H   UNK N   1      25.386  12.046  12.706  0.00  0.00     0.168 HD
ENDBRANCH   6   8
ENDBRANCH   1   6
TORSDOF 3
ENDMDL
