REMARK  6 active torsions:
REMARK  status: ('A' for Active; 'I' for Inactive)
REMARK    1  A    between atoms: O_1  and  S_2 
REMARK    2  A    between atoms: S_2  and  C_5 
REMARK    3  A    between atoms: C_5  and  C_6 
REMARK    4  A    between atoms: C_6  and  C_7 
REMARK    5  A    between atoms: C_7  and  N_8 
REMARK    6  A    between atoms: N_8  and  C_9 
ROOT
HETATM    1  C   UNK N   1      -0.244  -2.510   0.418  0.00  0.00     0.115 C 
ENDROOT
BRANCH   1   2
HETATM    2  C   UNK N   1      -1.103  -3.547  -0.289  0.00  0.00     0.036 C 
BRANCH   2   3
HETATM    3  C   UNK N   1      -2.464  -3.636   0.388  0.00  0.00     0.157 C 
BRANCH   3   4
HETATM    4  S   UNK N   1      -3.737  -2.789  -0.608  0.00  0.00     0.094 S 
HETATM    5  O   UNK N   1      -4.456  -3.821   0.276  0.00  0.00    -0.601 OA
HETATM    6  O   UNK N   1      -3.241  -1.815   0.474  0.00  0.00    -0.601 OA
BRANCH   4   7
HETATM    7  O   UNK N   1      -5.155  -1.930  -0.160  0.00  0.00    -0.296 OA
HETATM    8  H   UNK N   1      -5.135  -0.994   0.092  0.00  0.00     0.232 HD
ENDBRANCH   4   7
ENDBRANCH   3   4
ENDBRANCH   2   3
ENDBRANCH   1   2
BRANCH   1   9
HETATM    9  N   UNK N   1       0.963  -2.248  -0.354  0.00  0.00    -0.417 N 
HETATM   10  H   UNK N   1       1.026  -1.632  -1.164  0.00  0.00     0.153 HD
BRANCH   9  11
HETATM   11  C   UNK N   1       2.068  -3.010   0.217  0.00  0.00     0.076 C 
HETATM   12  C   UNK N   1       3.387  -2.372  -0.221  0.00  0.00     0.024 C 
HETATM   13  C   UNK N   1       4.579  -3.178   0.293  0.00  0.00     0.002 C 
HETATM   14  C   UNK N   1       4.498  -4.616  -0.211  0.00  0.00     0.000 C 
HETATM   15  C   UNK N   1       3.196  -5.256   0.260  0.00  0.00     0.002 C 
HETATM   16  C   UNK N   1       2.008  -4.461  -0.270  0.00  0.00     0.024 C 
ENDBRANCH   9  11
ENDBRANCH   1   9
TORSDOF 6
