REMARK  11 active torsions:
REMARK  status: ('A' for Active; 'I' for Inactive)
REMARK    1  A    between atoms: C_2  and  C_4 
REMARK    2  A    between atoms: C_4  and  C_5 
REMARK    3  A    between atoms: C_5  and  N_6 
REMARK    4  A    between atoms: N_6  and  C_7 
REMARK    5  A    between atoms: N_6  and  S_33 
REMARK    6  A    between atoms: C_7  and  C_8 
REMARK    7  A    between atoms: C_8  and  O_9 
REMARK    8  A    between atoms: C_10  and  C_8 
REMARK    9  A    between atoms: C_23  and  C_24 
REMARK   10  A    between atoms: C_24  and  C_25 
REMARK       I    between atoms: C_25  and  N_26 
REMARK   11  A    between atoms: S_33  and  C_36 
ROOT
HETATM    1  C   UNK N   1       0.451  -3.166  -0.400  0.00  0.00     0.118 C 
HETATM    2  C   UNK N   1       0.927  -1.744  -0.760  0.00  0.00     0.066 C 
HETATM    3  C   UNK N   1       2.278  -1.373  -0.202  0.00  0.00    -0.056 A 
HETATM    4  C   UNK N   1       3.091  -0.490  -0.918  0.00  0.00     0.010 A 
HETATM    5  C   UNK N   1       4.437  -0.339  -0.569  0.00  0.00     0.037 A 
HETATM    6  C   UNK N   1       4.978  -1.102   0.471  0.00  0.00     0.068 A 
HETATM    7  O   UNK N   1       6.315  -1.116   0.664  0.00  0.00    -0.351 OA
HETATM    8  C   UNK N   1       6.921  -2.171   1.317  0.00  0.00     0.176 C 
HETATM    9  C   UNK N   1       7.405  -3.230   0.318  0.00  0.00     0.036 C 
HETATM   10  C   UNK N   1       6.365  -3.654  -0.732  0.00  0.00     0.105 C 
HETATM   11  C   UNK N   1       5.510  -4.840  -0.358  0.00  0.00     0.218 C 
HETATM   12  O   UNK N   1       6.033  -5.841   0.106  0.00  0.00    -0.274 OA
HETATM   13  N   UNK N   1       4.180  -4.814  -0.662  0.00  0.00    -0.347 N 
HETATM   14  C   UNK N   1       3.195  -5.894  -0.524  0.00  0.00     0.185 C 
HETATM   15  C   UNK N   1       1.801  -5.332  -0.332  0.00  0.00     0.241 C 
HETATM   16  O   UNK N   1       0.866  -6.052  -0.003  0.00  0.00    -0.271 OA
HETATM   17  N   UNK N   1       1.619  -4.015  -0.554  0.00  0.00    -0.352 N 
HETATM   18  C   UNK N   1       4.142  -1.929   1.233  0.00  0.00     0.037 A 
HETATM   19  C   UNK N   1       2.805  -2.054   0.905  0.00  0.00     0.010 A 
HETATM   20  H   UNK N   1       3.838  -3.962  -1.018  0.00  0.00     0.163 HD
HETATM   21  H   UNK N   1       2.420  -3.545  -0.880  0.00  0.00     0.163 HD
ENDROOT
BRANCH   1  22
HETATM   22  C   UNK N   1      -0.094  -3.174   1.044  0.00  0.00     0.155 C 
BRANCH  22  23
HETATM   23  C   UNK N   1      -1.009  -1.989   1.434  0.00  0.00     0.141 C 
BRANCH  23  24
HETATM   24  N   UNK N   1      -2.094  -1.611   0.507  0.00  0.00    -0.204 NA
BRANCH  24  25
HETATM   25  C   UNK N   1      -2.575  -2.661  -0.388  0.00  0.00     0.108 C 
BRANCH  25  26
HETATM   26  C   UNK N   1      -3.669  -3.447   0.320  0.00  0.00     0.019 C 
BRANCH  26  27
HETATM   27  C   UNK N   1      -3.982  -4.758  -0.381  0.00  0.00    -0.022 C 
HETATM   28  C   UNK N   1      -2.855  -5.754  -0.183  0.00  0.00     0.009 C 
HETATM   29  C   UNK N   1      -5.246  -5.339   0.218  0.00  0.00     0.009 C 
ENDBRANCH  26  27
ENDBRANCH  25  26
ENDBRANCH  24  25
BRANCH  24  30
HETATM   30  S   UNK N   1      -1.786  -0.056  -0.320  0.00  0.00     0.243 S 
HETATM   31  O   UNK N   1      -1.412  -0.367  -1.779  0.00  0.00    -0.206 OA
HETATM   32  O   UNK N   1      -0.457   0.466   0.254  0.00  0.00    -0.206 OA
BRANCH  30  33
HETATM   33  C   UNK N   1      -3.021   1.214  -0.156  0.00  0.00     0.074 A 
HETATM   34  C   UNK N   1      -4.312   0.883   0.260  0.00  0.00     0.025 A 
HETATM   35  C   UNK N   1      -5.269   1.887   0.428  0.00  0.00     0.002 A 
HETATM   36  C   UNK N   1      -4.933   3.222   0.184  0.00  0.00     0.000 A 
HETATM   37  C   UNK N   1      -3.640   3.554  -0.232  0.00  0.00     0.002 A 
HETATM   38  C   UNK N   1      -2.683   2.550  -0.400  0.00  0.00     0.025 A 
ENDBRANCH  30  33
ENDBRANCH  24  30
ENDBRANCH  23  24
ENDBRANCH  22  23
BRANCH  22  39
HETATM   39  O   UNK N   1      -0.722  -4.379   1.348  0.00  0.00    -0.392 OA
HETATM   40  H   UNK N   1      -1.667  -4.420   1.561  0.00  0.00     0.210 HD
ENDBRANCH  22  39
ENDBRANCH   1  22
BRANCH  14  41
HETATM   41  C   UNK N   1       3.584  -7.038   0.408  0.00  0.00     0.137 C 
BRANCH  41  42
HETATM   42  C   UNK N   1       3.132  -8.336  -0.188  0.00  0.00     0.217 C 
HETATM   43  N   UNK N   1       4.033  -9.164  -0.749  0.00  0.00    -0.370 N 
HETATM   44  H   UNK N   1       3.839 -10.038  -1.160  0.00  0.00     0.159 HD
HETATM   45  H   UNK N   1       4.973  -8.869  -0.749  0.00  0.00     0.159 HD
HETATM   46  O   UNK N   1       1.949  -8.637  -0.189  0.00  0.00    -0.274 OA
ENDBRANCH  41  42
ENDBRANCH  14  41
TORSDOF 11
