REMARK  29 active torsions:
REMARK  status: ('A' for Active; 'I' for Inactive)
REMARK    1  A    between atoms: C_10  and  C_9 
REMARK    2  A    between atoms: C_19  and  C_9 
REMARK    3  A    between atoms: C_20  and  C_10 
REMARK    4  A    between atoms: C_12  and  C_11 
REMARK    5  A    between atoms: C_21  and  C_11 
REMARK    6  A    between atoms: C_22  and  C_12 
REMARK    7  A    between atoms: C_18  and  C_13 
REMARK    8  A    between atoms: C_23  and  C_13 
REMARK    9  A    between atoms: C_26  and  C_15 
REMARK   10  A    between atoms: N_33  and  C_15 
REMARK   11  A    between atoms: C_29  and  C_16 
REMARK   12  A    between atoms: N_35  and  C_16 
REMARK   13  A    between atoms: O_44  and  C_17 
REMARK   14  A    between atoms: C_27  and  C_20 
REMARK   15  A    between atoms: C_20  and  N_39 
REMARK   16  A    between atoms: C_30  and  C_21 
REMARK   17  A    between atoms: C_21  and  N_37 
REMARK   18  A    between atoms: C_22  and  O_45 
REMARK   19  A    between atoms: C_23  and  O_46 
REMARK   20  A    between atoms: C_31  and  C_24 
REMARK   21  A    between atoms: C_28  and  C_25 
REMARK   22  A    between atoms: C_32  and  C_25 
REMARK   23  A    between atoms: C_25  and  N_41 
REMARK   24  A    between atoms: C_26  and  O_47 
REMARK   25  A    between atoms: C_27  and  O_48 
REMARK   26  A    between atoms: O_50  and  C_29 
REMARK   27  A    between atoms: O_52  and  C_30 
REMARK   28  A    between atoms: O_54  and  C_31 
REMARK   29  A    between atoms: O_56  and  C_32 
ROOT
HETATM    1  C   UNK N   1      -0.516  -2.497  -1.105  0.00  0.00     0.158 C 
ENDROOT
BRANCH   1   2
HETATM    2  C   UNK N   1       0.245  -1.461  -0.298  0.00  0.00     0.038 C 
BRANCH   2   3
HETATM    3  C   UNK N   1       0.850  -1.811   1.065  0.00  0.00     0.040 C 
BRANCH   3   4
HETATM    4  C   UNK N   1       1.265  -0.460   1.513  0.00  0.00    -0.037 C 
HETATM    5  C   UNK N   1       0.124   0.408   2.030  0.00  0.00     0.113 C 
HETATM    6  S   UNK N   1       0.533   2.132   2.443  0.00  0.00    -0.137 SA
HETATM    7  C   UNK N   1       1.579   2.258   0.975  0.00  0.00     0.177 C 
HETATM    8  N   UNK N   1       2.729   1.436   1.250  0.00  0.00    -0.368 N 
HETATM    9  C   UNK N   1       2.517   0.027   1.230  0.00  0.00     0.106 C 
HETATM   10  H   UNK N   1       3.613   1.825   1.442  0.00  0.00     0.161 HD
BRANCH   7  11
HETATM   11  C   UNK N   1       1.891   3.701   0.519  0.00  0.00     0.214 C 
BRANCH  11  12
HETATM   12  C   UNK N   1       3.179   3.732  -0.263  0.00  0.00     0.166 C 
HETATM   13  O   UNK N   1       4.108   4.431   0.113  0.00  0.00    -0.648 OA
BRANCH  12  14
HETATM   14  O   UNK N   1       3.311   2.995  -1.384  0.00  0.00    -0.775 OA
HETATM   15  H   UNK N   1       2.913   2.660  -2.163  0.00  0.00     0.167 HD
ENDBRANCH  12  14
ENDBRANCH  11  12
BRANCH  11  16
HETATM   16  N   UNK N   1       0.862   4.164  -0.404  0.00  0.00    -0.357 N 
HETATM   17  C   UNK N   1      -0.388   4.340  -0.145  0.00  0.00     0.116 C 
ATOM     18  HN  UNK N   1       1.163   4.371  -1.356  1.00  0.00     0.162 HD
BRANCH  17  19
HETATM   19  C   UNK N   1      -1.299   4.772  -1.242  0.00  0.00     0.122 C 
BRANCH  19  20
HETATM   20  C   UNK N   1      -1.732   6.159  -0.957  0.00  0.00    -0.051 A 
HETATM   21  C   UNK N   1      -2.874   6.394  -0.184  0.00  0.00     0.007 A 
HETATM   22  C   UNK N   1      -3.231   7.702   0.147  0.00  0.00     0.001 A 
HETATM   23  C   UNK N   1      -2.444   8.773  -0.289  0.00  0.00     0.000 A 
HETATM   24  C   UNK N   1      -1.303   8.537  -1.062  0.00  0.00     0.001 A 
HETATM   25  C   UNK N   1      -0.945   7.229  -1.391  0.00  0.00     0.007 A 
ENDBRANCH  19  20
ENDBRANCH  17  19
BRANCH  17  26
HETATM   26  O   UNK N   1      -0.886   4.167   1.092  0.00  0.00    -0.349 OA
HETATM   27  H   UNK N   1      -1.164   4.406   1.955  0.00  0.00     0.219 HD
ENDBRANCH  17  26
ENDBRANCH  11  16
ENDBRANCH   7  11
BRANCH   9  28
HETATM   28  C   UNK N   1       3.631  -0.822   0.716  0.00  0.00     0.193 C 
HETATM   29  O   UNK N   1       4.676  -0.299   0.371  0.00  0.00    -0.645 OA
BRANCH  28  30
HETATM   30  O   UNK N   1       3.515  -2.163   0.641  0.00  0.00    -0.772 OA
HETATM   31  H   UNK N   1       2.667  -2.559   0.589  0.00  0.00     0.167 HD
ENDBRANCH  28  30
ENDBRANCH   9  28
ENDBRANCH   3   4
ENDBRANCH   2   3
ENDBRANCH   1   2
BRANCH   1  32
HETATM   32  C   UNK N   1      -1.815  -2.936  -0.501  0.00  0.00     0.135 C 
HETATM   33  N   UNK N   1      -2.541  -3.756  -1.175  0.00  0.00    -0.361 N 
ATOM     34  HN  UNK N   1      -2.247  -3.966  -2.129  1.00  0.00     0.162 HD
BRANCH  33  35
HETATM   35  C   UNK N   1      -3.736  -4.400  -0.692  0.00  0.00     0.153 C 
HETATM   36  C   UNK N   1      -4.892  -4.062  -1.620  0.00  0.00     0.041 C 
BRANCH  35  37
HETATM   37  C   UNK N   1      -3.412  -5.865  -0.694  0.00  0.00     0.135 C 
HETATM   38  N   UNK N   1      -2.422  -6.274   0.033  0.00  0.00    -0.359 N 
ATOM     39  HN  UNK N   1      -1.983  -5.593   0.653  1.00  0.00     0.162 HD
BRANCH  38  40
HETATM   40  C   UNK N   1      -1.887  -7.621   0.037  0.00  0.00     0.177 C 
HETATM   41  C   UNK N   1      -1.231  -7.915  -1.309  0.00  0.00     0.043 C 
BRANCH  40  42
HETATM   42  C   UNK N   1      -2.938  -8.637   0.403  0.00  0.00     0.163 C 
HETATM   43  O   UNK N   1      -3.215  -9.552  -0.358  0.00  0.00    -0.648 OA
BRANCH  42  44
HETATM   44  O   UNK N   1      -3.577  -8.538   1.583  0.00  0.00    -0.775 OA
HETATM   45  H   UNK N   1      -3.740  -8.119   2.405  0.00  0.00     0.167 HD
ENDBRANCH  42  44
ENDBRANCH  40  42
ENDBRANCH  38  40
BRANCH  37  46
HETATM   46  O   UNK N   1      -4.085  -6.719  -1.496  0.00  0.00    -0.348 OA
HETATM   47  H   UNK N   1      -4.831  -6.611  -2.052  0.00  0.00     0.219 HD
ENDBRANCH  37  46
ENDBRANCH  35  37
ENDBRANCH  33  35
BRANCH  32  48
HETATM   48  O   UNK N   1      -2.180  -2.529   0.736  0.00  0.00    -0.348 OA
HETATM   49  H   UNK N   1      -2.062  -2.169   1.593  0.00  0.00     0.219 HD
ENDBRANCH  32  48
ENDBRANCH   1  32
BRANCH   1  50
HETATM   50  N   UNK N   1       0.336  -3.624  -1.429  0.00  0.00    -0.362 N 
HETATM   51  C   UNK N   1       0.682  -4.552  -0.604  0.00  0.00     0.111 C 
ATOM     52  HN  UNK N   1       0.690  -3.687  -2.384  1.00  0.00     0.162 HD
BRANCH  51  53
HETATM   53  C   UNK N   1       1.670  -5.559  -1.045  0.00  0.00     0.086 C 
BRANCH  53  54
HETATM   54  C   UNK N   1       2.989  -5.118  -0.448  0.00  0.00     0.044 C 
BRANCH  54  55
HETATM   55  C   UNK N   1       4.137  -6.071  -0.743  0.00  0.00     0.181 C 
BRANCH  55  56
HETATM   56  C   UNK N   1       5.370  -5.562  -0.037  0.00  0.00     0.163 C 
HETATM   57  O   UNK N   1       5.797  -4.446  -0.291  0.00  0.00    -0.648 OA
BRANCH  56  58
HETATM   58  O   UNK N   1       6.008  -6.323   0.873  0.00  0.00    -0.775 OA
HETATM   59  H   UNK N   1       5.771  -6.972   1.506  0.00  0.00     0.167 HD
ENDBRANCH  56  58
ENDBRANCH  55  56
BRANCH  55  60
HETATM   60  N   UNK N   1       3.796  -7.435  -0.361  0.00  0.00    -0.360 N 
HETATM   61  C   UNK N   1       3.382  -7.789   0.810  0.00  0.00     0.107 C 
HETATM   62  C   UNK N   1       3.057  -9.218   1.068  0.00  0.00     0.097 C 
ATOM     63  HN  UNK N   1       3.892  -8.162  -1.070  1.00  0.00     0.162 HD
BRANCH  61  64
HETATM   64  O   UNK N   1       3.215  -6.884   1.797  0.00  0.00    -0.350 OA
HETATM   65  H   UNK N   1       3.702  -6.469   2.482  0.00  0.00     0.219 HD
ENDBRANCH  61  64
ENDBRANCH  55  60
ENDBRANCH  54  55
ENDBRANCH  53  54
ENDBRANCH  51  53
BRANCH  51  66
HETATM   66  O   UNK N   1       0.216  -4.584   0.664  0.00  0.00    -0.350 OA
HETATM   67  H   UNK N   1       0.035  -4.315   1.543  0.00  0.00     0.219 HD
ENDBRANCH  51  66
ENDBRANCH   1  50
TORSDOF 29
