MODEL 1
REMARK VINA RESULT:      -5.9      0.000      0.000
REMARK WARNING: 32 MAX_TORS EXCEEDED!!!
REMARK  43 active torsions:
REMARK  status: ('A' for Active; 'I' for Inactive)
REMARK    1  A    between atoms: C_17  and  C_11 
REMARK    2  A    between atoms: C_19  and  C_11 
REMARK    3  A    between atoms: C_18  and  C_12 
REMARK    4  A    between atoms: C_20  and  C_12 
REMARK    5  A    between atoms: C_21  and  C_13 
REMARK    6  A    between atoms: C_23  and  C_13 
REMARK    7  A    between atoms: C_22  and  C_14 
REMARK    8  A    between atoms: C_24  and  C_14 
REMARK    9  A    between atoms: C_25  and  C_15 
REMARK   10  A    between atoms: C_27  and  C_15 
REMARK   11  A    between atoms: C_26  and  C_16 
REMARK   12  A    between atoms: C_28  and  C_16 
REMARK   13  A    between atoms: C_37  and  C_17 
REMARK   14  A    between atoms: C_38  and  C_18 
REMARK   15  A    between atoms: C_39  and  C_19 
REMARK   16  A    between atoms: C_40  and  C_20 
REMARK   17  A    between atoms: C_39  and  C_21 
REMARK   18  A    between atoms: C_40  and  C_22 
REMARK   19  A    between atoms: C_41  and  C_23 
REMARK   20  A    between atoms: C_42  and  C_24 
REMARK   21  A    between atoms: C_41  and  C_25 
REMARK   22  A    between atoms: C_42  and  C_26 
REMARK   23  A    between atoms: C_43  and  C_27 
REMARK   24  A    between atoms: C_44  and  C_28 
REMARK   25  A    between atoms: C_31  and  C_29 
REMARK   26  A    between atoms: C_43  and  C_29 
REMARK   27  A    between atoms: C_32  and  C_30 
REMARK   28  A    between atoms: C_44  and  C_30 
REMARK   29  A    between atoms: O_53  and  C_31 
REMARK   30  A    between atoms: O_54  and  C_32 
REMARK   31  A    between atoms: C_45  and  C_33 
REMARK   32  A    between atoms: O_55  and  C_33 
REMARK   33  A    between atoms: C_45  and  C_34 
REMARK   34  A    between atoms: O_56  and  C_34 
REMARK   35  A    between atoms: C_46  and  C_35 
REMARK   36  A    between atoms: O_53  and  C_35 
REMARK   37  A    between atoms: C_46  and  C_36 
REMARK   38  A    between atoms: O_57  and  C_36 
REMARK   39  A    between atoms: C_46  and  O_54 
REMARK   40  A    between atoms: P_59  and  O_51 
REMARK   41  A    between atoms: P_58  and  O_55 
REMARK   42  A    between atoms: P_59  and  O_56 
REMARK   43  A    between atoms: P_59  and  O_57 
ROOT
HETATM    1  C   UNK N   1      24.849  19.976   3.188  0.00  0.00     0.166 C 
HETATM    2  O   UNK N   1      25.279  20.926   2.257  0.00  0.00    -0.391 OA
HETATM    3  H   UNK N   1      25.448  21.531   1.518  0.00  0.00     0.210 HD
ENDROOT
BRANCH   1   4
HETATM    4  C   UNK N   1      25.345  20.313   4.595  0.00  0.00     0.216 C 
BRANCH   4   5
HETATM    5  O   UNK N   1      26.633  20.870   4.585  0.00  0.00    -0.280 OA
BRANCH   5   6
HETATM    6  P   UNK N   1      27.173  20.979   6.240  0.00  0.00     0.422 P 
HETATM    7  O   UNK N   1      25.908  21.378   7.363  0.00  0.00    -0.617 OA
HETATM    8  O   UNK N   1      27.993  19.529   6.722  0.00  0.00    -0.617 OA
HETATM    9  O   UNK N   1      28.218  22.125   6.302  0.00  0.00    -0.617 OA
ENDBRANCH   5   6
ENDBRANCH   4   5
ENDBRANCH   1   4
BRANCH   1  10
HETATM   10  C   UNK N   1      23.332  19.910   3.206  0.00  0.00     0.214 C 
BRANCH  10  11
HETATM   11  O   UNK N   1      22.788  21.086   2.691  0.00  0.00    -0.294 OA
BRANCH  11  12
HETATM   12  P   UNK N   1      21.114  20.719   2.407  0.00  0.00     0.393 P 
HETATM   13  O   UNK N   1      20.648  21.577   1.198  0.00  0.00    -0.631 OA
BRANCH  12  14
HETATM   14  O   UNK N   1      20.147  21.147   3.787  0.00  0.00    -0.307 OA
HETATM   15  H   UNK N   1      20.272  21.560   4.655  0.00  0.00     0.222 HD
ENDBRANCH  12  14
BRANCH  12  16
HETATM   16  O   UNK N   1      20.952  19.039   1.973  0.00  0.00    -0.294 OA
BRANCH  16  17
HETATM   17  C   UNK N   1      19.793  18.577   2.600  0.00  0.00     0.214 C 
BRANCH  17  18
HETATM   18  C   UNK N   1      19.939  17.131   3.116  0.00  0.00     0.169 C 
BRANCH  18  19
HETATM   19  C   UNK N   1      20.889  17.050   4.312  0.00  0.00     0.201 C 
BRANCH  19  20
HETATM   20  O   UNK N   1      20.201  16.610   5.445  0.00  0.00    -0.389 OA
BRANCH  20  21
HETATM   21  C   UNK N   1      21.035  16.969   6.506  0.00  0.00     0.168 C 
BRANCH  21  22
HETATM   22  C   UNK N   1      21.577  15.734   7.225  0.00  0.00     0.030 C 
BRANCH  22  23
HETATM   23  C   UNK N   1      20.615  15.209   8.288  0.00  0.00    -0.017 C 
HETATM   24  C   UNK N   1      19.767  16.335   8.847  0.00  0.00     0.010 C 
BRANCH  23  25
HETATM   25  C   UNK N   1      21.423  14.570   9.416  0.00  0.00     0.004 C 
BRANCH  25  26
HETATM   26  C   UNK N   1      20.635  13.496  10.185  0.00  0.00     0.001 C 
BRANCH  26  27
HETATM   27  C   UNK N   1      21.463  12.237  10.459  0.00  0.00     0.004 C 
BRANCH  27  28
HETATM   28  C   UNK N   1      22.955  12.524  10.586  0.00  0.00    -0.019 C 
HETATM   29  C   UNK N   1      23.420  11.997  11.926  0.00  0.00     0.010 C 
BRANCH  28  30
HETATM   30  C   UNK N   1      23.762  11.821   9.491  0.00  0.00     0.004 C 
BRANCH  30  31
HETATM   31  C   UNK N   1      22.984  11.480   8.218  0.00  0.00     0.001 C 
BRANCH  31  32
HETATM   32  C   UNK N   1      23.857  10.898   7.108  0.00  0.00     0.004 C 
BRANCH  32  33
HETATM   33  C   UNK N   1      23.678  11.560   5.748  0.00  0.00    -0.019 C 
HETATM   34  C   UNK N   1      24.748  11.008   4.833  0.00  0.00     0.010 C 
BRANCH  33  35
HETATM   35  C   UNK N   1      23.866  13.068   5.837  0.00  0.00     0.004 C 
BRANCH  35  36
HETATM   36  C   UNK N   1      25.221  13.452   6.412  0.00  0.00     0.001 C 
BRANCH  36  37
HETATM   37  C   UNK N   1      25.230  14.917   6.829  0.00  0.00     0.004 C 
BRANCH  37  38
HETATM   38  C   UNK N   1      26.370  15.694   6.181  0.00  0.00    -0.023 C 
HETATM   39  C   UNK N   1      27.235  16.305   7.262  0.00  0.00     0.009 C 
HETATM   40  C   UNK N   1      25.838  16.793   5.280  0.00  0.00     0.009 C 
ENDBRANCH  37  38
ENDBRANCH  36  37
ENDBRANCH  35  36
ENDBRANCH  33  35
ENDBRANCH  32  33
ENDBRANCH  31  32
ENDBRANCH  30  31
ENDBRANCH  28  30
ENDBRANCH  27  28
ENDBRANCH  26  27
ENDBRANCH  25  26
ENDBRANCH  23  25
ENDBRANCH  22  23
ENDBRANCH  21  22
ENDBRANCH  20  21
ENDBRANCH  19  20
ENDBRANCH  18  19
BRANCH  18  41
HETATM   41  O   UNK N   1      20.245  16.149   2.145  0.00  0.00    -0.382 OA
BRANCH  41  42
HETATM   42  C   UNK N   1      21.406  15.444   2.503  0.00  0.00     0.168 C 
BRANCH  42  43
HETATM   43  C   UNK N   1      21.296  13.973   2.128  0.00  0.00     0.030 C 
BRANCH  43  44
HETATM   44  C   UNK N   1      22.675  13.330   2.054  0.00  0.00    -0.017 C 
HETATM   45  C   UNK N   1      22.511  11.828   1.976  0.00  0.00     0.010 C 
BRANCH  44  46
HETATM   46  C   UNK N   1      23.416  13.802   0.805  0.00  0.00     0.004 C 
BRANCH  46  47
HETATM   47  C   UNK N   1      24.688  14.572   1.145  0.00  0.00     0.001 C 
BRANCH  47  48
HETATM   48  C   UNK N   1      25.045  14.347   2.615  0.00  0.00     0.004 C 
BRANCH  48  49
HETATM   49  C   UNK N   1      26.513  13.992   2.812  0.00  0.00    -0.019 C 
HETATM   50  C   UNK N   1      26.800  12.686   2.099  0.00  0.00     0.010 C 
BRANCH  49  51
HETATM   51  C   UNK N   1      27.421  15.096   2.255  0.00  0.00     0.004 C 
BRANCH  51  52
HETATM   52  C   UNK N   1      28.905  14.835   2.471  0.00  0.00     0.001 C 
BRANCH  52  53
HETATM   53  C   UNK N   1      29.602  16.143   2.818  0.00  0.00     0.004 C 
BRANCH  53  54
HETATM   54  C   UNK N   1      29.407  16.495   4.289  0.00  0.00    -0.019 C 
HETATM   55  C   UNK N   1      30.098  17.813   4.563  0.00  0.00     0.010 C 
BRANCH  54  56
HETATM   56  C   UNK N   1      30.052  15.436   5.165  0.00  0.00     0.004 C 
BRANCH  56  57
HETATM   57  C   UNK N   1      31.517  15.732   5.448  0.00  0.00     0.001 C 
BRANCH  57  58
HETATM   58  C   UNK N   1      31.709  16.079   6.918  0.00  0.00     0.004 C 
BRANCH  58  59
HETATM   59  C   UNK N   1      32.505  17.365   7.106  0.00  0.00    -0.023 C 
HETATM   60  C   UNK N   1      33.560  17.466   6.026  0.00  0.00     0.009 C 
HETATM   61  C   UNK N   1      33.174  17.394   8.468  0.00  0.00     0.009 C 
ENDBRANCH  58  59
ENDBRANCH  57  58
ENDBRANCH  56  57
ENDBRANCH  54  56
ENDBRANCH  53  54
ENDBRANCH  52  53
ENDBRANCH  51  52
ENDBRANCH  49  51
ENDBRANCH  48  49
ENDBRANCH  47  48
ENDBRANCH  46  47
ENDBRANCH  44  46
ENDBRANCH  43  44
ENDBRANCH  42  43
ENDBRANCH  41  42
ENDBRANCH  18  41
ENDBRANCH  17  18
ENDBRANCH  16  17
ENDBRANCH  12  16
ENDBRANCH  11  12
ENDBRANCH  10  11
ENDBRANCH   1  10
TORSDOF 43
ENDMDL
MODEL 2
REMARK VINA RESULT:      -5.8      3.452      8.272
REMARK WARNING: 32 MAX_TORS EXCEEDED!!!
REMARK  43 active torsions:
REMARK  status: ('A' for Active; 'I' for Inactive)
REMARK    1  A    between atoms: C_17  and  C_11 
REMARK    2  A    between atoms: C_19  and  C_11 
REMARK    3  A    between atoms: C_18  and  C_12 
REMARK    4  A    between atoms: C_20  and  C_12 
REMARK    5  A    between atoms: C_21  and  C_13 
REMARK    6  A    between atoms: C_23  and  C_13 
REMARK    7  A    between atoms: C_22  and  C_14 
REMARK    8  A    between atoms: C_24  and  C_14 
REMARK    9  A    between atoms: C_25  and  C_15 
REMARK   10  A    between atoms: C_27  and  C_15 
REMARK   11  A    between atoms: C_26  and  C_16 
REMARK   12  A    between atoms: C_28  and  C_16 
REMARK   13  A    between atoms: C_37  and  C_17 
REMARK   14  A    between atoms: C_38  and  C_18 
REMARK   15  A    between atoms: C_39  and  C_19 
REMARK   16  A    between atoms: C_40  and  C_20 
REMARK   17  A    between atoms: C_39  and  C_21 
REMARK   18  A    between atoms: C_40  and  C_22 
REMARK   19  A    between atoms: C_41  and  C_23 
REMARK   20  A    between atoms: C_42  and  C_24 
REMARK   21  A    between atoms: C_41  and  C_25 
REMARK   22  A    between atoms: C_42  and  C_26 
REMARK   23  A    between atoms: C_43  and  C_27 
REMARK   24  A    between atoms: C_44  and  C_28 
REMARK   25  A    between atoms: C_31  and  C_29 
REMARK   26  A    between atoms: C_43  and  C_29 
REMARK   27  A    between atoms: C_32  and  C_30 
REMARK   28  A    between atoms: C_44  and  C_30 
REMARK   29  A    between atoms: O_53  and  C_31 
REMARK   30  A    between atoms: O_54  and  C_32 
REMARK   31  A    between atoms: C_45  and  C_33 
REMARK   32  A    between atoms: O_55  and  C_33 
REMARK   33  A    between atoms: C_45  and  C_34 
REMARK   34  A    between atoms: O_56  and  C_34 
REMARK   35  A    between atoms: C_46  and  C_35 
REMARK   36  A    between atoms: O_53  and  C_35 
REMARK   37  A    between atoms: C_46  and  C_36 
REMARK   38  A    between atoms: O_57  and  C_36 
REMARK   39  A    between atoms: C_46  and  O_54 
REMARK   40  A    between atoms: P_59  and  O_51 
REMARK   41  A    between atoms: P_58  and  O_55 
REMARK   42  A    between atoms: P_59  and  O_56 
REMARK   43  A    between atoms: P_59  and  O_57 
ROOT
HETATM    1  C   UNK N   1      21.298  13.864   8.342  0.00  0.00     0.166 C 
HETATM    2  O   UNK N   1      20.320  13.318   7.505  0.00  0.00    -0.391 OA
HETATM    3  H   UNK N   1      19.703  12.791   6.975  0.00  0.00     0.210 HD
ENDROOT
BRANCH   1   4
HETATM    4  C   UNK N   1      20.942  15.294   8.751  0.00  0.00     0.216 C 
BRANCH   4   5
HETATM    5  O   UNK N   1      19.675  15.378   9.347  0.00  0.00    -0.280 OA
BRANCH   5   6
HETATM    6  P   UNK N   1      18.856  16.754   8.655  0.00  0.00     0.422 P 
HETATM    7  O   UNK N   1      17.345  17.130   9.427  0.00  0.00    -0.617 OA
HETATM    8  O   UNK N   1      19.897  18.142   8.622  0.00  0.00    -0.617 OA
HETATM    9  O   UNK N   1      18.540  16.399   7.178  0.00  0.00    -0.617 OA
ENDBRANCH   5   6
ENDBRANCH   4   5
ENDBRANCH   1   4
BRANCH   1  10
HETATM   10  C   UNK N   1      21.446  13.018   9.594  0.00  0.00     0.214 C 
BRANCH  10  11
HETATM   11  O   UNK N   1      22.509  13.479  10.370  0.00  0.00    -0.294 OA
BRANCH  11  12
HETATM   12  P   UNK N   1      23.729  12.249  10.236  0.00  0.00     0.393 P 
HETATM   13  O   UNK N   1      23.019  10.874  10.370  0.00  0.00    -0.631 OA
BRANCH  12  14
HETATM   14  O   UNK N   1      24.891  12.393  11.521  0.00  0.00    -0.307 OA
HETATM   15  H   UNK N   1      25.338  11.815  12.158  0.00  0.00     0.222 HD
ENDBRANCH  12  14
BRANCH  12  16
HETATM   16  O   UNK N   1      24.464  12.328   8.658  0.00  0.00    -0.294 OA
BRANCH  16  17
HETATM   17  C   UNK N   1      25.066  13.586   8.563  0.00  0.00     0.214 C 
BRANCH  17  18
HETATM   18  C   UNK N   1      25.144  14.092   7.109  0.00  0.00     0.169 C 
BRANCH  18  19
HETATM   19  C   UNK N   1      25.849  13.088   6.196  0.00  0.00     0.201 C 
BRANCH  19  20
HETATM   20  O   UNK N   1      24.920  12.449   5.372  0.00  0.00    -0.389 OA
BRANCH  20  21
HETATM   21  C   UNK N   1      25.247  12.893   4.089  0.00  0.00     0.168 C 
BRANCH  21  22
HETATM   22  C   UNK N   1      24.235  12.395   3.058  0.00  0.00     0.030 C 
BRANCH  22  23
HETATM   23  C   UNK N   1      24.650  12.724   1.627  0.00  0.00    -0.017 C 
HETATM   24  C   UNK N   1      25.032  14.186   1.502  0.00  0.00     0.010 C 
BRANCH  23  25
HETATM   25  C   UNK N   1      23.484  12.419   0.689  0.00  0.00     0.004 C 
BRANCH  25  26
HETATM   26  C   UNK N   1      22.590  13.643   0.424  0.00  0.00     0.001 C 
BRANCH  26  27
HETATM   27  C   UNK N   1      21.302  13.625   1.254  0.00  0.00     0.004 C 
BRANCH  27  28
HETATM   28  C   UNK N   1      20.223  14.545   0.695  0.00  0.00    -0.019 C 
HETATM   29  C   UNK N   1      18.876  13.944   1.031  0.00  0.00     0.010 C 
BRANCH  28  30
HETATM   30  C   UNK N   1      20.290  15.942   1.319  0.00  0.00     0.004 C 
BRANCH  30  31
HETATM   31  C   UNK N   1      20.509  15.973   2.834  0.00  0.00     0.001 C 
BRANCH  31  32
HETATM   32  C   UNK N   1      21.734  16.782   3.255  0.00  0.00     0.004 C 
BRANCH  32  33
HETATM   33  C   UNK N   1      22.879  15.950   3.818  0.00  0.00    -0.019 C 
HETATM   34  C   UNK N   1      22.321  15.122   4.954  0.00  0.00     0.010 C 
BRANCH  33  35
HETATM   35  C   UNK N   1      23.983  16.835   4.379  0.00  0.00     0.004 C 
BRANCH  35  36
HETATM   36  C   UNK N   1      25.009  17.226   3.326  0.00  0.00     0.001 C 
BRANCH  36  37
HETATM   37  C   UNK N   1      25.963  18.279   3.872  0.00  0.00     0.004 C 
BRANCH  37  38
HETATM   38  C   UNK N   1      25.259  19.597   4.171  0.00  0.00    -0.023 C 
HETATM   39  C   UNK N   1      24.954  20.306   2.870  0.00  0.00     0.009 C 
HETATM   40  C   UNK N   1      26.122  20.491   5.042  0.00  0.00     0.009 C 
ENDBRANCH  37  38
ENDBRANCH  36  37
ENDBRANCH  35  36
ENDBRANCH  33  35
ENDBRANCH  32  33
ENDBRANCH  31  32
ENDBRANCH  30  31
ENDBRANCH  28  30
ENDBRANCH  27  28
ENDBRANCH  26  27
ENDBRANCH  25  26
ENDBRANCH  23  25
ENDBRANCH  22  23
ENDBRANCH  21  22
ENDBRANCH  20  21
ENDBRANCH  19  20
ENDBRANCH  18  19
BRANCH  18  41
HETATM   41  O   UNK N   1      25.651  15.400   6.930  0.00  0.00    -0.382 OA
BRANCH  41  42
HETATM   42  C   UNK N   1      26.940  15.358   6.372  0.00  0.00     0.168 C 
BRANCH  42  43
HETATM   43  C   UNK N   1      27.692  16.658   6.623  0.00  0.00     0.030 C 
BRANCH  43  44
HETATM   44  C   UNK N   1      28.924  16.749   5.732  0.00  0.00    -0.017 C 
HETATM   45  C   UNK N   1      29.183  18.203   5.403  0.00  0.00     0.010 C 
BRANCH  44  46
HETATM   46  C   UNK N   1      30.147  16.190   6.455  0.00  0.00     0.004 C 
BRANCH  46  47
HETATM   47  C   UNK N   1      30.721  17.178   7.465  0.00  0.00     0.001 C 
BRANCH  47  48
HETATM   48  C   UNK N   1      32.194  16.854   7.717  0.00  0.00     0.004 C 
BRANCH  48  49
HETATM   49  C   UNK N   1      33.134  17.839   7.033  0.00  0.00    -0.019 C 
HETATM   50  C   UNK N   1      34.275  18.162   7.976  0.00  0.00     0.010 C 
BRANCH  49  51
HETATM   51  C   UNK N   1      33.691  17.247   5.731  0.00  0.00     0.004 C 
BRANCH  51  52
HETATM   52  C   UNK N   1      32.864  17.590   4.500  0.00  0.00     0.001 C 
BRANCH  52  53
HETATM   53  C   UNK N   1      33.074  16.522   3.437  0.00  0.00     0.004 C 
BRANCH  53  54
HETATM   54  C   UNK N   1      32.833  15.127   4.005  0.00  0.00    -0.019 C 
HETATM   55  C   UNK N   1      34.028  14.260   3.672  0.00  0.00     0.010 C 
BRANCH  54  56
HETATM   56  C   UNK N   1      31.608  14.508   3.357  0.00  0.00     0.004 C 
BRANCH  56  57
HETATM   57  C   UNK N   1      30.884  13.547   4.288  0.00  0.00     0.001 C 
BRANCH  57  58
HETATM   58  C   UNK N   1      29.400  13.503   3.948  0.00  0.00     0.004 C 
BRANCH  58  59
HETATM   59  C   UNK N   1      29.112  14.058   2.558  0.00  0.00    -0.023 C 
HETATM   60  C   UNK N   1      28.109  15.186   2.667  0.00  0.00     0.009 C 
HETATM   61  C   UNK N   1      28.559  12.978   1.647  0.00  0.00     0.009 C 
ENDBRANCH  58  59
ENDBRANCH  57  58
ENDBRANCH  56  57
ENDBRANCH  54  56
ENDBRANCH  53  54
ENDBRANCH  52  53
ENDBRANCH  51  52
ENDBRANCH  49  51
ENDBRANCH  48  49
ENDBRANCH  47  48
ENDBRANCH  46  47
ENDBRANCH  44  46
ENDBRANCH  43  44
ENDBRANCH  42  43
ENDBRANCH  41  42
ENDBRANCH  18  41
ENDBRANCH  17  18
ENDBRANCH  16  17
ENDBRANCH  12  16
ENDBRANCH  11  12
ENDBRANCH  10  11
ENDBRANCH   1  10
TORSDOF 43
ENDMDL
MODEL 3
REMARK VINA RESULT:      -5.8      2.221      5.938
REMARK WARNING: 32 MAX_TORS EXCEEDED!!!
REMARK  43 active torsions:
REMARK  status: ('A' for Active; 'I' for Inactive)
REMARK    1  A    between atoms: C_17  and  C_11 
REMARK    2  A    between atoms: C_19  and  C_11 
REMARK    3  A    between atoms: C_18  and  C_12 
REMARK    4  A    between atoms: C_20  and  C_12 
REMARK    5  A    between atoms: C_21  and  C_13 
REMARK    6  A    between atoms: C_23  and  C_13 
REMARK    7  A    between atoms: C_22  and  C_14 
REMARK    8  A    between atoms: C_24  and  C_14 
REMARK    9  A    between atoms: C_25  and  C_15 
REMARK   10  A    between atoms: C_27  and  C_15 
REMARK   11  A    between atoms: C_26  and  C_16 
REMARK   12  A    between atoms: C_28  and  C_16 
REMARK   13  A    between atoms: C_37  and  C_17 
REMARK   14  A    between atoms: C_38  and  C_18 
REMARK   15  A    between atoms: C_39  and  C_19 
REMARK   16  A    between atoms: C_40  and  C_20 
REMARK   17  A    between atoms: C_39  and  C_21 
REMARK   18  A    between atoms: C_40  and  C_22 
REMARK   19  A    between atoms: C_41  and  C_23 
REMARK   20  A    between atoms: C_42  and  C_24 
REMARK   21  A    between atoms: C_41  and  C_25 
REMARK   22  A    between atoms: C_42  and  C_26 
REMARK   23  A    between atoms: C_43  and  C_27 
REMARK   24  A    between atoms: C_44  and  C_28 
REMARK   25  A    between atoms: C_31  and  C_29 
REMARK   26  A    between atoms: C_43  and  C_29 
REMARK   27  A    between atoms: C_32  and  C_30 
REMARK   28  A    between atoms: C_44  and  C_30 
REMARK   29  A    between atoms: O_53  and  C_31 
REMARK   30  A    between atoms: O_54  and  C_32 
REMARK   31  A    between atoms: C_45  and  C_33 
REMARK   32  A    between atoms: O_55  and  C_33 
REMARK   33  A    between atoms: C_45  and  C_34 
REMARK   34  A    between atoms: O_56  and  C_34 
REMARK   35  A    between atoms: C_46  and  C_35 
REMARK   36  A    between atoms: O_53  and  C_35 
REMARK   37  A    between atoms: C_46  and  C_36 
REMARK   38  A    between atoms: O_57  and  C_36 
REMARK   39  A    between atoms: C_46  and  O_54 
REMARK   40  A    between atoms: P_59  and  O_51 
REMARK   41  A    between atoms: P_58  and  O_55 
REMARK   42  A    between atoms: P_59  and  O_56 
REMARK   43  A    between atoms: P_59  and  O_57 
ROOT
HETATM    1  C   UNK N   1      20.299  16.715   1.956  0.00  0.00     0.166 C 
HETATM    2  O   UNK N   1      19.523  16.267   0.883  0.00  0.00    -0.391 OA
HETATM    3  H   UNK N   1      18.989  15.808   0.217  0.00  0.00     0.210 HD
ENDROOT
BRANCH   1   4
HETATM    4  C   UNK N   1      20.188  18.231   2.126  0.00  0.00     0.216 C 
BRANCH   4   5
HETATM    5  O   UNK N   1      21.437  18.836   2.332  0.00  0.00    -0.280 OA
BRANCH   5   6
HETATM    6  P   UNK N   1      21.176  20.557   2.454  0.00  0.00     0.422 P 
HETATM    7  O   UNK N   1      20.524  21.270   1.008  0.00  0.00    -0.617 OA
HETATM    8  O   UNK N   1      20.190  20.938   3.830  0.00  0.00    -0.617 OA
HETATM    9  O   UNK N   1      22.561  21.210   2.702  0.00  0.00    -0.617 OA
ENDBRANCH   5   6
ENDBRANCH   4   5
ENDBRANCH   1   4
BRANCH   1  10
HETATM   10  C   UNK N   1      19.852  16.044   3.242  0.00  0.00     0.214 C 
BRANCH  10  11
HETATM   11  O   UNK N   1      19.522  17.001   4.201  0.00  0.00    -0.294 OA
BRANCH  11  12
HETATM   12  P   UNK N   1      20.277  16.448   5.665  0.00  0.00     0.393 P 
HETATM   13  O   UNK N   1      19.152  15.916   6.596  0.00  0.00    -0.631 OA
BRANCH  12  14
HETATM   14  O   UNK N   1      21.082  17.759   6.475  0.00  0.00    -0.307 OA
HETATM   15  H   UNK N   1      21.567  18.564   6.238  0.00  0.00     0.222 HD
ENDBRANCH  12  14
BRANCH  12  16
HETATM   16  O   UNK N   1      21.351  15.125   5.302  0.00  0.00    -0.294 OA
BRANCH  16  17
HETATM   17  C   UNK N   1      22.632  15.539   5.677  0.00  0.00     0.214 C 
BRANCH  17  18
HETATM   18  C   UNK N   1      23.607  15.589   4.484  0.00  0.00     0.169 C 
BRANCH  18  19
HETATM   19  C   UNK N   1      23.746  17.005   3.924  0.00  0.00     0.201 C 
BRANCH  19  20
HETATM   20  O   UNK N   1      23.791  17.934   4.965  0.00  0.00    -0.389 OA
BRANCH  20  21
HETATM   21  C   UNK N   1      24.386  19.059   4.388  0.00  0.00     0.168 C 
BRANCH  21  22
HETATM   22  C   UNK N   1      25.521  19.592   5.261  0.00  0.00     0.030 C 
BRANCH  22  23
HETATM   23  C   UNK N   1      26.473  20.502   4.488  0.00  0.00    -0.017 C 
HETATM   24  C   UNK N   1      26.125  20.511   3.012  0.00  0.00     0.010 C 
BRANCH  23  25
HETATM   25  C   UNK N   1      27.902  19.997   4.673  0.00  0.00     0.004 C 
BRANCH  25  26
HETATM   26  C   UNK N   1      28.029  18.474   4.493  0.00  0.00     0.001 C 
BRANCH  26  27
HETATM   27  C   UNK N   1      29.031  17.845   5.467  0.00  0.00     0.004 C 
BRANCH  27  28
HETATM   28  C   UNK N   1      28.366  16.950   6.505  0.00  0.00    -0.019 C 
HETATM   29  C   UNK N   1      28.210  17.749   7.781  0.00  0.00     0.010 C 
BRANCH  28  30
HETATM   30  C   UNK N   1      26.975  16.496   6.055  0.00  0.00     0.004 C 
BRANCH  30  31
HETATM   31  C   UNK N   1      26.316  15.429   6.935  0.00  0.00     0.001 C 
BRANCH  31  32
HETATM   32  C   UNK N   1      26.099  14.098   6.218  0.00  0.00     0.004 C 
BRANCH  32  33
HETATM   33  C   UNK N   1      25.297  13.075   7.011  0.00  0.00    -0.019 C 
HETATM   34  C   UNK N   1      24.550  12.216   6.015  0.00  0.00     0.010 C 
BRANCH  33  35
HETATM   35  C   UNK N   1      24.271  13.752   7.909  0.00  0.00     0.004 C 
BRANCH  35  36
HETATM   36  C   UNK N   1      23.371  12.752   8.621  0.00  0.00     0.001 C 
BRANCH  36  37
HETATM   37  C   UNK N   1      22.530  13.450   9.682  0.00  0.00     0.004 C 
BRANCH  37  38
HETATM   38  C   UNK N   1      22.319  12.579  10.915  0.00  0.00    -0.023 C 
HETATM   39  C   UNK N   1      23.011  11.249  10.711  0.00  0.00     0.009 C 
HETATM   40  C   UNK N   1      20.842  12.345  11.170  0.00  0.00     0.009 C 
ENDBRANCH  37  38
ENDBRANCH  36  37
ENDBRANCH  35  36
ENDBRANCH  33  35
ENDBRANCH  32  33
ENDBRANCH  31  32
ENDBRANCH  30  31
ENDBRANCH  28  30
ENDBRANCH  27  28
ENDBRANCH  26  27
ENDBRANCH  25  26
ENDBRANCH  23  25
ENDBRANCH  22  23
ENDBRANCH  21  22
ENDBRANCH  20  21
ENDBRANCH  19  20
ENDBRANCH  18  19
BRANCH  18  41
HETATM   41  O   UNK N   1      23.384  14.645   3.455  0.00  0.00    -0.382 OA
BRANCH  41  42
HETATM   42  C   UNK N   1      24.362  14.764   2.454  0.00  0.00     0.168 C 
BRANCH  42  43
HETATM   43  C   UNK N   1      25.393  13.648   2.554  0.00  0.00     0.030 C 
BRANCH  43  44
HETATM   44  C   UNK N   1      26.793  14.181   2.275  0.00  0.00    -0.017 C 
HETATM   45  C   UNK N   1      26.768  15.692   2.363  0.00  0.00     0.010 C 
BRANCH  44  46
HETATM   46  C   UNK N   1      27.780  13.652   3.313  0.00  0.00     0.004 C 
BRANCH  46  47
HETATM   47  C   UNK N   1      29.019  14.532   3.432  0.00  0.00     0.001 C 
BRANCH  47  48
HETATM   48  C   UNK N   1      29.855  14.081   4.630  0.00  0.00     0.004 C 
BRANCH  48  49
HETATM   49  C   UNK N   1      31.262  13.652   4.234  0.00  0.00    -0.019 C 
HETATM   50  C   UNK N   1      31.331  13.538   2.725  0.00  0.00     0.010 C 
BRANCH  49  51
HETATM   51  C   UNK N   1      32.301  14.668   4.725  0.00  0.00     0.004 C 
BRANCH  51  52
HETATM   52  C   UNK N   1      31.708  15.798   5.554  0.00  0.00     0.001 C 
BRANCH  52  53
HETATM   53  C   UNK N   1      32.816  16.752   5.975  0.00  0.00     0.004 C 
BRANCH  53  54
HETATM   54  C   UNK N   1      32.458  17.472   7.270  0.00  0.00    -0.019 C 
HETATM   55  C   UNK N   1      33.725  18.052   7.863  0.00  0.00     0.010 C 
BRANCH  54  56
HETATM   56  C   UNK N   1      31.880  16.486   8.269  0.00  0.00     0.004 C 
BRANCH  56  57
HETATM   57  C   UNK N   1      32.960  15.779   9.075  0.00  0.00     0.001 C 
BRANCH  57  58
HETATM   58  C   UNK N   1      32.880  14.275   8.855  0.00  0.00     0.004 C 
BRANCH  58  59
HETATM   59  C   UNK N   1      34.252  13.656   8.615  0.00  0.00    -0.023 C 
HETATM   60  C   UNK N   1      35.326  14.637   9.030  0.00  0.00     0.009 C 
HETATM   61  C   UNK N   1      34.436  13.297   7.152  0.00  0.00     0.009 C 
ENDBRANCH  58  59
ENDBRANCH  57  58
ENDBRANCH  56  57
ENDBRANCH  54  56
ENDBRANCH  53  54
ENDBRANCH  52  53
ENDBRANCH  51  52
ENDBRANCH  49  51
ENDBRANCH  48  49
ENDBRANCH  47  48
ENDBRANCH  46  47
ENDBRANCH  44  46
ENDBRANCH  43  44
ENDBRANCH  42  43
ENDBRANCH  41  42
ENDBRANCH  18  41
ENDBRANCH  17  18
ENDBRANCH  16  17
ENDBRANCH  12  16
ENDBRANCH  11  12
ENDBRANCH  10  11
ENDBRANCH   1  10
TORSDOF 43
ENDMDL
MODEL 4
REMARK VINA RESULT:      -5.8      3.035      6.680
REMARK WARNING: 32 MAX_TORS EXCEEDED!!!
REMARK  43 active torsions:
REMARK  status: ('A' for Active; 'I' for Inactive)
REMARK    1  A    between atoms: C_17  and  C_11 
REMARK    2  A    between atoms: C_19  and  C_11 
REMARK    3  A    between atoms: C_18  and  C_12 
REMARK    4  A    between atoms: C_20  and  C_12 
REMARK    5  A    between atoms: C_21  and  C_13 
REMARK    6  A    between atoms: C_23  and  C_13 
REMARK    7  A    between atoms: C_22  and  C_14 
REMARK    8  A    between atoms: C_24  and  C_14 
REMARK    9  A    between atoms: C_25  and  C_15 
REMARK   10  A    between atoms: C_27  and  C_15 
REMARK   11  A    between atoms: C_26  and  C_16 
REMARK   12  A    between atoms: C_28  and  C_16 
REMARK   13  A    between atoms: C_37  and  C_17 
REMARK   14  A    between atoms: C_38  and  C_18 
REMARK   15  A    between atoms: C_39  and  C_19 
REMARK   16  A    between atoms: C_40  and  C_20 
REMARK   17  A    between atoms: C_39  and  C_21 
REMARK   18  A    between atoms: C_40  and  C_22 
REMARK   19  A    between atoms: C_41  and  C_23 
REMARK   20  A    between atoms: C_42  and  C_24 
REMARK   21  A    between atoms: C_41  and  C_25 
REMARK   22  A    between atoms: C_42  and  C_26 
REMARK   23  A    between atoms: C_43  and  C_27 
REMARK   24  A    between atoms: C_44  and  C_28 
REMARK   25  A    between atoms: C_31  and  C_29 
REMARK   26  A    between atoms: C_43  and  C_29 
REMARK   27  A    between atoms: C_32  and  C_30 
REMARK   28  A    between atoms: C_44  and  C_30 
REMARK   29  A    between atoms: O_53  and  C_31 
REMARK   30  A    between atoms: O_54  and  C_32 
REMARK   31  A    between atoms: C_45  and  C_33 
REMARK   32  A    between atoms: O_55  and  C_33 
REMARK   33  A    between atoms: C_45  and  C_34 
REMARK   34  A    between atoms: O_56  and  C_34 
REMARK   35  A    between atoms: C_46  and  C_35 
REMARK   36  A    between atoms: O_53  and  C_35 
REMARK   37  A    between atoms: C_46  and  C_36 
REMARK   38  A    between atoms: O_57  and  C_36 
REMARK   39  A    between atoms: C_46  and  O_54 
REMARK   40  A    between atoms: P_59  and  O_51 
REMARK   41  A    between atoms: P_58  and  O_55 
REMARK   42  A    between atoms: P_59  and  O_56 
REMARK   43  A    between atoms: P_59  and  O_57 
ROOT
HETATM    1  C   UNK N   1      20.659  14.247   9.669  0.00  0.00     0.166 C 
HETATM    2  O   UNK N   1      19.266  14.254   9.791  0.00  0.00    -0.391 OA
HETATM    3  H   UNK N   1      18.308  14.402   9.786  0.00  0.00     0.210 HD
ENDROOT
BRANCH   1   4
HETATM    4  C   UNK N   1      21.224  12.836   9.847  0.00  0.00     0.216 C 
BRANCH   4   5
HETATM    5  O   UNK N   1      22.081  12.742  10.954  0.00  0.00    -0.280 OA
BRANCH   5   6
HETATM    6  P   UNK N   1      23.654  12.273  10.364  0.00  0.00     0.422 P 
HETATM    7  O   UNK N   1      24.780  11.865  11.625  0.00  0.00    -0.617 OA
HETATM    8  O   UNK N   1      23.524  10.984   9.210  0.00  0.00    -0.617 OA
HETATM    9  O   UNK N   1      24.238  13.494   9.606  0.00  0.00    -0.617 OA
ENDBRANCH   5   6
ENDBRANCH   4   5
ENDBRANCH   1   4
BRANCH   1  10
HETATM   10  C   UNK N   1      21.069  14.771   8.305  0.00  0.00     0.214 C 
BRANCH  10  11
HETATM   11  O   UNK N   1      20.078  14.499   7.362  0.00  0.00    -0.294 OA
BRANCH  11  12
HETATM   12  P   UNK N   1      19.761  16.023   6.591  0.00  0.00     0.393 P 
HETATM   13  O   UNK N   1      19.685  17.101   7.707  0.00  0.00    -0.631 OA
BRANCH  12  14
HETATM   14  O   UNK N   1      18.234  15.987   5.761  0.00  0.00    -0.307 OA
HETATM   15  H   UNK N   1      17.899  15.774   4.877  0.00  0.00     0.222 HD
ENDBRANCH  12  14
BRANCH  12  16
HETATM   16  O   UNK N   1      21.087  16.428   5.536  0.00  0.00    -0.294 OA
BRANCH  16  17
HETATM   17  C   UNK N   1      21.290  17.804   5.663  0.00  0.00     0.214 C 
BRANCH  17  18
HETATM   18  C   UNK N   1      21.532  18.491   4.304  0.00  0.00     0.169 C 
BRANCH  18  19
HETATM   19  C   UNK N   1      20.349  18.302   3.354  0.00  0.00     0.201 C 
BRANCH  19  20
HETATM   20  O   UNK N   1      20.801  18.177   2.039  0.00  0.00    -0.389 OA
BRANCH  20  21
HETATM   21  C   UNK N   1      20.203  16.998   1.587  0.00  0.00     0.168 C 
BRANCH  21  22
HETATM   22  C   UNK N   1      21.037  15.775   1.967  0.00  0.00     0.030 C 
BRANCH  22  23
HETATM   23  C   UNK N   1      20.617  14.522   1.203  0.00  0.00    -0.017 C 
HETATM   24  C   UNK N   1      19.192  14.652   0.702  0.00  0.00     0.010 C 
BRANCH  23  25
HETATM   25  C   UNK N   1      20.724  13.315   2.133  0.00  0.00     0.004 C 
BRANCH  25  26
HETATM   26  C   UNK N   1      21.431  13.639   3.459  0.00  0.00     0.001 C 
BRANCH  26  27
HETATM   27  C   UNK N   1      21.745  12.386   4.283  0.00  0.00     0.004 C 
BRANCH  27  28
HETATM   28  C   UNK N   1      23.240  12.111   4.398  0.00  0.00    -0.019 C 
HETATM   29  C   UNK N   1      23.454  11.171   5.565  0.00  0.00     0.010 C 
BRANCH  28  30
HETATM   30  C   UNK N   1      23.790  11.436   3.138  0.00  0.00     0.004 C 
BRANCH  30  31
HETATM   31  C   UNK N   1      25.285  11.646   2.881  0.00  0.00     0.001 C 
BRANCH  31  32
HETATM   32  C   UNK N   1      25.575  12.560   1.692  0.00  0.00     0.004 C 
BRANCH  32  33
HETATM   33  C   UNK N   1      24.652  13.767   1.582  0.00  0.00    -0.019 C 
HETATM   34  C   UNK N   1      23.932  13.664   0.255  0.00  0.00     0.010 C 
BRANCH  33  35
HETATM   35  C   UNK N   1      25.439  15.069   1.590  0.00  0.00     0.004 C 
BRANCH  35  36
HETATM   36  C   UNK N   1      25.937  15.440   2.979  0.00  0.00     0.001 C 
BRANCH  36  37
HETATM   37  C   UNK N   1      24.812  15.327   3.999  0.00  0.00     0.004 C 
BRANCH  37  38
HETATM   38  C   UNK N   1      25.335  15.220   5.426  0.00  0.00    -0.023 C 
HETATM   39  C   UNK N   1      26.189  13.978   5.553  0.00  0.00     0.009 C 
HETATM   40  C   UNK N   1      24.192  15.149   6.422  0.00  0.00     0.009 C 
ENDBRANCH  37  38
ENDBRANCH  36  37
ENDBRANCH  35  36
ENDBRANCH  33  35
ENDBRANCH  32  33
ENDBRANCH  31  32
ENDBRANCH  30  31
ENDBRANCH  28  30
ENDBRANCH  27  28
ENDBRANCH  26  27
ENDBRANCH  25  26
ENDBRANCH  23  25
ENDBRANCH  22  23
ENDBRANCH  21  22
ENDBRANCH  20  21
ENDBRANCH  19  20
ENDBRANCH  18  19
BRANCH  18  41
HETATM   41  O   UNK N   1      22.760  18.198   3.666  0.00  0.00    -0.382 OA
BRANCH  41  42
HETATM   42  C   UNK N   1      23.694  19.223   3.895  0.00  0.00     0.168 C 
BRANCH  42  43
HETATM   43  C   UNK N   1      24.659  18.850   5.012  0.00  0.00     0.030 C 
BRANCH  43  44
HETATM   44  C   UNK N   1      26.062  19.360   4.704  0.00  0.00    -0.017 C 
HETATM   45  C   UNK N   1      26.278  20.667   5.436  0.00  0.00     0.010 C 
BRANCH  44  46
HETATM   46  C   UNK N   1      27.109  18.358   5.183  0.00  0.00     0.004 C 
BRANCH  46  47
HETATM   47  C   UNK N   1      28.187  19.014   6.039  0.00  0.00     0.001 C 
BRANCH  47  48
HETATM   48  C   UNK N   1      28.834  17.962   6.941  0.00  0.00     0.004 C 
BRANCH  48  49
HETATM   49  C   UNK N   1      28.670  18.282   8.422  0.00  0.00    -0.019 C 
HETATM   50  C   UNK N   1      27.742  17.259   9.044  0.00  0.00     0.010 C 
BRANCH  49  51
HETATM   51  C   UNK N   1      30.026  18.254   9.139  0.00  0.00     0.004 C 
BRANCH  51  52
HETATM   52  C   UNK N   1      31.218  18.213   8.193  0.00  0.00     0.001 C 
BRANCH  52  53
HETATM   53  C   UNK N   1      32.028  16.952   8.456  0.00  0.00     0.004 C 
BRANCH  53  54
HETATM   54  C   UNK N   1      32.853  16.565   7.233  0.00  0.00    -0.019 C 
HETATM   55  C   UNK N   1      33.886  17.644   6.989  0.00  0.00     0.010 C 
BRANCH  54  56
HETATM   56  C   UNK N   1      31.959  16.484   6.009  0.00  0.00     0.004 C 
BRANCH  56  57
HETATM   57  C   UNK N   1      32.712  16.014   4.773  0.00  0.00     0.001 C 
BRANCH  57  58
HETATM   58  C   UNK N   1      31.735  15.493   3.729  0.00  0.00     0.004 C 
BRANCH  58  59
HETATM   59  C   UNK N   1      30.283  15.675   4.158  0.00  0.00    -0.023 C 
HETATM   60  C   UNK N   1      29.632  14.318   4.314  0.00  0.00     0.009 C 
HETATM   61  C   UNK N   1      29.514  16.489   3.134  0.00  0.00     0.009 C 
ENDBRANCH  58  59
ENDBRANCH  57  58
ENDBRANCH  56  57
ENDBRANCH  54  56
ENDBRANCH  53  54
ENDBRANCH  52  53
ENDBRANCH  51  52
ENDBRANCH  49  51
ENDBRANCH  48  49
ENDBRANCH  47  48
ENDBRANCH  46  47
ENDBRANCH  44  46
ENDBRANCH  43  44
ENDBRANCH  42  43
ENDBRANCH  41  42
ENDBRANCH  18  41
ENDBRANCH  17  18
ENDBRANCH  16  17
ENDBRANCH  12  16
ENDBRANCH  11  12
ENDBRANCH  10  11
ENDBRANCH   1  10
TORSDOF 43
ENDMDL
MODEL 5
REMARK VINA RESULT:      -5.7      5.436     11.024
REMARK WARNING: 32 MAX_TORS EXCEEDED!!!
REMARK  43 active torsions:
REMARK  status: ('A' for Active; 'I' for Inactive)
REMARK    1  A    between atoms: C_17  and  C_11 
REMARK    2  A    between atoms: C_19  and  C_11 
REMARK    3  A    between atoms: C_18  and  C_12 
REMARK    4  A    between atoms: C_20  and  C_12 
REMARK    5  A    between atoms: C_21  and  C_13 
REMARK    6  A    between atoms: C_23  and  C_13 
REMARK    7  A    between atoms: C_22  and  C_14 
REMARK    8  A    between atoms: C_24  and  C_14 
REMARK    9  A    between atoms: C_25  and  C_15 
REMARK   10  A    between atoms: C_27  and  C_15 
REMARK   11  A    between atoms: C_26  and  C_16 
REMARK   12  A    between atoms: C_28  and  C_16 
REMARK   13  A    between atoms: C_37  and  C_17 
REMARK   14  A    between atoms: C_38  and  C_18 
REMARK   15  A    between atoms: C_39  and  C_19 
REMARK   16  A    between atoms: C_40  and  C_20 
REMARK   17  A    between atoms: C_39  and  C_21 
REMARK   18  A    between atoms: C_40  and  C_22 
REMARK   19  A    between atoms: C_41  and  C_23 
REMARK   20  A    between atoms: C_42  and  C_24 
REMARK   21  A    between atoms: C_41  and  C_25 
REMARK   22  A    between atoms: C_42  and  C_26 
REMARK   23  A    between atoms: C_43  and  C_27 
REMARK   24  A    between atoms: C_44  and  C_28 
REMARK   25  A    between atoms: C_31  and  C_29 
REMARK   26  A    between atoms: C_43  and  C_29 
REMARK   27  A    between atoms: C_32  and  C_30 
REMARK   28  A    between atoms: C_44  and  C_30 
REMARK   29  A    between atoms: O_53  and  C_31 
REMARK   30  A    between atoms: O_54  and  C_32 
REMARK   31  A    between atoms: C_45  and  C_33 
REMARK   32  A    between atoms: O_55  and  C_33 
REMARK   33  A    between atoms: C_45  and  C_34 
REMARK   34  A    between atoms: O_56  and  C_34 
REMARK   35  A    between atoms: C_46  and  C_35 
REMARK   36  A    between atoms: O_53  and  C_35 
REMARK   37  A    between atoms: C_46  and  C_36 
REMARK   38  A    between atoms: O_57  and  C_36 
REMARK   39  A    between atoms: C_46  and  O_54 
REMARK   40  A    between atoms: P_59  and  O_51 
REMARK   41  A    between atoms: P_58  and  O_55 
REMARK   42  A    between atoms: P_59  and  O_56 
REMARK   43  A    between atoms: P_59  and  O_57 
ROOT
HETATM    1  C   UNK N   1      37.286  13.427  10.720  0.00  0.00     0.166 C 
HETATM    2  O   UNK N   1      38.668  13.446  10.930  0.00  0.00    -0.391 OA
HETATM    3  H   UNK N   1      39.626  13.587  10.966  0.00  0.00     0.210 HD
ENDROOT
BRANCH   1   4
HETATM    4  C   UNK N   1      36.557  12.757  11.886  0.00  0.00     0.216 C 
BRANCH   4   5
HETATM    5  O   UNK N   1      35.768  13.663  12.611  0.00  0.00    -0.280 OA
BRANCH   5   6
HETATM    6  P   UNK N   1      36.058  13.374  14.307  0.00  0.00     0.422 P 
HETATM    7  O   UNK N   1      34.606  13.136  15.233  0.00  0.00    -0.617 OA
HETATM    8  O   UNK N   1      37.159  12.052  14.531  0.00  0.00    -0.617 OA
HETATM    9  O   UNK N   1      36.758  14.639  14.870  0.00  0.00    -0.617 OA
ENDBRANCH   5   6
ENDBRANCH   4   5
ENDBRANCH   1   4
BRANCH   1  10
HETATM   10  C   UNK N   1      36.760  14.842  10.561  0.00  0.00     0.214 C 
BRANCH  10  11
HETATM   11  O   UNK N   1      35.889  14.918   9.475  0.00  0.00    -0.294 OA
BRANCH  11  12
HETATM   12  P   UNK N   1      34.817  16.233   9.851  0.00  0.00     0.393 P 
HETATM   13  O   UNK N   1      35.293  16.851  11.194  0.00  0.00    -0.631 OA
BRANCH  12  14
HETATM   14  O   UNK N   1      33.190  15.659  10.058  0.00  0.00    -0.307 OA
HETATM   15  H   UNK N   1      32.465  15.330   9.505  0.00  0.00     0.222 HD
ENDBRANCH  12  14
BRANCH  12  16
HETATM   16  O   UNK N   1      34.943  17.456   8.616  0.00  0.00    -0.294 OA
BRANCH  16  17
HETATM   17  C   UNK N   1      34.520  16.863   7.425  0.00  0.00     0.214 C 
BRANCH  17  18
HETATM   18  C   UNK N   1      33.425  17.684   6.715  0.00  0.00     0.169 C 
BRANCH  18  19
HETATM   19  C   UNK N   1      32.024  17.161   7.038  0.00  0.00     0.201 C 
BRANCH  19  20
HETATM   20  O   UNK N   1      31.577  17.695   8.248  0.00  0.00    -0.389 OA
BRANCH  20  21
HETATM   21  C   UNK N   1      30.188  17.559   8.183  0.00  0.00     0.168 C 
BRANCH  21  22
HETATM   22  C   UNK N   1      29.746  17.059   6.808  0.00  0.00     0.030 C 
BRANCH  22  23
HETATM   23  C   UNK N   1      28.343  17.533   6.438  0.00  0.00    -0.017 C 
HETATM   24  C   UNK N   1      27.323  16.441   6.696  0.00  0.00     0.010 C 
BRANCH  23  25
HETATM   25  C   UNK N   1      28.320  17.914   4.960  0.00  0.00     0.004 C 
BRANCH  25  26
HETATM   26  C   UNK N   1      27.591  19.242   4.693  0.00  0.00     0.001 C 
BRANCH  26  27
HETATM   27  C   UNK N   1      26.588  19.146   3.539  0.00  0.00     0.004 C 
BRANCH  27  28
HETATM   28  C   UNK N   1      25.167  19.503   3.957  0.00  0.00    -0.019 C 
HETATM   29  C   UNK N   1      24.613  20.481   2.943  0.00  0.00     0.010 C 
BRANCH  28  30
HETATM   30  C   UNK N   1      24.255  18.272   3.977  0.00  0.00     0.004 C 
BRANCH  30  31
HETATM   31  C   UNK N   1      24.297  17.446   5.266  0.00  0.00     0.001 C 
BRANCH  31  32
HETATM   32  C   UNK N   1      23.095  16.520   5.434  0.00  0.00     0.004 C 
BRANCH  32  33
HETATM   33  C   UNK N   1      21.765  17.124   5.003  0.00  0.00    -0.019 C 
HETATM   34  C   UNK N   1      21.400  18.183   6.019  0.00  0.00     0.010 C 
BRANCH  33  35
HETATM   35  C   UNK N   1      20.658  16.079   4.995  0.00  0.00     0.004 C 
BRANCH  35  36
HETATM   36  C   UNK N   1      19.932  16.010   3.660  0.00  0.00     0.001 C 
BRANCH  36  37
HETATM   37  C   UNK N   1      20.742  16.704   2.573  0.00  0.00     0.004 C 
BRANCH  37  38
HETATM   38  C   UNK N   1      20.667  15.970   1.240  0.00  0.00    -0.023 C 
HETATM   39  C   UNK N   1      19.850  16.788   0.264  0.00  0.00     0.009 C 
HETATM   40  C   UNK N   1      20.031  14.602   1.406  0.00  0.00     0.009 C 
ENDBRANCH  37  38
ENDBRANCH  36  37
ENDBRANCH  35  36
ENDBRANCH  33  35
ENDBRANCH  32  33
ENDBRANCH  31  32
ENDBRANCH  30  31
ENDBRANCH  28  30
ENDBRANCH  27  28
ENDBRANCH  26  27
ENDBRANCH  25  26
ENDBRANCH  23  25
ENDBRANCH  22  23
ENDBRANCH  21  22
ENDBRANCH  20  21
ENDBRANCH  19  20
ENDBRANCH  18  19
BRANCH  18  41
HETATM   41  O   UNK N   1      33.595  17.882   5.325  0.00  0.00    -0.382 OA
BRANCH  41  42
HETATM   42  C   UNK N   1      32.611  17.187   4.602  0.00  0.00     0.168 C 
BRANCH  42  43
HETATM   43  C   UNK N   1      33.235  16.145   3.684  0.00  0.00     0.030 C 
BRANCH  43  44
HETATM   44  C   UNK N   1      32.194  15.125   3.240  0.00  0.00    -0.017 C 
HETATM   45  C   UNK N   1      32.905  13.917   2.669  0.00  0.00     0.010 C 
BRANCH  44  46
HETATM   46  C   UNK N   1      31.351  14.673   4.430  0.00  0.00     0.004 C 
BRANCH  46  47
HETATM   47  C   UNK N   1      29.858  14.690   4.120  0.00  0.00     0.001 C 
BRANCH  47  48
HETATM   48  C   UNK N   1      29.629  15.305   2.739  0.00  0.00     0.004 C 
BRANCH  48  49
HETATM   49  C   UNK N   1      28.542  14.586   1.951  0.00  0.00    -0.019 C 
HETATM   50  C   UNK N   1      29.065  13.230   1.522  0.00  0.00     0.010 C 
BRANCH  49  51
HETATM   51  C   UNK N   1      27.279  14.407   2.803  0.00  0.00     0.004 C 
BRANCH  51  52
HETATM   52  C   UNK N   1      26.282  15.549   2.666  0.00  0.00     0.001 C 
BRANCH  52  53
HETATM   53  C   UNK N   1      25.399  15.307   1.451  0.00  0.00     0.004 C 
BRANCH  53  54
HETATM   54  C   UNK N   1      24.541  14.060   1.635  0.00  0.00    -0.019 C 
HETATM   55  C   UNK N   1      23.755  13.826   0.363  0.00  0.00     0.010 C 
BRANCH  54  56
HETATM   56  C   UNK N   1      23.552  14.274   2.767  0.00  0.00     0.004 C 
BRANCH  56  57
HETATM   57  C   UNK N   1      23.592  13.149   3.791  0.00  0.00     0.001 C 
BRANCH  57  58
HETATM   58  C   UNK N   1      22.177  12.715   4.149  0.00  0.00     0.004 C 
BRANCH  58  59
HETATM   59  C   UNK N   1      22.082  12.187   5.576  0.00  0.00    -0.023 C 
HETATM   60  C   UNK N   1      22.925  13.050   6.488  0.00  0.00     0.009 C 
HETATM   61  C   UNK N   1      22.564  10.750   5.655  0.00  0.00     0.009 C 
ENDBRANCH  58  59
ENDBRANCH  57  58
ENDBRANCH  56  57
ENDBRANCH  54  56
ENDBRANCH  53  54
ENDBRANCH  52  53
ENDBRANCH  51  52
ENDBRANCH  49  51
ENDBRANCH  48  49
ENDBRANCH  47  48
ENDBRANCH  46  47
ENDBRANCH  44  46
ENDBRANCH  43  44
ENDBRANCH  42  43
ENDBRANCH  41  42
ENDBRANCH  18  41
ENDBRANCH  17  18
ENDBRANCH  16  17
ENDBRANCH  12  16
ENDBRANCH  11  12
ENDBRANCH  10  11
ENDBRANCH   1  10
TORSDOF 43
ENDMDL
MODEL 6
REMARK VINA RESULT:      -5.7      3.057      6.860
REMARK WARNING: 32 MAX_TORS EXCEEDED!!!
REMARK  43 active torsions:
REMARK  status: ('A' for Active; 'I' for Inactive)
REMARK    1  A    between atoms: C_17  and  C_11 
REMARK    2  A    between atoms: C_19  and  C_11 
REMARK    3  A    between atoms: C_18  and  C_12 
REMARK    4  A    between atoms: C_20  and  C_12 
REMARK    5  A    between atoms: C_21  and  C_13 
REMARK    6  A    between atoms: C_23  and  C_13 
REMARK    7  A    between atoms: C_22  and  C_14 
REMARK    8  A    between atoms: C_24  and  C_14 
REMARK    9  A    between atoms: C_25  and  C_15 
REMARK   10  A    between atoms: C_27  and  C_15 
REMARK   11  A    between atoms: C_26  and  C_16 
REMARK   12  A    between atoms: C_28  and  C_16 
REMARK   13  A    between atoms: C_37  and  C_17 
REMARK   14  A    between atoms: C_38  and  C_18 
REMARK   15  A    between atoms: C_39  and  C_19 
REMARK   16  A    between atoms: C_40  and  C_20 
REMARK   17  A    between atoms: C_39  and  C_21 
REMARK   18  A    between atoms: C_40  and  C_22 
REMARK   19  A    between atoms: C_41  and  C_23 
REMARK   20  A    between atoms: C_42  and  C_24 
REMARK   21  A    between atoms: C_41  and  C_25 
REMARK   22  A    between atoms: C_42  and  C_26 
REMARK   23  A    between atoms: C_43  and  C_27 
REMARK   24  A    between atoms: C_44  and  C_28 
REMARK   25  A    between atoms: C_31  and  C_29 
REMARK   26  A    between atoms: C_43  and  C_29 
REMARK   27  A    between atoms: C_32  and  C_30 
REMARK   28  A    between atoms: C_44  and  C_30 
REMARK   29  A    between atoms: O_53  and  C_31 
REMARK   30  A    between atoms: O_54  and  C_32 
REMARK   31  A    between atoms: C_45  and  C_33 
REMARK   32  A    between atoms: O_55  and  C_33 
REMARK   33  A    between atoms: C_45  and  C_34 
REMARK   34  A    between atoms: O_56  and  C_34 
REMARK   35  A    between atoms: C_46  and  C_35 
REMARK   36  A    between atoms: O_53  and  C_35 
REMARK   37  A    between atoms: C_46  and  C_36 
REMARK   38  A    between atoms: O_57  and  C_36 
REMARK   39  A    between atoms: C_46  and  O_54 
REMARK   40  A    between atoms: P_59  and  O_51 
REMARK   41  A    between atoms: P_58  and  O_55 
REMARK   42  A    between atoms: P_59  and  O_56 
REMARK   43  A    between atoms: P_59  and  O_57 
ROOT
HETATM    1  C   UNK N   1      20.549  14.550   9.283  0.00  0.00     0.166 C 
HETATM    2  O   UNK N   1      19.254  14.415   9.792  0.00  0.00    -0.391 OA
HETATM    3  H   UNK N   1      18.320  14.458  10.051  0.00  0.00     0.210 HD
ENDROOT
BRANCH   1   4
HETATM    4  C   UNK N   1      21.315  13.229   9.361  0.00  0.00     0.216 C 
BRANCH   4   5
HETATM    5  O   UNK N   1      21.991  13.077  10.580  0.00  0.00    -0.280 OA
BRANCH   5   6
HETATM    6  P   UNK N   1      23.575  12.435  10.229  0.00  0.00     0.422 P 
HETATM    7  O   UNK N   1      24.510  12.065  11.647  0.00  0.00    -0.617 OA
HETATM    8  O   UNK N   1      23.467  11.056   9.182  0.00  0.00    -0.617 OA
HETATM    9  O   UNK N   1      24.346  13.531   9.445  0.00  0.00    -0.617 OA
ENDBRANCH   5   6
ENDBRANCH   4   5
ENDBRANCH   1   4
BRANCH   1  10
HETATM   10  C   UNK N   1      20.498  15.003   7.835  0.00  0.00     0.214 C 
BRANCH  10  11
HETATM   11  O   UNK N   1      21.181  16.210   7.679  0.00  0.00    -0.294 OA
BRANCH  11  12
HETATM   12  P   UNK N   1      22.323  15.917   6.403  0.00  0.00     0.393 P 
HETATM   13  O   UNK N   1      21.664  14.925   5.406  0.00  0.00    -0.631 OA
BRANCH  12  14
HETATM   14  O   UNK N   1      23.769  15.183   7.030  0.00  0.00    -0.307 OA
HETATM   15  H   UNK N   1      24.729  15.279   6.930  0.00  0.00     0.222 HD
ENDBRANCH  12  14
BRANCH  12  16
HETATM   16  O   UNK N   1      22.642  17.406   5.556  0.00  0.00    -0.294 OA
BRANCH  16  17
HETATM   17  C   UNK N   1      21.452  18.137   5.577  0.00  0.00     0.214 C 
BRANCH  17  18
HETATM   18  C   UNK N   1      21.094  18.717   4.194  0.00  0.00     0.169 C 
BRANCH  18  19
HETATM   19  C   UNK N   1      21.217  17.666   3.090  0.00  0.00     0.201 C 
BRANCH  19  20
HETATM   20  O   UNK N   1      20.058  17.646   2.311  0.00  0.00    -0.389 OA
BRANCH  20  21
HETATM   21  C   UNK N   1      20.276  16.602   1.409  0.00  0.00     0.168 C 
BRANCH  21  22
HETATM   22  C   UNK N   1      20.618  15.304   2.139  0.00  0.00     0.030 C 
BRANCH  22  23
HETATM   23  C   UNK N   1      19.515  14.257   2.014  0.00  0.00    -0.017 C 
HETATM   24  C   UNK N   1      19.395  13.449   3.291  0.00  0.00     0.010 C 
BRANCH  23  25
HETATM   25  C   UNK N   1      19.844  13.325   0.849  0.00  0.00     0.004 C 
BRANCH  25  26
HETATM   26  C   UNK N   1      20.936  12.298   1.192  0.00  0.00     0.001 C 
BRANCH  26  27
HETATM   27  C   UNK N   1      22.094  12.308   0.189  0.00  0.00     0.004 C 
BRANCH  27  28
HETATM   28  C   UNK N   1      23.428  12.677   0.827  0.00  0.00    -0.019 C 
HETATM   29  C   UNK N   1      23.731  14.118   0.479  0.00  0.00     0.010 C 
BRANCH  28  30
HETATM   30  C   UNK N   1      23.378  12.557   2.353  0.00  0.00     0.004 C 
BRANCH  30  31
HETATM   31  C   UNK N   1      24.739  12.537   3.054  0.00  0.00     0.001 C 
BRANCH  31  32
HETATM   32  C   UNK N   1      24.945  13.703   4.019  0.00  0.00     0.004 C 
BRANCH  32  33
HETATM   33  C   UNK N   1      26.062  14.661   3.625  0.00  0.00    -0.019 C 
HETATM   34  C   UNK N   1      25.489  16.061   3.663  0.00  0.00     0.010 C 
BRANCH  33  35
HETATM   35  C   UNK N   1      26.550  14.391   2.209  0.00  0.00     0.004 C 
BRANCH  35  36
HETATM   36  C   UNK N   1      28.005  14.790   2.009  0.00  0.00     0.001 C 
BRANCH  36  37
HETATM   37  C   UNK N   1      28.904  14.045   2.987  0.00  0.00     0.004 C 
BRANCH  37  38
HETATM   38  C   UNK N   1      29.815  14.987   3.765  0.00  0.00    -0.023 C 
HETATM   39  C   UNK N   1      29.778  14.618   5.232  0.00  0.00     0.009 C 
HETATM   40  C   UNK N   1      29.378  16.430   3.597  0.00  0.00     0.009 C 
ENDBRANCH  37  38
ENDBRANCH  36  37
ENDBRANCH  35  36
ENDBRANCH  33  35
ENDBRANCH  32  33
ENDBRANCH  31  32
ENDBRANCH  30  31
ENDBRANCH  28  30
ENDBRANCH  27  28
ENDBRANCH  26  27
ENDBRANCH  25  26
ENDBRANCH  23  25
ENDBRANCH  22  23
ENDBRANCH  21  22
ENDBRANCH  20  21
ENDBRANCH  19  20
ENDBRANCH  18  19
BRANCH  18  41
HETATM   41  O   UNK N   1      21.740  19.923   3.836  0.00  0.00    -0.382 OA
BRANCH  41  42
HETATM   42  C   UNK N   1      22.848  19.664   3.012  0.00  0.00     0.168 C 
BRANCH  42  43
HETATM   43  C   UNK N   1      24.015  20.580   3.353  0.00  0.00     0.030 C 
BRANCH  43  44
HETATM   44  C   UNK N   1      25.306  19.781   3.489  0.00  0.00    -0.017 C 
HETATM   45  C   UNK N   1      26.457  20.624   2.985  0.00  0.00     0.010 C 
BRANCH  44  46
HETATM   46  C   UNK N   1      25.564  19.433   4.953  0.00  0.00     0.004 C 
BRANCH  46  47
HETATM   47  C   UNK N   1      26.787  20.153   5.510  0.00  0.00     0.001 C 
BRANCH  47  48
HETATM   48  C   UNK N   1      27.905  19.142   5.766  0.00  0.00     0.004 C 
BRANCH  48  49
HETATM   49  C   UNK N   1      27.733  18.404   7.088  0.00  0.00    -0.019 C 
HETATM   50  C   UNK N   1      27.557  16.926   6.803  0.00  0.00     0.010 C 
BRANCH  49  51
HETATM   51  C   UNK N   1      28.954  18.615   7.993  0.00  0.00     0.004 C 
BRANCH  51  52
HETATM   52  C   UNK N   1      29.902  17.424   8.030  0.00  0.00     0.001 C 
BRANCH  52  53
HETATM   53  C   UNK N   1      31.265  17.879   8.529  0.00  0.00     0.004 C 
BRANCH  53  54
HETATM   54  C   UNK N   1      32.388  17.243   7.716  0.00  0.00    -0.019 C 
HETATM   55  C   UNK N   1      33.629  18.096   7.862  0.00  0.00     0.010 C 
BRANCH  54  56
HETATM   56  C   UNK N   1      32.010  17.210   6.246  0.00  0.00     0.004 C 
BRANCH  56  57
HETATM   57  C   UNK N   1      33.170  17.598   5.342  0.00  0.00     0.001 C 
BRANCH  57  58
HETATM   58  C   UNK N   1      33.078  16.850   4.019  0.00  0.00     0.004 C 
BRANCH  58  59
HETATM   59  C   UNK N   1      33.409  15.370   4.170  0.00  0.00    -0.023 C 
HETATM   60  C   UNK N   1      34.632  15.216   5.047  0.00  0.00     0.009 C 
HETATM   61  C   UNK N   1      33.674  14.733   2.819  0.00  0.00     0.009 C 
ENDBRANCH  58  59
ENDBRANCH  57  58
ENDBRANCH  56  57
ENDBRANCH  54  56
ENDBRANCH  53  54
ENDBRANCH  52  53
ENDBRANCH  51  52
ENDBRANCH  49  51
ENDBRANCH  48  49
ENDBRANCH  47  48
ENDBRANCH  46  47
ENDBRANCH  44  46
ENDBRANCH  43  44
ENDBRANCH  42  43
ENDBRANCH  41  42
ENDBRANCH  18  41
ENDBRANCH  17  18
ENDBRANCH  16  17
ENDBRANCH  12  16
ENDBRANCH  11  12
ENDBRANCH  10  11
ENDBRANCH   1  10
TORSDOF 43
ENDMDL
MODEL 7
REMARK VINA RESULT:      -5.6      2.609      6.745
REMARK WARNING: 32 MAX_TORS EXCEEDED!!!
REMARK  43 active torsions:
REMARK  status: ('A' for Active; 'I' for Inactive)
REMARK    1  A    between atoms: C_17  and  C_11 
REMARK    2  A    between atoms: C_19  and  C_11 
REMARK    3  A    between atoms: C_18  and  C_12 
REMARK    4  A    between atoms: C_20  and  C_12 
REMARK    5  A    between atoms: C_21  and  C_13 
REMARK    6  A    between atoms: C_23  and  C_13 
REMARK    7  A    between atoms: C_22  and  C_14 
REMARK    8  A    between atoms: C_24  and  C_14 
REMARK    9  A    between atoms: C_25  and  C_15 
REMARK   10  A    between atoms: C_27  and  C_15 
REMARK   11  A    between atoms: C_26  and  C_16 
REMARK   12  A    between atoms: C_28  and  C_16 
REMARK   13  A    between atoms: C_37  and  C_17 
REMARK   14  A    between atoms: C_38  and  C_18 
REMARK   15  A    between atoms: C_39  and  C_19 
REMARK   16  A    between atoms: C_40  and  C_20 
REMARK   17  A    between atoms: C_39  and  C_21 
REMARK   18  A    between atoms: C_40  and  C_22 
REMARK   19  A    between atoms: C_41  and  C_23 
REMARK   20  A    between atoms: C_42  and  C_24 
REMARK   21  A    between atoms: C_41  and  C_25 
REMARK   22  A    between atoms: C_42  and  C_26 
REMARK   23  A    between atoms: C_43  and  C_27 
REMARK   24  A    between atoms: C_44  and  C_28 
REMARK   25  A    between atoms: C_31  and  C_29 
REMARK   26  A    between atoms: C_43  and  C_29 
REMARK   27  A    between atoms: C_32  and  C_30 
REMARK   28  A    between atoms: C_44  and  C_30 
REMARK   29  A    between atoms: O_53  and  C_31 
REMARK   30  A    between atoms: O_54  and  C_32 
REMARK   31  A    between atoms: C_45  and  C_33 
REMARK   32  A    between atoms: O_55  and  C_33 
REMARK   33  A    between atoms: C_45  and  C_34 
REMARK   34  A    between atoms: O_56  and  C_34 
REMARK   35  A    between atoms: C_46  and  C_35 
REMARK   36  A    between atoms: O_53  and  C_35 
REMARK   37  A    between atoms: C_46  and  C_36 
REMARK   38  A    between atoms: O_57  and  C_36 
REMARK   39  A    between atoms: C_46  and  O_54 
REMARK   40  A    between atoms: P_59  and  O_51 
REMARK   41  A    between atoms: P_58  and  O_55 
REMARK   42  A    between atoms: P_59  and  O_56 
REMARK   43  A    between atoms: P_59  and  O_57 
ROOT
HETATM    1  C   UNK N   1      20.855  17.544   6.295  0.00  0.00     0.166 C 
HETATM    2  O   UNK N   1      21.064  18.755   6.962  0.00  0.00    -0.391 OA
HETATM    3  H   UNK N   1      21.146  19.514   7.558  0.00  0.00     0.210 HD
ENDROOT
BRANCH   1   4
HETATM    4  C   UNK N   1      21.741  17.435   5.053  0.00  0.00     0.216 C 
BRANCH   4   5
HETATM    5  O   UNK N   1      22.432  18.626   4.786  0.00  0.00    -0.280 OA
BRANCH   5   6
HETATM    6  P   UNK N   1      21.619  19.422   3.463  0.00  0.00     0.422 P 
HETATM    7  O   UNK N   1      22.649  20.476   2.542  0.00  0.00    -0.617 OA
HETATM    8  O   UNK N   1      20.835  18.267   2.433  0.00  0.00    -0.617 OA
HETATM    9  O   UNK N   1      20.499  20.301   4.082  0.00  0.00    -0.617 OA
ENDBRANCH   5   6
ENDBRANCH   4   5
ENDBRANCH   1   4
BRANCH   1  10
HETATM   10  C   UNK N   1      21.159  16.378   7.218  0.00  0.00     0.214 C 
BRANCH  10  11
HETATM   11  O   UNK N   1      19.980  15.742   7.603  0.00  0.00    -0.294 OA
BRANCH  11  12
HETATM   12  P   UNK N   1      20.490  14.419   8.607  0.00  0.00     0.393 P 
HETATM   13  O   UNK N   1      19.469  14.298   9.772  0.00  0.00    -0.631 OA
BRANCH  12  14
HETATM   14  O   UNK N   1      22.060  14.732   9.286  0.00  0.00    -0.307 OA
HETATM   15  H   UNK N   1      22.971  14.421   9.172  0.00  0.00     0.222 HD
ENDBRANCH  12  14
BRANCH  12  16
HETATM   16  O   UNK N   1      20.443  12.939   7.688  0.00  0.00    -0.294 OA
BRANCH  16  17
HETATM   17  C   UNK N   1      21.623  12.897   6.942  0.00  0.00     0.214 C 
BRANCH  17  18
HETATM   18  C   UNK N   1      22.390  11.574   7.130  0.00  0.00     0.169 C 
BRANCH  18  19
HETATM   19  C   UNK N   1      23.828  11.812   7.595  0.00  0.00     0.201 C 
BRANCH  19  20
HETATM   20  O   UNK N   1      23.950  13.086   8.152  0.00  0.00    -0.389 OA
BRANCH  20  21
HETATM   21  C   UNK N   1      24.999  13.668   7.437  0.00  0.00     0.168 C 
BRANCH  21  22
HETATM   22  C   UNK N   1      24.478  14.456   6.236  0.00  0.00     0.030 C 
BRANCH  22  23
HETATM   23  C   UNK N   1      25.604  15.079   5.415  0.00  0.00    -0.017 C 
HETATM   24  C   UNK N   1      26.943  14.872   6.096  0.00  0.00     0.010 C 
BRANCH  23  25
HETATM   25  C   UNK N   1      25.336  16.575   5.259  0.00  0.00     0.004 C 
BRANCH  25  26
HETATM   26  C   UNK N   1      25.298  17.028   3.790  0.00  0.00     0.001 C 
BRANCH  26  27
HETATM   27  C   UNK N   1      26.417  18.016   3.446  0.00  0.00     0.004 C 
BRANCH  27  28
HETATM   28  C   UNK N   1      27.642  17.858   4.339  0.00  0.00    -0.019 C 
HETATM   29  C   UNK N   1      28.768  17.303   3.495  0.00  0.00     0.010 C 
BRANCH  28  30
HETATM   30  C   UNK N   1      28.099  19.201   4.917  0.00  0.00     0.004 C 
BRANCH  30  31
HETATM   31  C   UNK N   1      27.458  19.593   6.251  0.00  0.00     0.001 C 
BRANCH  31  32
HETATM   32  C   UNK N   1      28.345  19.304   7.460  0.00  0.00     0.004 C 
BRANCH  32  33
HETATM   33  C   UNK N   1      28.556  17.824   7.752  0.00  0.00    -0.019 C 
HETATM   34  C   UNK N   1      28.164  17.588   9.194  0.00  0.00     0.010 C 
BRANCH  33  35
HETATM   35  C   UNK N   1      30.017  17.431   7.592  0.00  0.00     0.004 C 
BRANCH  35  36
HETATM   36  C   UNK N   1      30.202  16.248   6.654  0.00  0.00     0.001 C 
BRANCH  36  37
HETATM   37  C   UNK N   1      31.674  16.066   6.305  0.00  0.00     0.004 C 
BRANCH  37  38
HETATM   38  C   UNK N   1      32.310  17.353   5.795  0.00  0.00    -0.023 C 
HETATM   39  C   UNK N   1      32.358  17.321   4.283  0.00  0.00     0.009 C 
HETATM   40  C   UNK N   1      33.716  17.520   6.341  0.00  0.00     0.009 C 
ENDBRANCH  37  38
ENDBRANCH  36  37
ENDBRANCH  35  36
ENDBRANCH  33  35
ENDBRANCH  32  33
ENDBRANCH  31  32
ENDBRANCH  30  31
ENDBRANCH  28  30
ENDBRANCH  27  28
ENDBRANCH  26  27
ENDBRANCH  25  26
ENDBRANCH  23  25
ENDBRANCH  22  23
ENDBRANCH  21  22
ENDBRANCH  20  21
ENDBRANCH  19  20
ENDBRANCH  18  19
BRANCH  18  41
HETATM   41  O   UNK N   1      22.341  10.664   6.048  0.00  0.00    -0.382 OA
BRANCH  41  42
HETATM   42  C   UNK N   1      23.486  10.790   5.242  0.00  0.00     0.168 C 
BRANCH  42  43
HETATM   43  C   UNK N   1      23.190  11.596   3.985  0.00  0.00     0.030 C 
BRANCH  43  44
HETATM   44  C   UNK N   1      23.756  10.900   2.753  0.00  0.00    -0.017 C 
HETATM   45  C   UNK N   1      24.427   9.614   3.184  0.00  0.00     0.010 C 
BRANCH  44  46
HETATM   46  C   UNK N   1      22.636  10.557   1.774  0.00  0.00     0.004 C 
BRANCH  46  47
HETATM   47  C   UNK N   1      22.572  11.534   0.605  0.00  0.00     0.001 C 
BRANCH  47  48
HETATM   48  C   UNK N   1      23.906  12.271   0.480  0.00  0.00     0.004 C 
BRANCH  48  49
HETATM   49  C   UNK N   1      23.733  13.781   0.377  0.00  0.00    -0.019 C 
HETATM   50  C   UNK N   1      22.344  14.148   0.856  0.00  0.00     0.010 C 
BRANCH  49  51
HETATM   51  C   UNK N   1      24.783  14.510   1.225  0.00  0.00     0.004 C 
BRANCH  51  52
HETATM   52  C   UNK N   1      25.691  13.575   2.012  0.00  0.00     0.001 C 
BRANCH  52  53
HETATM   53  C   UNK N   1      27.060  14.217   2.173  0.00  0.00     0.004 C 
BRANCH  53  54
HETATM   54  C   UNK N   1      28.169  13.172   2.106  0.00  0.00    -0.019 C 
HETATM   55  C   UNK N   1      27.617  11.929   1.440  0.00  0.00     0.010 C 
BRANCH  54  56
HETATM   56  C   UNK N   1      28.613  12.796   3.508  0.00  0.00     0.004 C 
BRANCH  56  57
HETATM   57  C   UNK N   1      29.642  13.766   4.068  0.00  0.00     0.001 C 
BRANCH  57  58
HETATM   58  C   UNK N   1      30.682  14.100   3.006  0.00  0.00     0.004 C 
BRANCH  58  59
HETATM   59  C   UNK N   1      31.816  13.082   2.971  0.00  0.00    -0.023 C 
HETATM   60  C   UNK N   1      33.107  13.755   3.381  0.00  0.00     0.009 C 
HETATM   61  C   UNK N   1      31.973  12.494   1.581  0.00  0.00     0.009 C 
ENDBRANCH  58  59
ENDBRANCH  57  58
ENDBRANCH  56  57
ENDBRANCH  54  56
ENDBRANCH  53  54
ENDBRANCH  52  53
ENDBRANCH  51  52
ENDBRANCH  49  51
ENDBRANCH  48  49
ENDBRANCH  47  48
ENDBRANCH  46  47
ENDBRANCH  44  46
ENDBRANCH  43  44
ENDBRANCH  42  43
ENDBRANCH  41  42
ENDBRANCH  18  41
ENDBRANCH  17  18
ENDBRANCH  16  17
ENDBRANCH  12  16
ENDBRANCH  11  12
ENDBRANCH  10  11
ENDBRANCH   1  10
TORSDOF 43
ENDMDL
MODEL 8
REMARK VINA RESULT:      -5.6      3.310      6.614
REMARK WARNING: 32 MAX_TORS EXCEEDED!!!
REMARK  43 active torsions:
REMARK  status: ('A' for Active; 'I' for Inactive)
REMARK    1  A    between atoms: C_17  and  C_11 
REMARK    2  A    between atoms: C_19  and  C_11 
REMARK    3  A    between atoms: C_18  and  C_12 
REMARK    4  A    between atoms: C_20  and  C_12 
REMARK    5  A    between atoms: C_21  and  C_13 
REMARK    6  A    between atoms: C_23  and  C_13 
REMARK    7  A    between atoms: C_22  and  C_14 
REMARK    8  A    between atoms: C_24  and  C_14 
REMARK    9  A    between atoms: C_25  and  C_15 
REMARK   10  A    between atoms: C_27  and  C_15 
REMARK   11  A    between atoms: C_26  and  C_16 
REMARK   12  A    between atoms: C_28  and  C_16 
REMARK   13  A    between atoms: C_37  and  C_17 
REMARK   14  A    between atoms: C_38  and  C_18 
REMARK   15  A    between atoms: C_39  and  C_19 
REMARK   16  A    between atoms: C_40  and  C_20 
REMARK   17  A    between atoms: C_39  and  C_21 
REMARK   18  A    between atoms: C_40  and  C_22 
REMARK   19  A    between atoms: C_41  and  C_23 
REMARK   20  A    between atoms: C_42  and  C_24 
REMARK   21  A    between atoms: C_41  and  C_25 
REMARK   22  A    between atoms: C_42  and  C_26 
REMARK   23  A    between atoms: C_43  and  C_27 
REMARK   24  A    between atoms: C_44  and  C_28 
REMARK   25  A    between atoms: C_31  and  C_29 
REMARK   26  A    between atoms: C_43  and  C_29 
REMARK   27  A    between atoms: C_32  and  C_30 
REMARK   28  A    between atoms: C_44  and  C_30 
REMARK   29  A    between atoms: O_53  and  C_31 
REMARK   30  A    between atoms: O_54  and  C_32 
REMARK   31  A    between atoms: C_45  and  C_33 
REMARK   32  A    between atoms: O_55  and  C_33 
REMARK   33  A    between atoms: C_45  and  C_34 
REMARK   34  A    between atoms: O_56  and  C_34 
REMARK   35  A    between atoms: C_46  and  C_35 
REMARK   36  A    between atoms: O_53  and  C_35 
REMARK   37  A    between atoms: C_46  and  C_36 
REMARK   38  A    between atoms: O_57  and  C_36 
REMARK   39  A    between atoms: C_46  and  O_54 
REMARK   40  A    between atoms: P_59  and  O_51 
REMARK   41  A    between atoms: P_58  and  O_55 
REMARK   42  A    between atoms: P_59  and  O_56 
REMARK   43  A    between atoms: P_59  and  O_57 
ROOT
HETATM    1  C   UNK N   1      21.086  13.794   8.538  0.00  0.00     0.166 C 
HETATM    2  O   UNK N   1      22.248  14.276   7.928  0.00  0.00    -0.391 OA
HETATM    3  H   UNK N   1      22.960  14.744   7.465  0.00  0.00     0.210 HD
ENDROOT
BRANCH   1   4
HETATM    4  C   UNK N   1      21.412  12.747   9.604  0.00  0.00     0.216 C 
BRANCH   4   5
HETATM    5  O   UNK N   1      22.354  13.210  10.535  0.00  0.00    -0.280 OA
BRANCH   5   6
HETATM    6  P   UNK N   1      23.848  12.360  10.241  0.00  0.00     0.422 P 
HETATM    7  O   UNK N   1      24.715  11.948  11.691  0.00  0.00    -0.617 OA
HETATM    8  O   UNK N   1      23.579  10.954   9.261  0.00  0.00    -0.617 OA
HETATM    9  O   UNK N   1      24.758  13.310   9.418  0.00  0.00    -0.617 OA
ENDBRANCH   5   6
ENDBRANCH   4   5
ENDBRANCH   1   4
BRANCH   1  10
HETATM   10  C   UNK N   1      20.325  14.935   9.188  0.00  0.00     0.214 C 
BRANCH  10  11
HETATM   11  O   UNK N   1      21.016  16.136   9.028  0.00  0.00    -0.294 OA
BRANCH  11  12
HETATM   12  P   UNK N   1      19.916  17.177   8.178  0.00  0.00     0.393 P 
HETATM   13  O   UNK N   1      19.070  17.928   9.243  0.00  0.00    -0.631 OA
BRANCH  12  14
HETATM   14  O   UNK N   1      18.839  16.250   7.178  0.00  0.00    -0.307 OA
HETATM   15  H   UNK N   1      18.260  16.393   6.414  0.00  0.00     0.222 HD
ENDBRANCH  12  14
BRANCH  12  16
HETATM   16  O   UNK N   1      20.819  18.360   7.271  0.00  0.00    -0.294 OA
BRANCH  16  17
HETATM   17  C   UNK N   1      21.445  17.668   6.231  0.00  0.00     0.214 C 
BRANCH  17  18
HETATM   18  C   UNK N   1      21.486  18.484   4.923  0.00  0.00     0.169 C 
BRANCH  18  19
HETATM   19  C   UNK N   1      20.456  17.983   3.910  0.00  0.00     0.201 C 
BRANCH  19  20
HETATM   20  O   UNK N   1      19.773  16.878   4.421  0.00  0.00    -0.389 OA
BRANCH  20  21
HETATM   21  C   UNK N   1      19.939  15.897   3.441  0.00  0.00     0.168 C 
BRANCH  21  22
HETATM   22  C   UNK N   1      20.502  16.494   2.152  0.00  0.00     0.030 C 
BRANCH  22  23
HETATM   23  C   UNK N   1      20.124  15.679   0.917  0.00  0.00    -0.017 C 
HETATM   24  C   UNK N   1      19.218  16.480   0.003  0.00  0.00     0.010 C 
BRANCH  23  25
HETATM   25  C   UNK N   1      19.404  14.408   1.363  0.00  0.00     0.004 C 
BRANCH  25  26
HETATM   26  C   UNK N   1      19.934  13.142   0.667  0.00  0.00     0.001 C 
BRANCH  26  27
HETATM   27  C   UNK N   1      20.463  12.100   1.656  0.00  0.00     0.004 C 
BRANCH  27  28
HETATM   28  C   UNK N   1      19.550  11.909   2.862  0.00  0.00    -0.019 C 
HETATM   29  C   UNK N   1      18.722  10.664   2.629  0.00  0.00     0.010 C 
BRANCH  28  30
HETATM   30  C   UNK N   1      20.350  11.713   4.153  0.00  0.00     0.004 C 
BRANCH  30  31
HETATM   31  C   UNK N   1      21.099  12.950   4.655  0.00  0.00     0.001 C 
BRANCH  31  32
HETATM   32  C   UNK N   1      22.616  12.770   4.689  0.00  0.00     0.004 C 
BRANCH  32  33
HETATM   33  C   UNK N   1      23.092  11.351   4.405  0.00  0.00    -0.019 C 
HETATM   34  C   UNK N   1      23.689  10.810   5.686  0.00  0.00     0.010 C 
BRANCH  33  35
HETATM   35  C   UNK N   1      24.176  11.334   3.337  0.00  0.00     0.004 C 
BRANCH  35  36
HETATM   36  C   UNK N   1      24.627  12.732   2.942  0.00  0.00     0.001 C 
BRANCH  36  37
HETATM   37  C   UNK N   1      25.207  12.730   1.534  0.00  0.00     0.004 C 
BRANCH  37  38
HETATM   38  C   UNK N   1      24.327  13.487   0.547  0.00  0.00    -0.023 C 
HETATM   39  C   UNK N   1      23.403  14.412   1.308  0.00  0.00     0.009 C 
HETATM   40  C   UNK N   1      23.501  12.529  -0.292  0.00  0.00     0.009 C 
ENDBRANCH  37  38
ENDBRANCH  36  37
ENDBRANCH  35  36
ENDBRANCH  33  35
ENDBRANCH  32  33
ENDBRANCH  31  32
ENDBRANCH  30  31
ENDBRANCH  28  30
ENDBRANCH  27  28
ENDBRANCH  26  27
ENDBRANCH  25  26
ENDBRANCH  23  25
ENDBRANCH  22  23
ENDBRANCH  21  22
ENDBRANCH  20  21
ENDBRANCH  19  20
ENDBRANCH  18  19
BRANCH  18  41
HETATM   41  O   UNK N   1      22.759  18.648   4.329  0.00  0.00    -0.382 OA
BRANCH  41  42
HETATM   42  C   UNK N   1      23.698  17.789   4.924  0.00  0.00     0.168 C 
BRANCH  42  43
HETATM   43  C   UNK N   1      24.320  16.854   3.897  0.00  0.00     0.030 C 
BRANCH  43  44
HETATM   44  C   UNK N   1      25.821  17.091   3.791  0.00  0.00    -0.017 C 
HETATM   45  C   UNK N   1      26.393  16.146   2.757  0.00  0.00     0.010 C 
BRANCH  44  46
HETATM   46  C   UNK N   1      26.103  18.524   3.346  0.00  0.00     0.004 C 
BRANCH  46  47
HETATM   47  C   UNK N   1      27.280  19.140   4.095  0.00  0.00     0.001 C 
BRANCH  47  48
HETATM   48  C   UNK N   1      27.229  18.718   5.564  0.00  0.00     0.004 C 
BRANCH  48  49
HETATM   49  C   UNK N   1      27.884  19.737   6.487  0.00  0.00    -0.019 C 
HETATM   50  C   UNK N   1      26.986  20.953   6.590  0.00  0.00     0.010 C 
BRANCH  49  51
HETATM   51  C   UNK N   1      28.111  19.142   7.883  0.00  0.00     0.004 C 
BRANCH  51  52
HETATM   52  C   UNK N   1      28.623  17.708   7.861  0.00  0.00     0.001 C 
BRANCH  52  53
HETATM   53  C   UNK N   1      30.141  17.713   7.970  0.00  0.00     0.004 C 
BRANCH  53  54
HETATM   54  C   UNK N   1      30.787  17.270   6.662  0.00  0.00    -0.019 C 
HETATM   55  C   UNK N   1      29.931  16.184   6.047  0.00  0.00     0.010 C 
BRANCH  54  56
HETATM   56  C   UNK N   1      32.162  16.688   6.933  0.00  0.00     0.004 C 
BRANCH  56  57
HETATM   57  C   UNK N   1      33.116  16.889   5.765  0.00  0.00     0.001 C 
BRANCH  57  58
HETATM   58  C   UNK N   1      33.306  15.581   5.010  0.00  0.00     0.004 C 
BRANCH  58  59
HETATM   59  C   UNK N   1      32.792  15.665   3.577  0.00  0.00    -0.023 C 
HETATM   60  C   UNK N   1      33.853  15.145   2.632  0.00  0.00     0.009 C 
HETATM   61  C   UNK N   1      32.446  17.095   3.208  0.00  0.00     0.009 C 
ENDBRANCH  58  59
ENDBRANCH  57  58
ENDBRANCH  56  57
ENDBRANCH  54  56
ENDBRANCH  53  54
ENDBRANCH  52  53
ENDBRANCH  51  52
ENDBRANCH  49  51
ENDBRANCH  48  49
ENDBRANCH  47  48
ENDBRANCH  46  47
ENDBRANCH  44  46
ENDBRANCH  43  44
ENDBRANCH  42  43
ENDBRANCH  41  42
ENDBRANCH  18  41
ENDBRANCH  17  18
ENDBRANCH  16  17
ENDBRANCH  12  16
ENDBRANCH  11  12
ENDBRANCH  10  11
ENDBRANCH   1  10
TORSDOF 43
ENDMDL
MODEL 9
REMARK VINA RESULT:      -5.6      1.345      6.464
REMARK WARNING: 32 MAX_TORS EXCEEDED!!!
REMARK  43 active torsions:
REMARK  status: ('A' for Active; 'I' for Inactive)
REMARK    1  A    between atoms: C_17  and  C_11 
REMARK    2  A    between atoms: C_19  and  C_11 
REMARK    3  A    between atoms: C_18  and  C_12 
REMARK    4  A    between atoms: C_20  and  C_12 
REMARK    5  A    between atoms: C_21  and  C_13 
REMARK    6  A    between atoms: C_23  and  C_13 
REMARK    7  A    between atoms: C_22  and  C_14 
REMARK    8  A    between atoms: C_24  and  C_14 
REMARK    9  A    between atoms: C_25  and  C_15 
REMARK   10  A    between atoms: C_27  and  C_15 
REMARK   11  A    between atoms: C_26  and  C_16 
REMARK   12  A    between atoms: C_28  and  C_16 
REMARK   13  A    between atoms: C_37  and  C_17 
REMARK   14  A    between atoms: C_38  and  C_18 
REMARK   15  A    between atoms: C_39  and  C_19 
REMARK   16  A    between atoms: C_40  and  C_20 
REMARK   17  A    between atoms: C_39  and  C_21 
REMARK   18  A    between atoms: C_40  and  C_22 
REMARK   19  A    between atoms: C_41  and  C_23 
REMARK   20  A    between atoms: C_42  and  C_24 
REMARK   21  A    between atoms: C_41  and  C_25 
REMARK   22  A    between atoms: C_42  and  C_26 
REMARK   23  A    between atoms: C_43  and  C_27 
REMARK   24  A    between atoms: C_44  and  C_28 
REMARK   25  A    between atoms: C_31  and  C_29 
REMARK   26  A    between atoms: C_43  and  C_29 
REMARK   27  A    between atoms: C_32  and  C_30 
REMARK   28  A    between atoms: C_44  and  C_30 
REMARK   29  A    between atoms: O_53  and  C_31 
REMARK   30  A    between atoms: O_54  and  C_32 
REMARK   31  A    between atoms: C_45  and  C_33 
REMARK   32  A    between atoms: O_55  and  C_33 
REMARK   33  A    between atoms: C_45  and  C_34 
REMARK   34  A    between atoms: O_56  and  C_34 
REMARK   35  A    between atoms: C_46  and  C_35 
REMARK   36  A    between atoms: O_53  and  C_35 
REMARK   37  A    between atoms: C_46  and  C_36 
REMARK   38  A    between atoms: O_57  and  C_36 
REMARK   39  A    between atoms: C_46  and  O_54 
REMARK   40  A    between atoms: P_59  and  O_51 
REMARK   41  A    between atoms: P_58  and  O_55 
REMARK   42  A    between atoms: P_59  and  O_56 
REMARK   43  A    between atoms: P_59  and  O_57 
ROOT
HETATM    1  C   UNK N   1      24.981  20.146   2.624  0.00  0.00     0.166 C 
HETATM    2  O   UNK N   1      25.858  21.198   2.343  0.00  0.00    -0.391 OA
HETATM    3  H   UNK N   1      26.332  22.000   2.076  0.00  0.00     0.210 HD
ENDROOT
BRANCH   1   4
HETATM    4  C   UNK N   1      25.482  19.306   3.800  0.00  0.00     0.216 C 
BRANCH   4   5
HETATM    5  O   UNK N   1      25.435  20.009   5.013  0.00  0.00    -0.280 OA
BRANCH   5   6
HETATM    6  P   UNK N   1      27.080  20.266   5.537  0.00  0.00     0.422 P 
HETATM    7  O   UNK N   1      27.558  19.247   6.862  0.00  0.00    -0.617 OA
HETATM    8  O   UNK N   1      28.184  20.113   4.208  0.00  0.00    -0.617 OA
HETATM    9  O   UNK N   1      27.175  21.734   6.030  0.00  0.00    -0.617 OA
ENDBRANCH   5   6
ENDBRANCH   4   5
ENDBRANCH   1   4
BRANCH   1  10
HETATM   10  C   UNK N   1      23.603  20.687   2.958  0.00  0.00     0.214 C 
BRANCH  10  11
HETATM   11  O   UNK N   1      22.702  19.640   3.147  0.00  0.00    -0.294 OA
BRANCH  11  12
HETATM   12  P   UNK N   1      21.218  20.189   2.429  0.00  0.00     0.393 P 
HETATM   13  O   UNK N   1      21.591  21.034   1.180  0.00  0.00    -0.631 OA
BRANCH  12  14
HETATM   14  O   UNK N   1      20.339  21.203   3.534  0.00  0.00    -0.307 OA
HETATM   15  H   UNK N   1      19.418  21.443   3.717  0.00  0.00     0.222 HD
ENDBRANCH  12  14
BRANCH  12  16
HETATM   16  O   UNK N   1      20.287  18.816   1.897  0.00  0.00    -0.294 OA
BRANCH  16  17
HETATM   17  C   UNK N   1      19.765  18.220   3.048  0.00  0.00     0.214 C 
BRANCH  17  18
HETATM   18  C   UNK N   1      19.945  16.689   3.051  0.00  0.00     0.169 C 
BRANCH  18  19
HETATM   19  C   UNK N   1      21.191  16.266   3.831  0.00  0.00     0.201 C 
BRANCH  19  20
HETATM   20  O   UNK N   1      21.228  16.911   5.068  0.00  0.00    -0.389 OA
BRANCH  20  21
HETATM   21  C   UNK N   1      22.590  16.988   5.368  0.00  0.00     0.168 C 
BRANCH  21  22
HETATM   22  C   UNK N   1      22.989  15.933   6.399  0.00  0.00     0.030 C 
BRANCH  22  23
HETATM   23  C   UNK N   1      24.090  15.007   5.890  0.00  0.00    -0.017 C 
HETATM   24  C   UNK N   1      25.127  14.762   6.968  0.00  0.00     0.010 C 
BRANCH  23  25
HETATM   25  C   UNK N   1      24.758  15.650   4.676  0.00  0.00     0.004 C 
BRANCH  25  26
HETATM   26  C   UNK N   1      26.171  15.103   4.407  0.00  0.00     0.001 C 
BRANCH  26  27
HETATM   27  C   UNK N   1      27.105  16.151   3.797  0.00  0.00     0.004 C 
BRANCH  27  28
HETATM   28  C   UNK N   1      28.457  16.220   4.498  0.00  0.00    -0.019 C 
HETATM   29  C   UNK N   1      28.250  15.852   5.951  0.00  0.00     0.010 C 
BRANCH  28  30
HETATM   30  C   UNK N   1      29.459  15.231   3.895  0.00  0.00     0.004 C 
BRANCH  30  31
HETATM   31  C   UNK N   1      30.643  15.864   3.158  0.00  0.00     0.001 C 
BRANCH  31  32
HETATM   32  C   UNK N   1      31.264  17.042   3.904  0.00  0.00     0.004 C 
BRANCH  32  33
HETATM   33  C   UNK N   1      32.738  17.278   3.599  0.00  0.00    -0.019 C 
HETATM   34  C   UNK N   1      33.315  15.966   3.117  0.00  0.00     0.010 C 
BRANCH  33  35
HETATM   35  C   UNK N   1      33.502  17.698   4.847  0.00  0.00     0.004 C 
BRANCH  35  36
HETATM   36  C   UNK N   1      33.593  16.581   5.876  0.00  0.00     0.001 C 
BRANCH  36  37
HETATM   37  C   UNK N   1      33.435  17.137   7.285  0.00  0.00     0.004 C 
BRANCH  37  38
HETATM   38  C   UNK N   1      32.238  16.536   8.012  0.00  0.00    -0.023 C 
HETATM   39  C   UNK N   1      31.746  15.327   7.247  0.00  0.00     0.009 C 
HETATM   40  C   UNK N   1      31.113  17.546   8.136  0.00  0.00     0.009 C 
ENDBRANCH  37  38
ENDBRANCH  36  37
ENDBRANCH  35  36
ENDBRANCH  33  35
ENDBRANCH  32  33
ENDBRANCH  31  32
ENDBRANCH  30  31
ENDBRANCH  28  30
ENDBRANCH  27  28
ENDBRANCH  26  27
ENDBRANCH  25  26
ENDBRANCH  23  25
ENDBRANCH  22  23
ENDBRANCH  21  22
ENDBRANCH  20  21
ENDBRANCH  19  20
ENDBRANCH  18  19
BRANCH  18  41
HETATM   41  O   UNK N   1      19.882  16.050   1.790  0.00  0.00    -0.382 OA
BRANCH  41  42
HETATM   42  C   UNK N   1      21.114  15.450   1.478  0.00  0.00     0.168 C 
BRANCH  42  43
HETATM   43  C   UNK N   1      20.914  14.109   0.784  0.00  0.00     0.030 C 
BRANCH  43  44
HETATM   44  C   UNK N   1      21.949  13.097   1.259  0.00  0.00    -0.017 C 
HETATM   45  C   UNK N   1      21.557  11.725   0.754  0.00  0.00     0.010 C 
BRANCH  44  46
HETATM   46  C   UNK N   1      23.327  13.444   0.701  0.00  0.00     0.004 C 
BRANCH  46  47
HETATM   47  C   UNK N   1      24.426  13.300   1.748  0.00  0.00     0.001 C 
BRANCH  47  48
HETATM   48  C   UNK N   1      25.275  12.068   1.433  0.00  0.00     0.004 C 
BRANCH  48  49
HETATM   49  C   UNK N   1      25.465  11.164   2.645  0.00  0.00    -0.019 C 
HETATM   50  C   UNK N   1      26.530  11.764   3.540  0.00  0.00     0.010 C 
BRANCH  49  51
HETATM   51  C   UNK N   1      24.153  11.017   3.427  0.00  0.00     0.004 C 
BRANCH  51  52
HETATM   52  C   UNK N   1      24.308  11.224   4.927  0.00  0.00     0.001 C 
BRANCH  52  53
HETATM   53  C   UNK N   1      22.979  11.674   5.515  0.00  0.00     0.004 C 
BRANCH  53  54
HETATM   54  C   UNK N   1      23.051  11.756   7.035  0.00  0.00    -0.019 C 
HETATM   55  C   UNK N   1      23.606  10.450   7.561  0.00  0.00     0.010 C 
BRANCH  54  56
HETATM   56  C   UNK N   1      21.659  11.941   7.611  0.00  0.00     0.004 C 
BRANCH  56  57
HETATM   57  C   UNK N   1      21.461  13.324   8.215  0.00  0.00     0.001 C 
BRANCH  57  58
HETATM   58  C   UNK N   1      22.141  13.405   9.575  0.00  0.00     0.004 C 
BRANCH  58  59
HETATM   59  C   UNK N   1      21.913  12.149  10.408  0.00  0.00    -0.023 C 
HETATM   60  C   UNK N   1      20.680  12.333  11.266  0.00  0.00     0.009 C 
HETATM   61  C   UNK N   1      23.108  11.866  11.299  0.00  0.00     0.009 C 
ENDBRANCH  58  59
ENDBRANCH  57  58
ENDBRANCH  56  57
ENDBRANCH  54  56
ENDBRANCH  53  54
ENDBRANCH  52  53
ENDBRANCH  51  52
ENDBRANCH  49  51
ENDBRANCH  48  49
ENDBRANCH  47  48
ENDBRANCH  46  47
ENDBRANCH  44  46
ENDBRANCH  43  44
ENDBRANCH  42  43
ENDBRANCH  41  42
ENDBRANCH  18  41
ENDBRANCH  17  18
ENDBRANCH  16  17
ENDBRANCH  12  16
ENDBRANCH  11  12
ENDBRANCH  10  11
ENDBRANCH   1  10
TORSDOF 43
ENDMDL
