MODEL 1
REMARK VINA RESULT:      -3.2      0.000      0.000
REMARK  3 active torsions:
REMARK  status: ('A' for Active; 'I' for Inactive)
REMARK    1  A    between atoms: C_2  and  C_3 
REMARK    2  A    between atoms: C_3  and  C_4 
REMARK    3  A    between atoms: C_4  and  O_5 
ROOT
HETATM    1  C   UNK N   1      23.764  11.973  11.602  0.00  0.00     0.026 C 
ENDROOT
BRANCH   1   2
HETATM    2  C   UNK N   1      22.733  11.686  10.531  0.00  0.00    -0.002 C 
HETATM    3  C   UNK N   1      21.404  12.292  10.922  0.00  0.00     0.005 C 
ENDBRANCH   1   2
BRANCH   1   4
HETATM    4  C   UNK N   1      23.103  11.846  12.958  0.00  0.00     0.164 C 
BRANCH   4   5
HETATM    5  O   UNK N   1      23.867  12.505  13.916  0.00  0.00    -0.401 OA
HETATM    6  H   UNK N   1      24.473  12.001  14.483  0.00  0.00     0.209 HD
ENDBRANCH   4   5
ENDBRANCH   1   4
TORSDOF 3
ENDMDL
MODEL 2
REMARK VINA RESULT:      -2.9     12.811     13.477
REMARK  3 active torsions:
REMARK  status: ('A' for Active; 'I' for Inactive)
REMARK    1  A    between atoms: C_2  and  C_3 
REMARK    2  A    between atoms: C_3  and  C_4 
REMARK    3  A    between atoms: C_4  and  O_5 
ROOT
HETATM    1  C   UNK N   1      20.750  19.546   1.987  0.00  0.00     0.026 C 
ENDROOT
BRANCH   1   2
HETATM    2  C   UNK N   1      21.576  19.741   3.241  0.00  0.00    -0.002 C 
HETATM    3  C   UNK N   1      22.914  20.349   2.884  0.00  0.00     0.005 C 
ENDBRANCH   1   2
BRANCH   1   4
HETATM    4  C   UNK N   1      20.681  20.862   1.243  0.00  0.00     0.164 C 
BRANCH   4   5
HETATM    5  O   UNK N   1      20.612  20.624  -0.127  0.00  0.00    -0.401 OA
HETATM    6  H   UNK N   1      20.191  21.274  -0.711  0.00  0.00     0.209 HD
ENDBRANCH   4   5
ENDBRANCH   1   4
TORSDOF 3
ENDMDL
MODEL 3
REMARK VINA RESULT:      -2.8     13.226     13.488
REMARK  3 active torsions:
REMARK  status: ('A' for Active; 'I' for Inactive)
REMARK    1  A    between atoms: C_2  and  C_3 
REMARK    2  A    between atoms: C_3  and  C_4 
REMARK    3  A    between atoms: C_4  and  O_5 
ROOT
HETATM    1  C   UNK N   1      33.419  17.943   7.430  0.00  0.00     0.026 C 
ENDROOT
BRANCH   1   2
HETATM    2  C   UNK N   1      33.887  17.139   6.236  0.00  0.00    -0.002 C 
HETATM    3  C   UNK N   1      33.097  17.533   5.009  0.00  0.00     0.005 C 
ENDBRANCH   1   2
BRANCH   1   4
HETATM    4  C   UNK N   1      34.536  17.992   8.450  0.00  0.00     0.164 C 
BRANCH   4   5
HETATM    5  O   UNK N   1      35.146  19.243   8.418  0.00  0.00    -0.401 OA
HETATM    6  H   UNK N   1      36.093  19.324   8.610  0.00  0.00     0.209 HD
ENDBRANCH   4   5
ENDBRANCH   1   4
TORSDOF 3
ENDMDL
MODEL 4
REMARK VINA RESULT:      -2.7     22.264     22.716
REMARK  3 active torsions:
REMARK  status: ('A' for Active; 'I' for Inactive)
REMARK    1  A    between atoms: C_2  and  C_3 
REMARK    2  A    between atoms: C_3  and  C_4 
REMARK    3  A    between atoms: C_4  and  O_5 
ROOT
HETATM    1  C   UNK N   1      24.760  27.279  -5.472  0.00  0.00     0.026 C 
ENDROOT
BRANCH   1   2
HETATM    2  C   UNK N   1      25.439  26.138  -6.198  0.00  0.00    -0.002 C 
HETATM    3  C   UNK N   1      25.632  24.972  -5.255  0.00  0.00     0.005 C 
ENDBRANCH   1   2
BRANCH   1   4
HETATM    4  C   UNK N   1      25.782  27.974  -4.597  0.00  0.00     0.164 C 
BRANCH   4   5
HETATM    5  O   UNK N   1      25.286  28.096  -3.302  0.00  0.00    -0.401 OA
HETATM    6  H   UNK N   1      24.611  27.477  -2.982  0.00  0.00     0.209 HD
ENDBRANCH   4   5
ENDBRANCH   1   4
TORSDOF 3
ENDMDL
MODEL 5
REMARK VINA RESULT:      -2.7     12.440     13.134
REMARK  3 active torsions:
REMARK  status: ('A' for Active; 'I' for Inactive)
REMARK    1  A    between atoms: C_2  and  C_3 
REMARK    2  A    between atoms: C_3  and  C_4 
REMARK    3  A    between atoms: C_4  and  O_5 
ROOT
HETATM    1  C   UNK N   1      20.233  19.762   2.202  0.00  0.00     0.026 C 
ENDROOT
BRANCH   1   2
HETATM    2  C   UNK N   1      20.282  18.297   1.824  0.00  0.00    -0.002 C 
HETATM    3  C   UNK N   1      20.387  17.449   3.072  0.00  0.00     0.005 C 
ENDBRANCH   1   2
BRANCH   1   4
HETATM    4  C   UNK N   1      21.091  20.542   1.229  0.00  0.00     0.164 C 
BRANCH   4   5
HETATM    5  O   UNK N   1      20.559  20.440  -0.053  0.00  0.00    -0.401 OA
HETATM    6  H   UNK N   1      20.250  19.582  -0.383  0.00  0.00     0.209 HD
ENDBRANCH   4   5
ENDBRANCH   1   4
TORSDOF 3
ENDMDL
MODEL 6
REMARK VINA RESULT:      -2.6      9.174      9.868
REMARK  3 active torsions:
REMARK  status: ('A' for Active; 'I' for Inactive)
REMARK    1  A    between atoms: C_2  and  C_3 
REMARK    2  A    between atoms: C_3  and  C_4 
REMARK    3  A    between atoms: C_4  and  O_5 
ROOT
HETATM    1  C   UNK N   1      29.822  18.420   8.898  0.00  0.00     0.026 C 
ENDROOT
BRANCH   1   2
HETATM    2  C   UNK N   1      30.755  17.485   8.160  0.00  0.00    -0.002 C 
HETATM    3  C   UNK N   1      32.189  17.910   8.382  0.00  0.00     0.005 C 
ENDBRANCH   1   2
BRANCH   1   4
HETATM    4  C   UNK N   1      28.713  17.602   9.525  0.00  0.00     0.164 C 
BRANCH   4   5
HETATM    5  O   UNK N   1      27.494  18.253   9.352  0.00  0.00    -0.401 OA
HETATM    6  H   UNK N   1      27.473  19.151   8.987  0.00  0.00     0.209 HD
ENDBRANCH   4   5
ENDBRANCH   1   4
TORSDOF 3
ENDMDL
MODEL 7
REMARK VINA RESULT:      -2.6     21.462     21.870
REMARK  3 active torsions:
REMARK  status: ('A' for Active; 'I' for Inactive)
REMARK    1  A    between atoms: C_2  and  C_3 
REMARK    2  A    between atoms: C_3  and  C_4 
REMARK    3  A    between atoms: C_4  and  O_5 
ROOT
HETATM    1  C   UNK N   1      26.200  26.990  -3.467  0.00  0.00     0.026 C 
ENDROOT
BRANCH   1   2
HETATM    2  C   UNK N   1      25.417  27.890  -4.399  0.00  0.00    -0.002 C 
HETATM    3  C   UNK N   1      24.897  27.087  -5.571  0.00  0.00     0.005 C 
ENDBRANCH   1   2
BRANCH   1   4
HETATM    4  C   UNK N   1      26.360  25.635  -4.122  0.00  0.00     0.164 C 
BRANCH   4   5
HETATM    5  O   UNK N   1      26.372  24.640  -3.148  0.00  0.00    -0.401 OA
HETATM    6  H   UNK N   1      25.585  24.092  -3.006  0.00  0.00     0.209 HD
ENDBRANCH   4   5
ENDBRANCH   1   4
TORSDOF 3
ENDMDL
MODEL 8
REMARK VINA RESULT:      -2.6     19.538     19.849
REMARK  3 active torsions:
REMARK  status: ('A' for Active; 'I' for Inactive)
REMARK    1  A    between atoms: C_2  and  C_3 
REMARK    2  A    between atoms: C_3  and  C_4 
REMARK    3  A    between atoms: C_4  and  O_5 
ROOT
HETATM    1  C   UNK N   1      30.939  21.204  -3.415  0.00  0.00     0.026 C 
ENDROOT
BRANCH   1   2
HETATM    2  C   UNK N   1      29.938  22.313  -3.172  0.00  0.00    -0.002 C 
HETATM    3  C   UNK N   1      30.659  23.636  -3.039  0.00  0.00     0.005 C 
ENDBRANCH   1   2
BRANCH   1   4
HETATM    4  C   UNK N   1      32.324  21.721  -3.088  0.00  0.00     0.164 C 
BRANCH   4   5
HETATM    5  O   UNK N   1      32.823  21.055  -1.973  0.00  0.00    -0.401 OA
HETATM    6  H   UNK N   1      32.545  21.324  -1.083  0.00  0.00     0.209 HD
ENDBRANCH   4   5
ENDBRANCH   1   4
TORSDOF 3
ENDMDL
MODEL 9
REMARK VINA RESULT:      -2.6     19.591     20.100
REMARK  3 active torsions:
REMARK  status: ('A' for Active; 'I' for Inactive)
REMARK    1  A    between atoms: C_2  and  C_3 
REMARK    2  A    between atoms: C_3  and  C_4 
REMARK    3  A    between atoms: C_4  and  O_5 
ROOT
HETATM    1  C   UNK N   1      32.030  22.253  -3.437  0.00  0.00     0.026 C 
ENDROOT
BRANCH   1   2
HETATM    2  C   UNK N   1      32.841  21.214  -2.692  0.00  0.00    -0.002 C 
HETATM    3  C   UNK N   1      34.014  20.775  -3.539  0.00  0.00     0.005 C 
ENDBRANCH   1   2
BRANCH   1   4
HETATM    4  C   UNK N   1      30.641  22.305  -2.837  0.00  0.00     0.164 C 
BRANCH   4   5
HETATM    5  O   UNK N   1      30.687  22.945  -1.602  0.00  0.00    -0.401 OA
HETATM    6  H   UNK N   1      30.587  23.909  -1.552  0.00  0.00     0.209 HD
ENDBRANCH   4   5
ENDBRANCH   1   4
TORSDOF 3
ENDMDL
