REMARK  15 active torsions:
REMARK  status: ('A' for Active; 'I' for Inactive)
REMARK    1  A    between atoms: C_4  and  C_2 
REMARK    2  A    between atoms: C_11  and  C_3 
REMARK    3  A    between atoms: P_28  and  C_4 
REMARK    4  A    between atoms: C_10  and  C_6 
REMARK    5  A    between atoms: N_16  and  C_6 
REMARK    6  A    between atoms: C_9  and  C_7 
REMARK    7  A    between atoms: O_27  and  C_7 
REMARK    8  A    between atoms: C_13  and  C_11 
REMARK    9  A    between atoms: O_18  and  C_12 
REMARK   10  A    between atoms: O_20  and  C_13 
REMARK   11  A    between atoms: P_28  and  O_21 
REMARK   12  A    between atoms: P_28  and  O_22 
REMARK   13  A    between atoms: P_29  and  O_24 
REMARK   14  A    between atoms: P_29  and  O_25 
REMARK   15  A    between atoms: P_29  and  O_27 
ROOT
HETATM    1  C   UNK N   1       2.528  -3.109   0.308  0.00  0.00     0.071 C 
HETATM    2  C   UNK N   1       2.697   0.582   0.815  0.00  0.00     0.098 A 
HETATM    3  C   UNK N   1       2.167  -1.664   0.248  0.00  0.00     0.039 A 
HETATM    4  C   UNK N   1       1.537   1.044   0.190  0.00  0.00    -0.008 A 
HETATM    5  C   UNK N   1       0.676   0.121  -0.432  0.00  0.00     0.004 A 
HETATM    6  C   UNK N   1       0.996  -1.247  -0.401  0.00  0.00     0.096 A 
HETATM    7  N   UNK N   1       2.987  -0.747   0.828  0.00  0.00    -0.367 N 
ATOM      8  HN  UNK N   1       3.842  -1.064   1.285  1.00  0.00     0.165 HD
ENDROOT
BRANCH   5   9
HETATM    9  C   UNK N   1      -0.544   0.615  -1.156  0.00  0.00     0.162 C 
BRANCH   9  10
HETATM   10  N   UNK N   1      -1.761  -0.043  -0.736  0.00  0.00    -0.380 N 
HETATM   11  C   UNK N   1      -2.768   0.579  -0.208  0.00  0.00     0.102 C 
ATOM     12  HN  UNK N   1      -1.832  -1.052  -0.864  1.00  0.00     0.160 HD
BRANCH  11  13
HETATM   13  C   UNK N   1      -2.661   2.038   0.132  0.00  0.00     0.033 C 
HETATM   14  C   UNK N   1      -3.717   2.850   0.285  0.00  0.00    -0.013 C 
BRANCH  14  15
HETATM   15  C   UNK N   1      -3.518   4.285   0.679  0.00  0.00     0.152 C 
BRANCH  15  16
HETATM   16  P   UNK N   1      -4.701   5.428  -0.206  0.00  0.00     0.239 P 
HETATM   17  O   UNK N   1      -3.612   6.344   0.413  0.00  0.00    -0.653 OA
BRANCH  16  18
HETATM   18  O   UNK N   1      -5.699   6.736   0.347  0.00  0.00    -0.329 OA
HETATM   19  H   UNK N   1      -5.345   7.584   0.656  0.00  0.00     0.220 HD
ENDBRANCH  16  18
BRANCH  16  20
HETATM   20  O   UNK N   1      -5.502   4.780   1.195  0.00  0.00    -0.329 OA
HETATM   21  H   UNK N   1      -6.038   4.987   1.976  0.00  0.00     0.220 HD
ENDBRANCH  16  20
ENDBRANCH  15  16
ENDBRANCH  14  15
ENDBRANCH  11  13
BRANCH  11  22
HETATM   22  C   UNK N   1      -4.002  -0.219   0.059  0.00  0.00     0.193 C 
HETATM   23  O   UNK N   1      -4.059  -1.382  -0.301  0.00  0.00    -0.645 OA
BRANCH  22  24
HETATM   24  O   UNK N   1      -5.046   0.304   0.733  0.00  0.00    -0.772 OA
HETATM   25  H   UNK N   1      -5.093   1.114   1.201  0.00  0.00     0.167 HD
ENDBRANCH  22  24
ENDBRANCH  11  22
ENDBRANCH   9  10
ENDBRANCH   5   9
BRANCH   4  26
HETATM   26  C   UNK N   1       1.197   2.503   0.225  0.00  0.00     0.221 C 
BRANCH  26  27
HETATM   27  O   UNK N   1       2.107   3.288  -0.495  0.00  0.00    -0.292 OA
BRANCH  27  28
HETATM   28  P   UNK N   1       1.952   4.876   0.211  0.00  0.00     0.391 P 
HETATM   29  O   UNK N   1       0.962   5.005  -0.980  0.00  0.00    -0.632 OA
BRANCH  28  30
HETATM   30  O   UNK N   1       2.497   6.323  -0.576  0.00  0.00    -0.307 OA
HETATM   31  H   UNK N   1       3.350   6.464  -1.016  0.00  0.00     0.222 HD
ENDBRANCH  28  30
BRANCH  28  32
HETATM   32  O   UNK N   1       3.549   4.675  -0.440  0.00  0.00    -0.307 OA
HETATM   33  H   UNK N   1       3.898   3.847  -0.804  0.00  0.00     0.222 HD
ENDBRANCH  28  32
ENDBRANCH  27  28
ENDBRANCH  26  27
ENDBRANCH   4  26
BRANCH   6  34
HETATM   34  O   UNK N   1       0.186  -2.152  -0.984  0.00  0.00    -0.358 OA
HETATM   35  H   UNK N   1      -0.641  -1.979  -1.389  0.00  0.00     0.217 HD
ENDBRANCH   6  34
TORSDOF 15
