REMARK  25 active torsions:
REMARK  status: ('A' for Active; 'I' for Inactive)
REMARK    1  A    between atoms: C_9  and  C_3 
REMARK    2  A    between atoms: O_46  and  C_3 
REMARK    3  A    between atoms: C_10  and  C_4 
REMARK    4  A    between atoms: O_47  and  C_4 
REMARK    5  A    between atoms: C_17  and  C_7 
REMARK    6  A    between atoms: C_8  and  O_33 
REMARK    7  A    between atoms: C_12  and  O_34 
REMARK    8  A    between atoms: C_13  and  O_35 
REMARK    9  A    between atoms: C_14  and  O_36 
REMARK   10  A    between atoms: C_15  and  O_50 
REMARK   11  A    between atoms: N_22  and  C_16 
REMARK   12  A    between atoms: N_23  and  C_17 
REMARK   13  A    between atoms: O_37  and  C_17 
REMARK   14  A    between atoms: C_19  and  O_38 
REMARK   15  A    between atoms: C_20  and  N_31 
REMARK   16  A    between atoms: C_21  and  N_32 
REMARK   17  A    between atoms: P_52  and  O_39 
REMARK   18  A    between atoms: P_52  and  O_40 
REMARK   19  A    between atoms: P_53  and  O_42 
REMARK   20  A    between atoms: P_54  and  O_44 
REMARK   21  A    between atoms: P_53  and  O_46 
REMARK   22  A    between atoms: P_54  and  O_47 
REMARK   23  A    between atoms: P_52  and  O_50 
REMARK   24  A    between atoms: P_53  and  O_51 
REMARK   25  A    between atoms: P_54  and  O_51 
ROOT
HETATM    1  O   UNK N   1      -0.018  -5.734   0.227  0.00  0.00    -0.631 OA
HETATM    2  P   UNK N   1      -0.940  -4.506   0.017  0.00  0.00     0.401 P 
ENDROOT
BRANCH   2   3
HETATM    3  O   UNK N   1      -0.453  -3.876  -1.528  0.00  0.00    -0.307 OA
HETATM    4  H   UNK N   1      -0.012  -3.936  -2.390  0.00  0.00     0.222 HD
ENDBRANCH   2   3
BRANCH   2   5
HETATM    5  O   UNK N   1      -0.600  -3.465   1.386  0.00  0.00    -0.294 OA
BRANCH   5   6
HETATM    6  C   UNK N   1      -0.980  -2.143   1.088  0.00  0.00     0.215 C 
BRANCH   6   7
HETATM    7  C   UNK N   1       0.059  -1.377   0.259  0.00  0.00     0.180 C 
HETATM    8  C   UNK N   1       1.480  -1.880   0.472  0.00  0.00     0.183 C 
HETATM    9  C   UNK N   1       2.234  -0.709  -0.107  0.00  0.00     0.214 C 
HETATM   10  C   UNK N   1       1.445   0.375   0.641  0.00  0.00     0.263 C 
HETATM   11  O   UNK N   1       0.071   0.006   0.578  0.00  0.00    -0.353 OA
BRANCH   8  12
HETATM   12  O   UNK N   1       1.718  -3.074  -0.203  0.00  0.00    -0.390 OA
HETATM   13  H   UNK N   1       1.081  -3.634  -0.673  0.00  0.00     0.210 HD
ENDBRANCH   8  12
BRANCH   9  14
HETATM   14  O   UNK N   1       3.631  -0.578   0.121  0.00  0.00    -0.284 OA
BRANCH  14  15
HETATM   15  P   UNK N   1       4.491  -2.028   0.617  0.00  0.00     0.391 P 
HETATM   16  O   UNK N   1       4.265  -3.167  -0.413  0.00  0.00    -0.632 OA
BRANCH  15  17
HETATM   17  O   UNK N   1       4.020  -2.583   2.193  0.00  0.00    -0.307 OA
HETATM   18  H   UNK N   1       3.620  -2.511   3.074  0.00  0.00     0.222 HD
ENDBRANCH  15  17
BRANCH  15  19
HETATM   19  O   UNK N   1       6.197  -1.718   0.597  0.00  0.00    -0.307 OA
HETATM   20  H   UNK N   1       6.824  -2.458   0.587  0.00  0.00     0.222 HD
ENDBRANCH  15  19
ENDBRANCH  14  15
ENDBRANCH   9  14
BRANCH  10  21
HETATM   21  N   UNK N   1       1.676   1.733   0.133  0.00  0.00    -0.297 N 
HETATM   22  C   UNK N   1       0.750   2.604  -0.348  0.00  0.00     0.188 A 
HETATM   23  N   UNK N   1       1.312   3.810  -0.653  0.00  0.00    -0.346 N 
HETATM   24  C   UNK N   1       2.613   3.660  -0.344  0.00  0.00     0.122 A 
ATOM     25  HN  UNK N   1       0.850   4.637  -1.031  1.00  0.00     0.167 HD
HETATM   26  C   UNK N   1       3.661   4.567  -0.420  0.00  0.00     0.131 A 
HETATM   27  C   UNK N   1       2.832   2.416   0.122  0.00  0.00     0.142 A 
HETATM   28  N   UNK N   1       4.901   4.149  -0.026  0.00  0.00    -0.337 N 
HETATM   29  C   UNK N   1       5.101   2.873   0.442  0.00  0.00     0.183 A 
ATOM     30  HN  UNK N   1       5.689   4.794  -0.079  1.00  0.00     0.168 HD
HETATM   31  N   UNK N   1       4.053   1.998   0.529  0.00  0.00    -0.336 N 
ATOM     32  HN  UNK N   1       4.189   1.054   0.891  1.00  0.00     0.168 HD
BRANCH  26  33
HETATM   33  N   UNK N   1       3.460   5.885  -0.874  0.00  0.00    -0.383 N 
HETATM   34  H   UNK N   1       4.187   6.468  -1.191  0.00  0.00     0.157 HD
HETATM   35  H   UNK N   1       2.543   6.243  -0.874  0.00  0.00     0.157 HD
ENDBRANCH  26  33
ENDBRANCH  10  21
ENDBRANCH   6   7
ENDBRANCH   5   6
ENDBRANCH   2   5
BRANCH   2  36
HETATM   36  O   UNK N   1      -2.540  -5.168  -0.011  0.00  0.00    -0.195 OA
BRANCH  36  37
HETATM   37  P   UNK N   1      -3.549  -3.886  -0.592  0.00  0.00     0.401 P 
HETATM   38  O   UNK N   1      -4.944  -4.524  -0.856  0.00  0.00    -0.631 OA
BRANCH  37  39
HETATM   39  O   UNK N   1      -3.017  -3.242  -2.114  0.00  0.00    -0.307 OA
HETATM   40  H   UNK N   1      -2.556  -3.319  -2.964  0.00  0.00     0.222 HD
ENDBRANCH  37  39
BRANCH  37  41
HETATM   41  O   UNK N   1      -3.687  -2.603   0.588  0.00  0.00    -0.294 OA
BRANCH  41  42
HETATM   42  C   UNK N   1      -5.041  -2.379   0.769  0.00  0.00     0.215 C 
BRANCH  42  43
HETATM   43  C   UNK N   1      -5.631  -1.504  -0.335  0.00  0.00     0.180 C 
HETATM   44  C   UNK N   1      -5.661  -0.011   0.034  0.00  0.00     0.182 C 
HETATM   45  C   UNK N   1      -7.107   0.353  -0.252  0.00  0.00     0.198 C 
HETATM   46  C   UNK N   1      -7.728  -0.962   0.196  0.00  0.00     0.257 C 
HETATM   47  O   UNK N   1      -6.956  -1.937  -0.449  0.00  0.00    -0.354 OA
BRANCH  44  48
HETATM   48  O   UNK N   1      -4.745   0.752  -0.697  0.00  0.00    -0.390 OA
HETATM   49  H   UNK N   1      -3.969   0.467  -1.204  0.00  0.00     0.210 HD
ENDBRANCH  44  48
BRANCH  45  50
HETATM   50  O   UNK N   1      -7.309   0.528  -1.626  0.00  0.00    -0.388 OA
HETATM   51  H   UNK N   1      -7.273   0.710  -2.578  0.00  0.00     0.210 HD
ENDBRANCH  45  50
BRANCH  46  52
HETATM   52  N   UNK N   1      -9.123  -1.194  -0.118  0.00  0.00    -0.332 N 
HETATM   53  C   UNK N   1      -9.518  -2.571  -0.145  0.00  0.00     0.102 C 
HETATM   54  C   UNK N   1     -10.766  -2.976   0.098  0.00  0.00     0.010 C 
HETATM   55  C   UNK N   1     -11.817  -1.961   0.460  0.00  0.00     0.080 C 
HETATM   56  C   UNK N   1     -11.533  -0.661  -0.285  0.00  0.00     0.171 C 
HETATM   57  C   UNK N   1     -10.123  -0.145   0.070  0.00  0.00     0.251 C 
BRANCH  54  58
HETATM   58  C   UNK N   1     -11.071  -4.423   0.048  0.00  0.00     0.141 C 
BRANCH  58  59
HETATM   59  N   UNK N   1     -12.254  -4.846   0.298  0.00  0.00    -0.380 N 
HETATM   60  H   UNK N   1     -12.990  -4.221   0.491  0.00  0.00     0.158 HD
ATOM     61  HN  UNK N   1     -12.437  -5.850   0.298  1.00  0.00     0.158 HD
ENDBRANCH  58  59
BRANCH  58  62
HETATM   62  O   UNK N   1     -10.100  -5.309  -0.258  0.00  0.00    -0.346 OA
HETATM   63  H   UNK N   1     -10.296  -6.201  -0.470  0.00  0.00     0.219 HD
ENDBRANCH  58  62
ENDBRANCH  54  58
BRANCH  56  64
HETATM   64  O   UNK N   1     -12.500   0.294   0.032  0.00  0.00    -0.391 OA
HETATM   65  H   UNK N   1     -12.262   1.208   0.252  0.00  0.00     0.210 HD
ENDBRANCH  56  64
BRANCH  57  66
HETATM   66  O   UNK N   1     -10.089   0.298   1.396  0.00  0.00    -0.374 OA
HETATM   67  H   UNK N   1      -9.811   0.431   2.315  0.00  0.00     0.212 HD
ENDBRANCH  57  66
ENDBRANCH  46  52
ENDBRANCH  42  43
ENDBRANCH  41  42
ENDBRANCH  37  41
ENDBRANCH  36  37
ENDBRANCH   2  36
TORSDOF 25
