MODEL 1
REMARK VINA RESULT:      -6.5      0.000      0.000
REMARK  5 active torsions:
REMARK  status: ('A' for Active; 'I' for Inactive)
REMARK    1  A    between atoms: C_15  and  C_11 
REMARK    2  A    between atoms: C_14  and  O_20 
REMARK    3  A    between atoms: C_16  and  C_15 
REMARK    4  A    between atoms: C_15  and  O_18 
REMARK    5  A    between atoms: O_20  and  C_16 
ROOT
HETATM    1  C   UNK N   1      29.553  18.538   9.103  0.00  0.00     0.292 C 
HETATM    2  O   UNK N   1      29.708  18.854  10.274  0.00  0.00    -0.262 OA
ENDROOT
BRANCH   1   3
HETATM    3  C   UNK N   1      28.142  18.523   8.536  0.00  0.00     0.250 C 
BRANCH   3   4
HETATM    4  C   UNK N   1      28.088  18.984   7.098  0.00  0.00    -0.020 A 
HETATM    5  C   UNK N   1      28.418  18.112   6.047  0.00  0.00     0.010 A 
HETATM    6  C   UNK N   1      28.309  18.532   4.719  0.00  0.00     0.001 A 
HETATM    7  C   UNK N   1      27.866  19.825   4.429  0.00  0.00     0.000 A 
HETATM    8  C   UNK N   1      27.537  20.699   5.467  0.00  0.00     0.001 A 
HETATM    9  C   UNK N   1      27.643  20.281   6.796  0.00  0.00     0.010 A 
ENDBRANCH   3   4
BRANCH   3  10
HETATM   10  O   UNK N   1      27.633  17.226   8.657  0.00  0.00    -0.381 OA
HETATM   11  H   UNK N   1      27.914  16.499   8.081  0.00  0.00     0.211 HD
ENDBRANCH   3  10
ENDBRANCH   1   3
BRANCH   1  12
HETATM   12  O   UNK N   1      30.660  18.270   8.347  0.00  0.00    -0.314 OA
BRANCH  12  13
HETATM   13  C   UNK N   1      31.580  17.260   8.591  0.00  0.00     0.136 C 
HETATM   14  C   UNK N   1      31.205  16.013   7.765  0.00  0.00     0.068 C 
HETATM   15  C   UNK N   1      31.786  16.028   6.340  0.00  0.00     0.225 C 
HETATM   16  C   UNK N   1      33.156  15.346   6.364  0.00  0.00     0.038 C 
HETATM   17  N   UNK N   1      32.026  17.422   5.952  0.00  0.00     0.093 N 
HETATM   18  C   UNK N   1      34.151  16.489   6.493  0.00  0.00     0.038 C 
HETATM   19  C   UNK N   1      33.264  17.707   6.696  0.00  0.00     0.225 C 
HETATM   20  C   UNK N   1      32.982  17.780   8.216  0.00  0.00     0.068 C 
HETATM   21  C   UNK N   1      32.260  17.510   4.509  0.00  0.00     0.310 C 
ENDBRANCH  12  13
ENDBRANCH   1  12
TORSDOF 5
ENDMDL
MODEL 2
REMARK VINA RESULT:      -6.5     11.109     14.136
REMARK  5 active torsions:
REMARK  status: ('A' for Active; 'I' for Inactive)
REMARK    1  A    between atoms: C_15  and  C_11 
REMARK    2  A    between atoms: C_14  and  O_20 
REMARK    3  A    between atoms: C_16  and  C_15 
REMARK    4  A    between atoms: C_15  and  O_18 
REMARK    5  A    between atoms: O_20  and  C_16 
ROOT
HETATM    1  C   UNK N   1      29.724  24.224  -3.121  0.00  0.00     0.292 C 
HETATM    2  O   UNK N   1      30.670  24.999  -3.107  0.00  0.00    -0.262 OA
ENDROOT
BRANCH   1   3
HETATM    3  C   UNK N   1      29.916  22.834  -2.534  0.00  0.00     0.250 C 
BRANCH   3   4
HETATM    4  C   UNK N   1      30.794  21.956  -3.394  0.00  0.00    -0.020 A 
HETATM    5  C   UNK N   1      32.104  21.635  -2.997  0.00  0.00     0.010 A 
HETATM    6  C   UNK N   1      32.887  20.775  -3.771  0.00  0.00     0.001 A 
HETATM    7  C   UNK N   1      32.369  20.226  -4.947  0.00  0.00     0.000 A 
HETATM    8  C   UNK N   1      31.069  20.539  -5.350  0.00  0.00     0.001 A 
HETATM    9  C   UNK N   1      30.283  21.397  -4.576  0.00  0.00     0.010 A 
ENDBRANCH   3   4
BRANCH   3  10
HETATM   10  O   UNK N   1      30.456  22.968  -1.251  0.00  0.00    -0.381 OA
HETATM   11  H   UNK N   1      30.162  23.653  -0.631  0.00  0.00     0.211 HD
ENDBRANCH   3  10
ENDBRANCH   1   3
BRANCH   1  12
HETATM   12  O   UNK N   1      28.526  24.665  -3.610  0.00  0.00    -0.314 OA
BRANCH  12  13
HETATM   13  C   UNK N   1      28.119  24.596  -4.934  0.00  0.00     0.136 C 
HETATM   14  C   UNK N   1      26.601  24.328  -4.993  0.00  0.00     0.068 C 
HETATM   15  C   UNK N   1      25.753  25.610  -4.928  0.00  0.00     0.225 C 
HETATM   16  C   UNK N   1      25.511  26.108  -6.356  0.00  0.00     0.038 C 
HETATM   17  N   UNK N   1      26.537  26.651  -4.256  0.00  0.00     0.093 N 
HETATM   18  C   UNK N   1      26.591  27.155  -6.584  0.00  0.00     0.038 C 
HETATM   19  C   UNK N   1      27.453  27.050  -5.337  0.00  0.00     0.225 C 
HETATM   20  C   UNK N   1      28.480  25.928  -5.622  0.00  0.00     0.068 C 
HETATM   21  C   UNK N   1      25.669  27.769  -3.877  0.00  0.00     0.310 C 
ENDBRANCH  12  13
ENDBRANCH   1  12
TORSDOF 5
ENDMDL
MODEL 3
REMARK VINA RESULT:      -6.4     11.138     14.184
REMARK  5 active torsions:
REMARK  status: ('A' for Active; 'I' for Inactive)
REMARK    1  A    between atoms: C_15  and  C_11 
REMARK    2  A    between atoms: C_14  and  O_20 
REMARK    3  A    between atoms: C_16  and  C_15 
REMARK    4  A    between atoms: C_15  and  O_18 
REMARK    5  A    between atoms: O_20  and  C_16 
ROOT
HETATM    1  C   UNK N   1      29.677  24.170  -3.305  0.00  0.00     0.292 C 
HETATM    2  O   UNK N   1      30.529  25.024  -3.111  0.00  0.00    -0.262 OA
ENDROOT
BRANCH   1   3
HETATM    3  C   UNK N   1      29.821  22.827  -2.605  0.00  0.00     0.250 C 
BRANCH   3   4
HETATM    4  C   UNK N   1      30.744  21.884  -3.339  0.00  0.00    -0.020 A 
HETATM    5  C   UNK N   1      30.328  21.237  -4.515  0.00  0.00     0.010 A 
HETATM    6  C   UNK N   1      31.211  20.411  -5.218  0.00  0.00     0.001 A 
HETATM    7  C   UNK N   1      32.516  20.228  -4.754  0.00  0.00     0.000 A 
HETATM    8  C   UNK N   1      32.938  20.867  -3.586  0.00  0.00     0.001 A 
HETATM    9  C   UNK N   1      32.058  21.694  -2.883  0.00  0.00     0.010 A 
ENDBRANCH   3   4
BRANCH   3  10
HETATM   10  O   UNK N   1      30.281  23.056  -1.304  0.00  0.00    -0.381 OA
HETATM   11  H   UNK N   1      29.819  23.640  -0.683  0.00  0.00     0.211 HD
ENDBRANCH   3  10
ENDBRANCH   1   3
BRANCH   1  12
HETATM   12  O   UNK N   1      28.607  24.484  -4.096  0.00  0.00    -0.314 OA
BRANCH  12  13
HETATM   13  C   UNK N   1      27.427  25.069  -3.664  0.00  0.00     0.136 C 
HETATM   14  C   UNK N   1      27.553  26.605  -3.748  0.00  0.00     0.068 C 
HETATM   15  C   UNK N   1      27.183  27.172  -5.130  0.00  0.00     0.225 C 
HETATM   16  C   UNK N   1      25.688  27.501  -5.138  0.00  0.00     0.038 C 
HETATM   17  N   UNK N   1      27.378  26.118  -6.131  0.00  0.00     0.093 N 
HETATM   18  C   UNK N   1      25.030  26.280  -5.761  0.00  0.00     0.038 C 
HETATM   19  C   UNK N   1      26.179  25.295  -5.905  0.00  0.00     0.225 C 
HETATM   20  C   UNK N   1      26.275  24.553  -4.550  0.00  0.00     0.068 C 
HETATM   21  C   UNK N   1      27.362  26.694  -7.478  0.00  0.00     0.310 C 
ENDBRANCH  12  13
ENDBRANCH   1  12
TORSDOF 5
ENDMDL
MODEL 4
REMARK VINA RESULT:      -6.3      8.731     11.094
REMARK  5 active torsions:
REMARK  status: ('A' for Active; 'I' for Inactive)
REMARK    1  A    between atoms: C_15  and  C_11 
REMARK    2  A    between atoms: C_14  and  O_20 
REMARK    3  A    between atoms: C_16  and  C_15 
REMARK    4  A    between atoms: C_15  and  O_18 
REMARK    5  A    between atoms: O_20  and  C_16 
ROOT
HETATM    1  C   UNK N   1      34.403  11.605  14.331  0.00  0.00     0.292 C 
HETATM    2  O   UNK N   1      33.313  11.053  14.349  0.00  0.00    -0.262 OA
ENDROOT
BRANCH   1   3
HETATM    3  C   UNK N   1      35.475  11.126  15.298  0.00  0.00     0.250 C 
BRANCH   3   4
HETATM    4  C   UNK N   1      35.345  11.751  16.667  0.00  0.00    -0.020 A 
HETATM    5  C   UNK N   1      35.408  10.964  17.829  0.00  0.00     0.010 A 
HETATM    6  C   UNK N   1      35.345  11.560  19.092  0.00  0.00     0.001 A 
HETATM    7  C   UNK N   1      35.222  12.948  19.204  0.00  0.00     0.000 A 
HETATM    8  C   UNK N   1      35.158  13.738  18.055  0.00  0.00     0.001 A 
HETATM    9  C   UNK N   1      35.223  13.144  16.791  0.00  0.00     0.010 A 
ENDBRANCH   3   4
BRANCH   3  10
HETATM   10  O   UNK N   1      35.400   9.732  15.383  0.00  0.00    -0.381 OA
HETATM   11  H   UNK N   1      35.054   9.184  14.662  0.00  0.00     0.211 HD
ENDBRANCH   3  10
ENDBRANCH   1   3
BRANCH   1  12
HETATM   12  O   UNK N   1      34.623  12.586  13.405  0.00  0.00    -0.314 OA
BRANCH  12  13
HETATM   13  C   UNK N   1      35.859  12.948  12.890  0.00  0.00     0.136 C 
HETATM   14  C   UNK N   1      35.981  12.441  11.438  0.00  0.00     0.068 C 
HETATM   15  C   UNK N   1      35.401  13.418  10.400  0.00  0.00     0.225 C 
HETATM   16  C   UNK N   1      36.515  14.364   9.944  0.00  0.00     0.038 C 
HETATM   17  N   UNK N   1      34.395  14.254  11.063  0.00  0.00     0.093 N 
HETATM   18  C   UNK N   1      36.343  15.602  10.810  0.00  0.00     0.038 C 
HETATM   19  C   UNK N   1      35.257  15.198  11.793  0.00  0.00     0.225 C 
HETATM   20  C   UNK N   1      35.983  14.483  12.959  0.00  0.00     0.068 C 
HETATM   21  C   UNK N   1      33.589  14.960  10.063  0.00  0.00     0.310 C 
ENDBRANCH  12  13
ENDBRANCH   1  12
TORSDOF 5
ENDMDL
MODEL 5
REMARK VINA RESULT:      -6.2      1.353      2.162
REMARK  5 active torsions:
REMARK  status: ('A' for Active; 'I' for Inactive)
REMARK    1  A    between atoms: C_15  and  C_11 
REMARK    2  A    between atoms: C_14  and  O_20 
REMARK    3  A    between atoms: C_16  and  C_15 
REMARK    4  A    between atoms: C_15  and  O_18 
REMARK    5  A    between atoms: O_20  and  C_16 
ROOT
HETATM    1  C   UNK N   1      29.430  18.164   9.408  0.00  0.00     0.292 C 
HETATM    2  O   UNK N   1      29.777  18.990  10.240  0.00  0.00    -0.262 OA
ENDROOT
BRANCH   1   3
HETATM    3  C   UNK N   1      28.004  18.218   8.882  0.00  0.00     0.250 C 
BRANCH   3   4
HETATM    4  C   UNK N   1      27.938  18.583   7.417  0.00  0.00    -0.020 A 
HETATM    5  C   UNK N   1      27.930  17.588   6.425  0.00  0.00     0.010 A 
HETATM    6  C   UNK N   1      27.810  17.934   5.076  0.00  0.00     0.001 A 
HETATM    7  C   UNK N   1      27.695  19.277   4.707  0.00  0.00     0.000 A 
HETATM    8  C   UNK N   1      27.703  20.273   5.686  0.00  0.00     0.001 A 
HETATM    9  C   UNK N   1      27.820  19.929   7.036  0.00  0.00     0.010 A 
ENDBRANCH   3   4
BRANCH   3  10
HETATM   10  O   UNK N   1      27.403  16.976   9.109  0.00  0.00    -0.381 OA
HETATM   11  H   UNK N   1      27.611  16.191   8.577  0.00  0.00     0.211 HD
ENDBRANCH   3  10
ENDBRANCH   1   3
BRANCH   1  12
HETATM   12  O   UNK N   1      30.357  17.269   8.951  0.00  0.00    -0.314 OA
BRANCH  12  13
HETATM   13  C   UNK N   1      31.189  17.456   7.857  0.00  0.00     0.136 C 
HETATM   14  C   UNK N   1      32.554  17.992   8.334  0.00  0.00     0.068 C 
HETATM   15  C   UNK N   1      33.539  16.880   8.736  0.00  0.00     0.225 C 
HETATM   16  C   UNK N   1      34.358  16.484   7.504  0.00  0.00     0.038 C 
HETATM   17  N   UNK N   1      32.767  15.693   9.117  0.00  0.00     0.093 N 
HETATM   18  C   UNK N   1      33.636  15.271   6.939  0.00  0.00     0.038 C 
HETATM   19  C   UNK N   1      32.383  15.176   7.793  0.00  0.00     0.225 C 
HETATM   20  C   UNK N   1      31.341  16.107   7.126  0.00  0.00     0.068 C 
HETATM   21  C   UNK N   1      33.628  14.735   9.814  0.00  0.00     0.310 C 
ENDBRANCH  12  13
ENDBRANCH   1  12
TORSDOF 5
ENDMDL
MODEL 6
REMARK VINA RESULT:      -6.1     11.580     13.673
REMARK  5 active torsions:
REMARK  status: ('A' for Active; 'I' for Inactive)
REMARK    1  A    between atoms: C_15  and  C_11 
REMARK    2  A    between atoms: C_14  and  O_20 
REMARK    3  A    between atoms: C_16  and  C_15 
REMARK    4  A    between atoms: C_15  and  O_18 
REMARK    5  A    between atoms: O_20  and  C_16 
ROOT
HETATM    1  C   UNK N   1      26.769  24.358  -4.029  0.00  0.00     0.292 C 
HETATM    2  O   UNK N   1      26.363  23.987  -2.938  0.00  0.00    -0.262 OA
ENDROOT
BRANCH   1   3
HETATM    3  C   UNK N   1      25.835  25.168  -4.915  0.00  0.00     0.250 C 
BRANCH   3   4
HETATM    4  C   UNK N   1      26.178  26.638  -4.933  0.00  0.00    -0.020 A 
HETATM    5  C   UNK N   1      25.734  27.496  -3.911  0.00  0.00     0.010 A 
HETATM    6  C   UNK N   1      26.107  28.843  -3.907  0.00  0.00     0.001 A 
HETATM    7  C   UNK N   1      26.927  29.344  -4.920  0.00  0.00     0.000 A 
HETATM    8  C   UNK N   1      27.373  28.501  -5.940  0.00  0.00     0.001 A 
HETATM    9  C   UNK N   1      27.003  27.153  -5.945  0.00  0.00     0.010 A 
ENDBRANCH   3   4
BRANCH   3  10
HETATM   10  O   UNK N   1      25.881  24.634  -6.207  0.00  0.00    -0.381 OA
HETATM   11  H   UNK N   1      25.992  25.187  -6.996  0.00  0.00     0.211 HD
ENDBRANCH   3  10
ENDBRANCH   1   3
BRANCH   1  12
HETATM   12  O   UNK N   1      28.062  24.077  -4.375  0.00  0.00    -0.314 OA
BRANCH  12  13
HETATM   13  C   UNK N   1      29.175  24.278  -3.572  0.00  0.00     0.136 C 
HETATM   14  C   UNK N   1      29.391  23.042  -2.674  0.00  0.00     0.068 C 
HETATM   15  C   UNK N   1      30.229  21.940  -3.345  0.00  0.00     0.225 C 
HETATM   16  C   UNK N   1      31.705  22.180  -3.017  0.00  0.00     0.038 C 
HETATM   17  N   UNK N   1      30.102  22.082  -4.799  0.00  0.00     0.093 N 
HETATM   18  C   UNK N   1      32.244  22.946  -4.215  0.00  0.00     0.038 C 
HETATM   19  C   UNK N   1      31.001  23.221  -5.046  0.00  0.00     0.225 C 
HETATM   20  C   UNK N   1      30.393  24.528  -4.483  0.00  0.00     0.068 C 
HETATM   21  C   UNK N   1      30.599  20.878  -5.469  0.00  0.00     0.310 C 
ENDBRANCH  12  13
ENDBRANCH   1  12
TORSDOF 5
ENDMDL
MODEL 7
REMARK VINA RESULT:      -5.9      6.416      8.102
REMARK  5 active torsions:
REMARK  status: ('A' for Active; 'I' for Inactive)
REMARK    1  A    between atoms: C_15  and  C_11 
REMARK    2  A    between atoms: C_14  and  O_20 
REMARK    3  A    between atoms: C_16  and  C_15 
REMARK    4  A    between atoms: C_15  and  O_18 
REMARK    5  A    between atoms: O_20  and  C_16 
ROOT
HETATM    1  C   UNK N   1      35.381  14.411  10.204  0.00  0.00     0.292 C 
HETATM    2  O   UNK N   1      35.862  14.325   9.084  0.00  0.00    -0.262 OA
ENDROOT
BRANCH   1   3
HETATM    3  C   UNK N   1      34.379  15.522  10.481  0.00  0.00     0.250 C 
BRANCH   3   4
HETATM    4  C   UNK N   1      33.914  16.213   9.221  0.00  0.00    -0.020 A 
HETATM    5  C   UNK N   1      32.850  15.695   8.464  0.00  0.00     0.010 A 
HETATM    6  C   UNK N   1      32.390  16.374   7.332  0.00  0.00     0.001 A 
HETATM    7  C   UNK N   1      32.988  17.578   6.949  0.00  0.00     0.000 A 
HETATM    8  C   UNK N   1      34.047  18.100   7.694  0.00  0.00     0.001 A 
HETATM    9  C   UNK N   1      34.506  17.423   8.828  0.00  0.00     0.010 A 
ENDBRANCH   3   4
BRANCH   3  10
HETATM   10  O   UNK N   1      33.294  14.973  11.172  0.00  0.00    -0.381 OA
HETATM   11  H   UNK N   1      32.382  15.273  11.035  0.00  0.00     0.211 HD
ENDBRANCH   3  10
ENDBRANCH   1   3
BRANCH   1  12
HETATM   12  O   UNK N   1      35.724  13.472  11.136  0.00  0.00    -0.314 OA
BRANCH  12  13
HETATM   13  C   UNK N   1      36.738  13.597  12.074  0.00  0.00     0.136 C 
HETATM   14  C   UNK N   1      36.203  14.342  13.315  0.00  0.00     0.068 C 
HETATM   15  C   UNK N   1      35.536  13.412  14.343  0.00  0.00     0.225 C 
HETATM   16  C   UNK N   1      36.599  12.943  15.340  0.00  0.00     0.038 C 
HETATM   17  N   UNK N   1      35.066  12.211  13.646  0.00  0.00     0.093 N 
HETATM   18  C   UNK N   1      37.050  11.590  14.810  0.00  0.00     0.038 C 
HETATM   19  C   UNK N   1      36.330  11.476  13.476  0.00  0.00     0.225 C 
HETATM   20  C   UNK N   1      37.238  12.185  12.441  0.00  0.00     0.068 C 
HETATM   21  C   UNK N   1      34.144  11.459  14.501  0.00  0.00     0.310 C 
ENDBRANCH  12  13
ENDBRANCH   1  12
TORSDOF 5
ENDMDL
MODEL 8
REMARK VINA RESULT:      -5.8      2.311      5.977
REMARK  5 active torsions:
REMARK  status: ('A' for Active; 'I' for Inactive)
REMARK    1  A    between atoms: C_15  and  C_11 
REMARK    2  A    between atoms: C_14  and  O_20 
REMARK    3  A    between atoms: C_16  and  C_15 
REMARK    4  A    between atoms: C_15  and  O_18 
REMARK    5  A    between atoms: O_20  and  C_16 
ROOT
HETATM    1  C   UNK N   1      28.505  16.439   6.182  0.00  0.00     0.292 C 
HETATM    2  O   UNK N   1      28.673  15.334   5.687  0.00  0.00    -0.262 OA
ENDROOT
BRANCH   1   3
HETATM    3  C   UNK N   1      29.630  17.043   7.008  0.00  0.00     0.250 C 
BRANCH   3   4
HETATM    4  C   UNK N   1      30.913  17.192   6.224  0.00  0.00    -0.020 A 
HETATM    5  C   UNK N   1      30.890  17.408   4.836  0.00  0.00     0.010 A 
HETATM    6  C   UNK N   1      32.080  17.602   4.130  0.00  0.00     0.001 A 
HETATM    7  C   UNK N   1      33.304  17.584   4.805  0.00  0.00     0.000 A 
HETATM    8  C   UNK N   1      33.337  17.368   6.184  0.00  0.00     0.001 A 
HETATM    9  C   UNK N   1      32.147  17.177   6.892  0.00  0.00     0.010 A 
ENDBRANCH   3   4
BRANCH   3  10
HETATM   10  O   UNK N   1      29.202  18.283   7.494  0.00  0.00    -0.381 OA
HETATM   11  H   UNK N   1      29.317  18.547   8.420  0.00  0.00     0.211 HD
ENDBRANCH   3  10
ENDBRANCH   1   3
BRANCH   1  12
HETATM   12  O   UNK N   1      27.338  17.101   5.920  0.00  0.00    -0.314 OA
BRANCH  12  13
HETATM   13  C   UNK N   1      26.828  17.372   4.659  0.00  0.00     0.136 C 
HETATM   14  C   UNK N   1      25.385  17.900   4.790  0.00  0.00     0.068 C 
HETATM   15  C   UNK N   1      25.309  19.421   5.013  0.00  0.00     0.225 C 
HETATM   16  C   UNK N   1      25.217  20.109   3.648  0.00  0.00     0.038 C 
HETATM   17  N   UNK N   1      26.570  19.864   5.614  0.00  0.00     0.093 N 
HETATM   18  C   UNK N   1      26.650  20.499   3.319  0.00  0.00     0.038 C 
HETATM   19  C   UNK N   1      27.455  19.860   4.437  0.00  0.00     0.225 C 
HETATM   20  C   UNK N   1      27.744  18.409   3.979  0.00  0.00     0.068 C 
HETATM   21  C   UNK N   1      26.426  21.222   6.144  0.00  0.00     0.310 C 
ENDBRANCH  12  13
ENDBRANCH   1  12
TORSDOF 5
ENDMDL
MODEL 9
REMARK VINA RESULT:      -5.8     11.723     13.601
REMARK  5 active torsions:
REMARK  status: ('A' for Active; 'I' for Inactive)
REMARK    1  A    between atoms: C_15  and  C_11 
REMARK    2  A    between atoms: C_14  and  O_20 
REMARK    3  A    between atoms: C_16  and  C_15 
REMARK    4  A    between atoms: C_15  and  O_18 
REMARK    5  A    between atoms: O_20  and  C_16 
ROOT
HETATM    1  C   UNK N   1      27.803  23.740  -5.917  0.00  0.00     0.292 C 
HETATM    2  O   UNK N   1      27.937  23.824  -7.129  0.00  0.00    -0.262 OA
ENDROOT
BRANCH   1   3
HETATM    3  C   UNK N   1      26.402  23.833  -5.333  0.00  0.00     0.250 C 
BRANCH   3   4
HETATM    4  C   UNK N   1      26.038  25.238  -4.914  0.00  0.00    -0.020 A 
HETATM    5  C   UNK N   1      26.528  25.784  -3.715  0.00  0.00     0.010 A 
HETATM    6  C   UNK N   1      26.232  27.104  -3.366  0.00  0.00     0.001 A 
HETATM    7  C   UNK N   1      25.447  27.892  -4.212  0.00  0.00     0.000 A 
HETATM    8  C   UNK N   1      24.955  27.358  -5.405  0.00  0.00     0.001 A 
HETATM    9  C   UNK N   1      25.252  26.038  -5.757  0.00  0.00     0.010 A 
ENDBRANCH   3   4
BRANCH   3  10
HETATM   10  O   UNK N   1      25.496  23.351  -6.283  0.00  0.00    -0.381 OA
HETATM   11  H   UNK N   1      24.696  23.837  -6.534  0.00  0.00     0.211 HD
ENDBRANCH   3  10
ENDBRANCH   1   3
BRANCH   1  12
HETATM   12  O   UNK N   1      28.913  23.510  -5.152  0.00  0.00    -0.314 OA
BRANCH  12  13
HETATM   13  C   UNK N   1      29.212  22.323  -4.501  0.00  0.00     0.136 C 
HETATM   14  C   UNK N   1      30.081  21.437  -5.419  0.00  0.00     0.068 C 
HETATM   15  C   UNK N   1      31.587  21.735  -5.306  0.00  0.00     0.225 C 
HETATM   16  C   UNK N   1      32.182  20.835  -4.220  0.00  0.00     0.038 C 
HETATM   17  N   UNK N   1      31.752  23.113  -4.835  0.00  0.00     0.093 N 
HETATM   18  C   UNK N   1      32.191  21.699  -2.969  0.00  0.00     0.038 C 
HETATM   19  C   UNK N   1      31.453  22.955  -3.402  0.00  0.00     0.225 C 
HETATM   20  C   UNK N   1      29.948  22.661  -3.189  0.00  0.00     0.068 C 
HETATM   21  C   UNK N   1      33.138  23.548  -5.027  0.00  0.00     0.310 C 
ENDBRANCH  12  13
ENDBRANCH   1  12
TORSDOF 5
ENDMDL
