MODEL 1
REMARK VINA RESULT:      -8.8      0.000      0.000
REMARK  8 active torsions:
REMARK  status: ('A' for Active; 'I' for Inactive)
REMARK    1  A    between atoms: C_3  and  C_4 
REMARK    2  A    between atoms: C_4  and  N_5 
REMARK    3  A    between atoms: N_5  and  C_6 
REMARK    4  A    between atoms: C_9  and  C_12 
REMARK    5  A    between atoms: C_12  and  N_13 
REMARK    6  A    between atoms: C_12  and  N_14 
REMARK    7  A    between atoms: C_22  and  C_23 
REMARK    8  A    between atoms: C_23  and  N_24 
ROOT
HETATM    1  C   UNK N   1      36.449  14.826  13.387  0.00  0.00     0.158 C 
HETATM    2  N   UNK N   1      35.534  14.360  12.357  0.00  0.00    -0.338 N 
HETATM    3  C   UNK N   1      35.040  13.112  12.205  0.00  0.00     0.102 A 
HETATM    4  N   UNK N   1      34.239  12.998  11.113  0.00  0.00    -0.343 N 
ATOM      5  HN  UNK N   1      33.735  12.175  10.783  1.00  0.00     0.167 HD
HETATM    6  C   UNK N   1      34.268  14.231  10.569  0.00  0.00     0.061 A 
HETATM    7  C   UNK N   1      35.054  15.051  11.321  0.00  0.00     0.062 A 
HETATM    8  C   UNK N   1      35.310  16.368  10.966  0.00  0.00     0.033 A 
HETATM    9  C   UNK N   1      34.772  16.819   9.750  0.00  0.00     0.011 A 
HETATM   10  C   UNK N   1      33.984  15.965   8.941  0.00  0.00    -0.038 A 
HETATM   11  C   UNK N   1      33.698  14.650   9.375  0.00  0.00     0.040 A 
ENDROOT
BRANCH   3  12
HETATM   12  C   UNK N   1      35.391  11.989  13.102  0.00  0.00     0.196 C 
BRANCH  12  13
HETATM   13  N   UNK N   1      34.419  11.865  14.159  0.00  0.00    -0.383 N 
HETATM   14  H   UNK N   1      33.474  11.686  13.945  0.00  0.00     0.160 HD
BRANCH  13  15
HETATM   15  C   UNK N   1      34.829  12.000  15.503  0.00  0.00     0.028 A 
HETATM   16  C   UNK N   1      35.151  10.859  16.240  0.00  0.00     0.030 A 
HETATM   17  C   UNK N   1      35.363  10.957  17.617  0.00  0.00     0.017 A 
HETATM   18  C   UNK N   1      35.274  12.201  18.263  0.00  0.00     0.007 A 
HETATM   19  C   UNK N   1      35.017  13.351  17.506  0.00  0.00     0.017 A 
HETATM   20  C   UNK N   1      34.781  13.250  16.137  0.00  0.00     0.030 A 
BRANCH  18  21
HETATM   21  C   UNK N   1      35.379  12.296  19.732  0.00  0.00     0.102 C 
BRANCH  21  22
HETATM   22  N   UNK N   1      34.679  13.309  20.429  0.00  0.00    -0.385 N 
HETATM   23  H   UNK N   1      35.161  14.088  20.789  0.00  0.00     0.157 HD
HETATM   24  H   UNK N   1      33.705  13.234  20.553  0.00  0.00     0.157 HD
ENDBRANCH  21  22
BRANCH  21  25
HETATM   25  N   UNK N   1      36.005  11.394  20.394  0.00  0.00    -0.385 N 
HETATM   26  H   UNK N   1      36.702  11.651  21.041  0.00  0.00     0.157 HD
ATOM     27  HN  UNK N   1      35.780  10.409  20.252  1.00  0.00     0.157 HD
ENDBRANCH  21  25
ENDBRANCH  18  21
ENDBRANCH  13  15
ENDBRANCH  12  13
ENDBRANCH   3  12
BRANCH  10  28
HETATM   28  C   UNK N   1      33.625  16.461   7.570  0.00  0.00     0.169 C 
BRANCH  28  29
HETATM   29  N   UNK N   1      32.218  16.341   7.162  0.00  0.00    -0.331 N 
HETATM   30  C   UNK N   1      31.628  15.624   6.157  0.00  0.00     0.080 A 
HETATM   31  C   UNK N   1      32.331  14.726   5.196  0.00  0.00     0.089 C 
HETATM   32  N   UNK N   1      30.297  15.869   6.066  0.00  0.00    -0.344 N 
HETATM   33  C   UNK N   1      30.064  16.783   7.023  0.00  0.00     0.060 A 
ATOM     34  HN  UNK N   1      29.626  15.454   5.419  1.00  0.00     0.167 HD
HETATM   35  C   UNK N   1      31.221  17.073   7.679  0.00  0.00     0.063 A 
HETATM   36  C   UNK N   1      28.865  17.423   7.316  0.00  0.00     0.032 A 
HETATM   37  C   UNK N   1      31.280  18.038   8.684  0.00  0.00     0.032 A 
HETATM   38  C   UNK N   1      30.086  18.711   9.006  0.00  0.00     0.002 A 
HETATM   39  C   UNK N   1      28.883  18.403   8.327  0.00  0.00     0.002 A 
ENDBRANCH  28  29
ENDBRANCH  10  28
TORSDOF 8
ENDMDL
MODEL 2
REMARK VINA RESULT:      -8.8      1.866     10.085
REMARK  8 active torsions:
REMARK  status: ('A' for Active; 'I' for Inactive)
REMARK    1  A    between atoms: C_3  and  C_4 
REMARK    2  A    between atoms: C_4  and  N_5 
REMARK    3  A    between atoms: N_5  and  C_6 
REMARK    4  A    between atoms: C_9  and  C_12 
REMARK    5  A    between atoms: C_12  and  N_13 
REMARK    6  A    between atoms: C_12  and  N_14 
REMARK    7  A    between atoms: C_22  and  C_23 
REMARK    8  A    between atoms: C_23  and  N_24 
ROOT
HETATM    1  C   UNK N   1      33.591  14.166   7.798  0.00  0.00     0.158 C 
HETATM    2  N   UNK N   1      34.027  14.680   9.088  0.00  0.00    -0.338 N 
HETATM    3  C   UNK N   1      34.141  15.974   9.457  0.00  0.00     0.102 A 
HETATM    4  N   UNK N   1      34.614  16.115  10.722  0.00  0.00    -0.343 N 
ATOM      5  HN  UNK N   1      34.780  16.976  11.243  1.00  0.00     0.167 HD
HETATM    6  C   UNK N   1      34.814  14.845  11.130  0.00  0.00     0.061 A 
HETATM    7  C   UNK N   1      34.461  13.980  10.138  0.00  0.00     0.062 A 
HETATM    8  C   UNK N   1      34.613  12.606  10.259  0.00  0.00     0.033 A 
HETATM    9  C   UNK N   1      35.212  12.131  11.437  0.00  0.00     0.011 A 
HETATM   10  C   UNK N   1      35.618  13.022  12.459  0.00  0.00    -0.038 A 
HETATM   11  C   UNK N   1      35.385  14.409  12.317  0.00  0.00     0.040 A 
ENDROOT
BRANCH   3  12
HETATM   12  C   UNK N   1      33.840  17.103   8.549  0.00  0.00     0.196 C 
BRANCH  12  13
HETATM   13  N   UNK N   1      32.770  17.908   9.084  0.00  0.00    -0.383 N 
HETATM   14  H   UNK N   1      32.912  18.444   9.898  0.00  0.00     0.160 HD
BRANCH  13  15
HETATM   15  C   UNK N   1      31.517  17.924   8.434  0.00  0.00     0.028 A 
HETATM   16  C   UNK N   1      30.445  18.596   9.028  0.00  0.00     0.030 A 
HETATM   17  C   UNK N   1      29.159  18.454   8.503  0.00  0.00     0.017 A 
HETATM   18  C   UNK N   1      28.939  17.655   7.369  0.00  0.00     0.007 A 
HETATM   19  C   UNK N   1      30.028  17.040   6.739  0.00  0.00     0.017 A 
HETATM   20  C   UNK N   1      31.307  17.161   7.278  0.00  0.00     0.030 A 
BRANCH  18  21
HETATM   21  C   UNK N   1      27.569  17.406   6.878  0.00  0.00     0.102 C 
BRANCH  21  22
HETATM   22  N   UNK N   1      26.840  16.289   7.350  0.00  0.00    -0.385 N 
HETATM   23  H   UNK N   1      27.031  15.388   7.004  0.00  0.00     0.157 HD
HETATM   24  H   UNK N   1      26.138  16.414   8.030  0.00  0.00     0.157 HD
ENDBRANCH  21  22
BRANCH  21  25
HETATM   25  N   UNK N   1      26.989  18.260   6.118  0.00  0.00    -0.385 N 
HETATM   26  H   UNK N   1      26.274  17.971   5.507  0.00  0.00     0.157 HD
ATOM     27  HN  UNK N   1      27.269  19.241   6.148  1.00  0.00     0.157 HD
ENDBRANCH  21  25
ENDBRANCH  18  21
ENDBRANCH  13  15
ENDBRANCH  12  13
ENDBRANCH   3  12
BRANCH  10  28
HETATM   28  C   UNK N   1      36.431  12.449  13.584  0.00  0.00     0.169 C 
BRANCH  28  29
HETATM   29  N   UNK N   1      35.896  12.604  14.944  0.00  0.00    -0.331 N 
HETATM   30  C   UNK N   1      34.921  11.918  15.613  0.00  0.00     0.080 A 
HETATM   31  C   UNK N   1      34.140  10.765  15.077  0.00  0.00     0.089 C 
HETATM   32  N   UNK N   1      34.667  12.449  16.836  0.00  0.00    -0.344 N 
HETATM   33  C   UNK N   1      35.490  13.508  16.912  0.00  0.00     0.060 A 
ATOM     34  HN  UNK N   1      34.003  12.118  17.537  1.00  0.00     0.167 HD
HETATM   35  C   UNK N   1      36.226  13.607  15.771  0.00  0.00     0.063 A 
HETATM   36  C   UNK N   1      35.585  14.440  17.939  0.00  0.00     0.032 A 
HETATM   37  C   UNK N   1      37.120  14.656  15.556  0.00  0.00     0.032 A 
HETATM   38  C   UNK N   1      37.242  15.621  16.573  0.00  0.00     0.002 A 
HETATM   39  C   UNK N   1      36.480  15.512  17.761  0.00  0.00     0.002 A 
ENDBRANCH  28  29
ENDBRANCH  10  28
TORSDOF 8
ENDMDL
MODEL 3
REMARK VINA RESULT:      -8.4      1.200      1.819
REMARK  8 active torsions:
REMARK  status: ('A' for Active; 'I' for Inactive)
REMARK    1  A    between atoms: C_3  and  C_4 
REMARK    2  A    between atoms: C_4  and  N_5 
REMARK    3  A    between atoms: N_5  and  C_6 
REMARK    4  A    between atoms: C_9  and  C_12 
REMARK    5  A    between atoms: C_12  and  N_13 
REMARK    6  A    between atoms: C_12  and  N_14 
REMARK    7  A    between atoms: C_22  and  C_23 
REMARK    8  A    between atoms: C_23  and  N_24 
ROOT
HETATM    1  C   UNK N   1      34.955  11.998  11.994  0.00  0.00     0.158 C 
HETATM    2  N   UNK N   1      35.299  13.409  11.906  0.00  0.00    -0.338 N 
HETATM    3  C   UNK N   1      35.963  14.148  12.821  0.00  0.00     0.102 A 
HETATM    4  N   UNK N   1      36.087  15.449  12.449  0.00  0.00    -0.343 N 
ATOM      5  HN  UNK N   1      36.551  16.206  12.949  1.00  0.00     0.167 HD
HETATM    6  C   UNK N   1      35.449  15.501  11.263  0.00  0.00     0.061 A 
HETATM    7  C   UNK N   1      34.971  14.268  10.938  0.00  0.00     0.062 A 
HETATM    8  C   UNK N   1      34.222  14.036   9.793  0.00  0.00     0.033 A 
HETATM    9  C   UNK N   1      33.915  15.150   8.994  0.00  0.00     0.011 A 
HETATM   10  C   UNK N   1      34.374  16.443   9.340  0.00  0.00    -0.038 A 
HETATM   11  C   UNK N   1      35.187  16.620  10.484  0.00  0.00     0.040 A 
ENDROOT
BRANCH   3  12
HETATM   12  C   UNK N   1      36.442  13.600  14.109  0.00  0.00     0.196 C 
BRANCH  12  13
HETATM   13  N   UNK N   1      35.409  13.691  15.111  0.00  0.00    -0.383 N 
HETATM   14  H   UNK N   1      34.613  14.251  14.953  0.00  0.00     0.160 HD
BRANCH  13  15
HETATM   15  C   UNK N   1      35.543  12.974  16.319  0.00  0.00     0.028 A 
HETATM   16  C   UNK N   1      35.872  11.617  16.278  0.00  0.00     0.030 A 
HETATM   17  C   UNK N   1      35.812  10.851  17.445  0.00  0.00     0.017 A 
HETATM   18  C   UNK N   1      35.443  11.443  18.664  0.00  0.00     0.007 A 
HETATM   19  C   UNK N   1      35.181  12.817  18.710  0.00  0.00     0.017 A 
HETATM   20  C   UNK N   1      35.216  13.575  17.542  0.00  0.00     0.030 A 
BRANCH  18  21
HETATM   21  C   UNK N   1      35.263  10.619  19.876  0.00  0.00     0.102 C 
BRANCH  21  22
HETATM   22  N   UNK N   1      34.548   9.401  19.805  0.00  0.00    -0.385 N 
HETATM   23  H   UNK N   1      33.621   9.349  20.131  0.00  0.00     0.157 HD
HETATM   24  H   UNK N   1      34.980   8.600  19.427  0.00  0.00     0.157 HD
ENDBRANCH  21  22
BRANCH  21  25
HETATM   25  N   UNK N   1      35.853  10.940  20.968  0.00  0.00    -0.385 N 
HETATM   26  H   UNK N   1      36.815  11.154  20.966  0.00  0.00     0.157 HD
ATOM     27  HN  UNK N   1      35.325  10.975  21.841  1.00  0.00     0.157 HD
ENDBRANCH  21  25
ENDBRANCH  18  21
ENDBRANCH  13  15
ENDBRANCH  12  13
ENDBRANCH   3  12
BRANCH  10  28
HETATM   28  C   UNK N   1      33.830  17.598   8.549  0.00  0.00     0.169 C 
BRANCH  28  29
HETATM   29  N   UNK N   1      32.720  17.315   7.629  0.00  0.00    -0.331 N 
HETATM   30  C   UNK N   1      32.711  16.893   6.328  0.00  0.00     0.080 A 
HETATM   31  C   UNK N   1      33.915  16.588   5.501  0.00  0.00     0.089 C 
HETATM   32  N   UNK N   1      31.457  16.843   5.812  0.00  0.00    -0.344 N 
HETATM   33  C   UNK N   1      30.672  17.272   6.815  0.00  0.00     0.060 A 
ATOM     34  HN  UNK N   1      31.176  16.547   4.878  1.00  0.00     0.167 HD
HETATM   35  C   UNK N   1      31.432  17.563   7.907  0.00  0.00     0.063 A 
HETATM   36  C   UNK N   1      29.297  17.472   6.794  0.00  0.00     0.032 A 
HETATM   37  C   UNK N   1      30.878  18.088   9.075  0.00  0.00     0.032 A 
HETATM   38  C   UNK N   1      29.487  18.308   9.090  0.00  0.00     0.002 A 
HETATM   39  C   UNK N   1      28.700  17.999   7.955  0.00  0.00     0.002 A 
ENDBRANCH  28  29
ENDBRANCH  10  28
TORSDOF 8
ENDMDL
MODEL 4
REMARK VINA RESULT:      -8.0      2.153      9.985
REMARK  8 active torsions:
REMARK  status: ('A' for Active; 'I' for Inactive)
REMARK    1  A    between atoms: C_3  and  C_4 
REMARK    2  A    between atoms: C_4  and  N_5 
REMARK    3  A    between atoms: N_5  and  C_6 
REMARK    4  A    between atoms: C_9  and  C_12 
REMARK    5  A    between atoms: C_12  and  N_13 
REMARK    6  A    between atoms: C_12  and  N_14 
REMARK    7  A    between atoms: C_22  and  C_23 
REMARK    8  A    between atoms: C_23  and  N_24 
ROOT
HETATM    1  C   UNK N   1      33.539  13.440   7.954  0.00  0.00     0.158 C 
HETATM    2  N   UNK N   1      34.196  14.429   8.794  0.00  0.00    -0.338 N 
HETATM    3  C   UNK N   1      34.624  15.657   8.429  0.00  0.00     0.102 A 
HETATM    4  N   UNK N   1      35.235  16.319   9.446  0.00  0.00    -0.343 N 
ATOM      5  HN  UNK N   1      35.633  17.258   9.440  1.00  0.00     0.167 HD
HETATM    6  C   UNK N   1      35.190  15.442  10.468  0.00  0.00     0.061 A 
HETATM    7  C   UNK N   1      34.565  14.298  10.070  0.00  0.00     0.062 A 
HETATM    8  C   UNK N   1      34.425  13.197  10.903  0.00  0.00     0.033 A 
HETATM    9  C   UNK N   1      35.014  13.278  12.174  0.00  0.00     0.011 A 
HETATM   10  C   UNK N   1      35.700  14.446  12.587  0.00  0.00    -0.038 A 
HETATM   11  C   UNK N   1      35.763  15.566  11.726  0.00  0.00     0.040 A 
ENDROOT
BRANCH   3  12
HETATM   12  C   UNK N   1      34.492  16.184   7.053  0.00  0.00     0.196 C 
BRANCH  12  13
HETATM   13  N   UNK N   1      33.781  17.438   7.059  0.00  0.00    -0.383 N 
HETATM   14  H   UNK N   1      34.253  18.277   6.847  0.00  0.00     0.160 HD
BRANCH  13  15
HETATM   15  C   UNK N   1      32.404  17.458   7.370  0.00  0.00     0.028 A 
HETATM   16  C   UNK N   1      31.482  16.996   6.429  0.00  0.00     0.030 A 
HETATM   17  C   UNK N   1      30.115  17.194   6.639  0.00  0.00     0.017 A 
HETATM   18  C   UNK N   1      29.662  17.837   7.802  0.00  0.00     0.007 A 
HETATM   19  C   UNK N   1      30.588  18.237   8.773  0.00  0.00     0.017 A 
HETATM   20  C   UNK N   1      31.952  18.062   8.552  0.00  0.00     0.030 A 
BRANCH  18  21
HETATM   21  C   UNK N   1      28.231  18.154   7.977  0.00  0.00     0.102 C 
BRANCH  21  22
HETATM   22  N   UNK N   1      27.363  18.155   6.860  0.00  0.00    -0.385 N 
HETATM   23  H   UNK N   1      27.301  17.364   6.279  0.00  0.00     0.157 HD
HETATM   24  H   UNK N   1      26.818  18.952   6.664  0.00  0.00     0.157 HD
ENDBRANCH  21  22
BRANCH  21  25
HETATM   25  N   UNK N   1      27.743  18.311   9.152  0.00  0.00    -0.385 N 
HETATM   26  H   UNK N   1      27.734  17.559   9.788  0.00  0.00     0.157 HD
ATOM     27  HN  UNK N   1      27.364  19.217   9.430  1.00  0.00     0.157 HD
ENDBRANCH  21  25
ENDBRANCH  18  21
ENDBRANCH  13  15
ENDBRANCH  12  13
ENDBRANCH   3  12
BRANCH  10  28
HETATM   28  C   UNK N   1      36.472  14.369  13.873  0.00  0.00     0.169 C 
BRANCH  28  29
HETATM   29  N   UNK N   1      36.691  13.033  14.444  0.00  0.00    -0.331 N 
HETATM   30  C   UNK N   1      37.248  11.904  13.910  0.00  0.00     0.080 A 
HETATM   31  C   UNK N   1      37.813  11.775  12.536  0.00  0.00     0.089 C 
HETATM   32  N   UNK N   1      37.172  10.845  14.755  0.00  0.00    -0.344 N 
HETATM   33  C   UNK N   1      36.526  11.329  15.830  0.00  0.00     0.060 A 
ATOM     34  HN  UNK N   1      37.525   9.900  14.608  1.00  0.00     0.167 HD
HETATM   35  C   UNK N   1      36.230  12.644  15.641  0.00  0.00     0.063 A 
HETATM   36  C   UNK N   1      36.132  10.636  16.969  0.00  0.00     0.032 A 
HETATM   37  C   UNK N   1      35.505  13.381  16.578  0.00  0.00     0.032 A 
HETATM   38  C   UNK N   1      35.086  12.712  17.744  0.00  0.00     0.002 A 
HETATM   39  C   UNK N   1      35.400  11.346  17.940  0.00  0.00     0.002 A 
ENDBRANCH  28  29
ENDBRANCH  10  28
TORSDOF 8
ENDMDL
MODEL 5
REMARK VINA RESULT:      -8.0      1.984     10.688
REMARK  8 active torsions:
REMARK  status: ('A' for Active; 'I' for Inactive)
REMARK    1  A    between atoms: C_3  and  C_4 
REMARK    2  A    between atoms: C_4  and  N_5 
REMARK    3  A    between atoms: N_5  and  C_6 
REMARK    4  A    between atoms: C_9  and  C_12 
REMARK    5  A    between atoms: C_12  and  N_13 
REMARK    6  A    between atoms: C_12  and  N_14 
REMARK    7  A    between atoms: C_22  and  C_23 
REMARK    8  A    between atoms: C_23  and  N_24 
ROOT
HETATM    1  C   UNK N   1      33.202  13.707   7.768  0.00  0.00     0.158 C 
HETATM    2  N   UNK N   1      33.646  14.358   8.991  0.00  0.00    -0.338 N 
HETATM    3  C   UNK N   1      33.545  15.669   9.302  0.00  0.00     0.102 A 
HETATM    4  N   UNK N   1      34.095  15.961  10.509  0.00  0.00    -0.343 N 
ATOM      5  HN  UNK N   1      34.140  16.864  10.981  1.00  0.00     0.167 HD
HETATM    6  C   UNK N   1      34.568  14.774  10.939  0.00  0.00     0.061 A 
HETATM    7  C   UNK N   1      34.298  13.808  10.017  0.00  0.00     0.062 A 
HETATM    8  C   UNK N   1      34.719  12.494  10.170  0.00  0.00     0.033 A 
HETATM    9  C   UNK N   1      35.501  12.201  11.298  0.00  0.00     0.011 A 
HETATM   10  C   UNK N   1      35.820  13.204  12.244  0.00  0.00    -0.038 A 
HETATM   11  C   UNK N   1      35.316  14.514  12.078  0.00  0.00     0.040 A 
ENDROOT
BRANCH   3  12
HETATM   12  C   UNK N   1      32.954  16.674   8.390  0.00  0.00     0.196 C 
BRANCH  12  13
HETATM   13  N   UNK N   1      31.773  17.255   8.978  0.00  0.00    -0.383 N 
HETATM   14  H   UNK N   1      31.758  17.487   9.935  0.00  0.00     0.160 HD
BRANCH  13  15
HETATM   15  C   UNK N   1      30.637  17.490   8.174  0.00  0.00     0.028 A 
HETATM   16  C   UNK N   1      30.612  17.007   6.864  0.00  0.00     0.030 A 
HETATM   17  C   UNK N   1      29.590  17.399   5.997  0.00  0.00     0.017 A 
HETATM   18  C   UNK N   1      28.575  18.262   6.441  0.00  0.00     0.007 A 
HETATM   19  C   UNK N   1      28.569  18.688   7.775  0.00  0.00     0.017 A 
HETATM   20  C   UNK N   1      29.602  18.317   8.632  0.00  0.00     0.030 A 
BRANCH  18  21
HETATM   21  C   UNK N   1      27.558  18.774   5.501  0.00  0.00     0.102 C 
BRANCH  21  22
HETATM   22  N   UNK N   1      27.957  19.482   4.343  0.00  0.00    -0.385 N 
HETATM   23  H   UNK N   1      28.137  19.001   3.504  0.00  0.00     0.157 HD
HETATM   24  H   UNK N   1      28.052  20.462   4.376  0.00  0.00     0.157 HD
ENDBRANCH  21  22
BRANCH  21  25
HETATM   25  N   UNK N   1      26.321  18.479   5.663  0.00  0.00    -0.385 N 
HETATM   26  H   UNK N   1      26.068  17.611   6.054  0.00  0.00     0.157 HD
ATOM     27  HN  UNK N   1      25.598  19.145   5.389  1.00  0.00     0.157 HD
ENDBRANCH  21  25
ENDBRANCH  18  21
ENDBRANCH  13  15
ENDBRANCH  12  13
ENDBRANCH   3  12
BRANCH  10  28
HETATM   28  C   UNK N   1      36.826  12.852  13.303  0.00  0.00     0.169 C 
BRANCH  28  29
HETATM   29  N   UNK N   1      36.379  12.925  14.701  0.00  0.00    -0.331 N 
HETATM   30  C   UNK N   1      36.516  13.907  15.643  0.00  0.00     0.080 A 
HETATM   31  C   UNK N   1      37.183  15.226  15.437  0.00  0.00     0.089 C 
HETATM   32  N   UNK N   1      36.033  13.530  16.853  0.00  0.00    -0.344 N 
HETATM   33  C   UNK N   1      35.610  12.269  16.659  0.00  0.00     0.060 A 
ATOM     34  HN  UNK N   1      35.999  14.078  17.712  1.00  0.00     0.167 HD
HETATM   35  C   UNK N   1      35.824  11.901  15.366  0.00  0.00     0.063 A 
HETATM   36  C   UNK N   1      35.083  11.394  17.602  0.00  0.00     0.032 A 
HETATM   37  C   UNK N   1      35.533  10.618  14.904  0.00  0.00     0.032 A 
HETATM   38  C   UNK N   1      35.000   9.701  15.831  0.00  0.00     0.002 A 
HETATM   39  C   UNK N   1      34.773  10.089  17.174  0.00  0.00     0.002 A 
ENDBRANCH  28  29
ENDBRANCH  10  28
TORSDOF 8
ENDMDL
MODEL 6
REMARK VINA RESULT:      -8.0      1.737      2.689
REMARK  8 active torsions:
REMARK  status: ('A' for Active; 'I' for Inactive)
REMARK    1  A    between atoms: C_3  and  C_4 
REMARK    2  A    between atoms: C_4  and  N_5 
REMARK    3  A    between atoms: N_5  and  C_6 
REMARK    4  A    between atoms: C_9  and  C_12 
REMARK    5  A    between atoms: C_12  and  N_13 
REMARK    6  A    between atoms: C_12  and  N_14 
REMARK    7  A    between atoms: C_22  and  C_23 
REMARK    8  A    between atoms: C_23  and  N_24 
ROOT
HETATM    1  C   UNK N   1      37.115  11.232  13.198  0.00  0.00     0.158 C 
HETATM    2  N   UNK N   1      36.836  12.568  12.694  0.00  0.00    -0.338 N 
HETATM    3  C   UNK N   1      36.619  13.687  13.418  0.00  0.00     0.102 A 
HETATM    4  N   UNK N   1      36.346  14.766  12.639  0.00  0.00    -0.343 N 
ATOM      5  HN  UNK N   1      36.159  15.725  12.932  1.00  0.00     0.167 HD
HETATM    6  C   UNK N   1      36.381  14.271  11.386  0.00  0.00     0.061 A 
HETATM    7  C   UNK N   1      36.674  12.940  11.422  0.00  0.00     0.062 A 
HETATM    8  C   UNK N   1      36.722  12.157  10.278  0.00  0.00     0.033 A 
HETATM    9  C   UNK N   1      36.392  12.779   9.063  0.00  0.00     0.011 A 
HETATM   10  C   UNK N   1      36.048  14.151   9.017  0.00  0.00    -0.038 A 
HETATM   11  C   UNK N   1      36.075  14.924  10.201  0.00  0.00     0.040 A 
ENDROOT
BRANCH   3  12
HETATM   12  C   UNK N   1      36.618  13.705  14.897  0.00  0.00     0.196 C 
BRANCH  12  13
HETATM   13  N   UNK N   1      35.315  13.357  15.406  0.00  0.00    -0.383 N 
HETATM   14  H   UNK N   1      34.508  13.548  14.874  0.00  0.00     0.160 HD
BRANCH  13  15
HETATM   15  C   UNK N   1      35.202  12.738  16.670  0.00  0.00     0.028 A 
HETATM   16  C   UNK N   1      35.129  13.531  17.817  0.00  0.00     0.030 A 
HETATM   17  C   UNK N   1      35.217  12.939  19.078  0.00  0.00     0.017 A 
HETATM   18  C   UNK N   1      35.359  11.547  19.201  0.00  0.00     0.007 A 
HETATM   19  C   UNK N   1      35.363  10.752  18.048  0.00  0.00     0.017 A 
HETATM   20  C   UNK N   1      35.300  11.345  16.790  0.00  0.00     0.030 A 
BRANCH  18  21
HETATM   21  C   UNK N   1      35.571  10.925  20.523  0.00  0.00     0.102 C 
BRANCH  21  22
HETATM   22  N   UNK N   1      36.860  10.922  21.106  0.00  0.00    -0.385 N 
HETATM   23  H   UNK N   1      37.111  10.225  21.755  0.00  0.00     0.157 HD
HETATM   24  H   UNK N   1      37.510  11.620  20.862  0.00  0.00     0.157 HD
ENDBRANCH  21  22
BRANCH  21  25
HETATM   25  N   UNK N   1      34.573  10.494  21.202  0.00  0.00    -0.385 N 
HETATM   26  H   UNK N   1      33.977   9.808  20.822  0.00  0.00     0.157 HD
ATOM     27  HN  UNK N   1      34.397  10.861  22.137  1.00  0.00     0.157 HD
ENDBRANCH  21  25
ENDBRANCH  18  21
ENDBRANCH  13  15
ENDBRANCH  12  13
ENDBRANCH   3  12
BRANCH  10  28
HETATM   28  C   UNK N   1      35.512  14.680   7.718  0.00  0.00     0.169 C 
BRANCH  28  29
HETATM   29  N   UNK N   1      34.053  14.680   7.546  0.00  0.00    -0.331 N 
HETATM   30  C   UNK N   1      33.203  13.730   7.049  0.00  0.00     0.080 A 
HETATM   31  C   UNK N   1      33.597  12.380   6.553  0.00  0.00     0.089 C 
HETATM   32  N   UNK N   1      31.922  14.174   6.980  0.00  0.00    -0.344 N 
HETATM   33  C   UNK N   1      31.989  15.441   7.421  0.00  0.00     0.060 A 
ATOM     34  HN  UNK N   1      31.098  13.661   6.665  1.00  0.00     0.167 HD
HETATM   35  C   UNK N   1      33.272  15.750   7.756  0.00  0.00     0.063 A 
HETATM   36  C   UNK N   1      30.959  16.372   7.493  0.00  0.00     0.032 A 
HETATM   37  C   UNK N   1      33.638  17.024   8.187  0.00  0.00     0.032 A 
HETATM   38  C   UNK N   1      32.622  17.996   8.270  0.00  0.00     0.002 A 
HETATM   39  C   UNK N   1      31.288  17.671   7.927  0.00  0.00     0.002 A 
ENDBRANCH  28  29
ENDBRANCH  10  28
TORSDOF 8
ENDMDL
MODEL 7
REMARK VINA RESULT:      -7.9      1.476      2.675
REMARK  8 active torsions:
REMARK  status: ('A' for Active; 'I' for Inactive)
REMARK    1  A    between atoms: C_3  and  C_4 
REMARK    2  A    between atoms: C_4  and  N_5 
REMARK    3  A    between atoms: N_5  and  C_6 
REMARK    4  A    between atoms: C_9  and  C_12 
REMARK    5  A    between atoms: C_12  and  N_13 
REMARK    6  A    between atoms: C_12  and  N_14 
REMARK    7  A    between atoms: C_22  and  C_23 
REMARK    8  A    between atoms: C_23  and  N_24 
ROOT
HETATM    1  C   UNK N   1      34.971  12.060  11.383  0.00  0.00     0.158 C 
HETATM    2  N   UNK N   1      35.255  13.486  11.378  0.00  0.00    -0.338 N 
HETATM    3  C   UNK N   1      35.889  14.197  12.335  0.00  0.00     0.102 A 
HETATM    4  N   UNK N   1      35.958  15.522  12.041  0.00  0.00    -0.343 N 
ATOM      5  HN  UNK N   1      36.392  16.268  12.584  1.00  0.00     0.167 HD
HETATM    6  C   UNK N   1      35.319  15.618  10.858  0.00  0.00     0.061 A 
HETATM    7  C   UNK N   1      34.892  14.386  10.461  0.00  0.00     0.062 A 
HETATM    8  C   UNK N   1      34.153  14.191   9.303  0.00  0.00     0.033 A 
HETATM    9  C   UNK N   1      33.799  15.336   8.570  0.00  0.00     0.011 A 
HETATM   10  C   UNK N   1      34.204  16.625   8.992  0.00  0.00    -0.038 A 
HETATM   11  C   UNK N   1      35.010  16.767  10.145  0.00  0.00     0.040 A 
ENDROOT
BRANCH   3  12
HETATM   12  C   UNK N   1      36.391  13.596  13.590  0.00  0.00     0.196 C 
BRANCH  12  13
HETATM   13  N   UNK N   1      35.377  13.643  14.613  0.00  0.00    -0.383 N 
HETATM   14  H   UNK N   1      34.555  14.169  14.473  0.00  0.00     0.160 HD
BRANCH  13  15
HETATM   15  C   UNK N   1      35.565  12.931  15.817  0.00  0.00     0.028 A 
HETATM   16  C   UNK N   1      35.987  11.600  15.768  0.00  0.00     0.030 A 
HETATM   17  C   UNK N   1      35.986  10.827  16.931  0.00  0.00     0.017 A 
HETATM   18  C   UNK N   1      35.582  11.385  18.155  0.00  0.00     0.007 A 
HETATM   19  C   UNK N   1      35.226  12.738  18.209  0.00  0.00     0.017 A 
HETATM   20  C   UNK N   1      35.203  13.503  17.045  0.00  0.00     0.030 A 
BRANCH  18  21
HETATM   21  C   UNK N   1      35.465  10.546  19.363  0.00  0.00     0.102 C 
BRANCH  21  22
HETATM   22  N   UNK N   1      35.128  11.134  20.605  0.00  0.00    -0.385 N 
HETATM   23  H   UNK N   1      34.253  10.955  21.018  0.00  0.00     0.157 HD
HETATM   24  H   UNK N   1      35.772  11.724  21.058  0.00  0.00     0.157 HD
ENDBRANCH  21  22
BRANCH  21  25
HETATM   25  N   UNK N   1      35.549   9.270  19.274  0.00  0.00    -0.385 N 
HETATM   26  H   UNK N   1      34.747   8.712  19.401  0.00  0.00     0.157 HD
ATOM     27  HN  UNK N   1      36.447   8.831  19.070  1.00  0.00     0.157 HD
ENDBRANCH  21  25
ENDBRANCH  18  21
ENDBRANCH  13  15
ENDBRANCH  12  13
ENDBRANCH   3  12
BRANCH  10  28
HETATM   28  C   UNK N   1      33.612  17.800   8.268  0.00  0.00     0.169 C 
BRANCH  28  29
HETATM   29  N   UNK N   1      32.397  17.557   7.479  0.00  0.00    -0.331 N 
HETATM   30  C   UNK N   1      31.100  17.344   7.860  0.00  0.00     0.080 A 
HETATM   31  C   UNK N   1      30.595  17.327   9.263  0.00  0.00     0.089 C 
HETATM   32  N   UNK N   1      30.295  17.066   6.804  0.00  0.00    -0.344 N 
HETATM   33  C   UNK N   1      31.122  17.083   5.745  0.00  0.00     0.060 A 
ATOM     34  HN  UNK N   1      29.290  16.887   6.813  1.00  0.00     0.167 HD
HETATM   35  C   UNK N   1      32.389  17.371   6.151  0.00  0.00     0.063 A 
HETATM   36  C   UNK N   1      30.814  16.797   4.420  0.00  0.00     0.032 A 
HETATM   37  C   UNK N   1      33.463  17.393   5.262  0.00  0.00     0.032 A 
HETATM   38  C   UNK N   1      33.191  17.106   3.910  0.00  0.00     0.002 A 
HETATM   39  C   UNK N   1      31.872  16.812   3.491  0.00  0.00     0.002 A 
ENDBRANCH  28  29
ENDBRANCH  10  28
TORSDOF 8
ENDMDL
MODEL 8
REMARK VINA RESULT:      -7.8      1.815      3.176
REMARK  8 active torsions:
REMARK  status: ('A' for Active; 'I' for Inactive)
REMARK    1  A    between atoms: C_3  and  C_4 
REMARK    2  A    between atoms: C_4  and  N_5 
REMARK    3  A    between atoms: N_5  and  C_6 
REMARK    4  A    between atoms: C_9  and  C_12 
REMARK    5  A    between atoms: C_12  and  N_13 
REMARK    6  A    between atoms: C_12  and  N_14 
REMARK    7  A    between atoms: C_22  and  C_23 
REMARK    8  A    between atoms: C_23  and  N_24 
ROOT
HETATM    1  C   UNK N   1      36.397  15.682  10.835  0.00  0.00     0.158 C 
HETATM    2  N   UNK N   1      35.104  15.214  10.360  0.00  0.00    -0.338 N 
HETATM    3  C   UNK N   1      34.586  13.973  10.489  0.00  0.00     0.102 A 
HETATM    4  N   UNK N   1      33.369  13.852   9.898  0.00  0.00    -0.343 N 
ATOM      5  HN  UNK N   1      32.763  13.033   9.861  1.00  0.00     0.167 HD
HETATM    6  C   UNK N   1      33.151  15.074   9.370  0.00  0.00     0.061 A 
HETATM    7  C   UNK N   1      34.203  15.893   9.648  0.00  0.00     0.062 A 
HETATM    8  C   UNK N   1      34.275  17.198   9.180  0.00  0.00     0.033 A 
HETATM    9  C   UNK N   1      33.237  17.634   8.342  0.00  0.00     0.011 A 
HETATM   10  C   UNK N   1      32.157  16.780   8.014  0.00  0.00    -0.038 A 
HETATM   11  C   UNK N   1      32.095  15.480   8.567  0.00  0.00     0.040 A 
ENDROOT
BRANCH   3  12
HETATM   12  C   UNK N   1      35.305  12.861  11.149  0.00  0.00     0.196 C 
BRANCH  12  13
HETATM   13  N   UNK N   1      34.385  12.035  11.890  0.00  0.00    -0.383 N 
HETATM   14  H   UNK N   1      33.664  11.553  11.422  0.00  0.00     0.160 HD
BRANCH  13  15
HETATM   15  C   UNK N   1      34.522  11.919  13.290  0.00  0.00     0.028 A 
HETATM   16  C   UNK N   1      35.294  12.855  13.983  0.00  0.00     0.030 A 
HETATM   17  C   UNK N   1      35.602  12.643  15.329  0.00  0.00     0.017 A 
HETATM   18  C   UNK N   1      35.124  11.503  15.995  0.00  0.00     0.007 A 
HETATM   19  C   UNK N   1      34.295  10.604  15.313  0.00  0.00     0.017 A 
HETATM   20  C   UNK N   1      34.008  10.803  13.964  0.00  0.00     0.030 A 
BRANCH  18  21
HETATM   21  C   UNK N   1      35.541  11.211  17.381  0.00  0.00     0.102 C 
BRANCH  21  22
HETATM   22  N   UNK N   1      36.357  10.089  17.654  0.00  0.00    -0.385 N 
HETATM   23  H   UNK N   1      37.327  10.127  17.488  0.00  0.00     0.157 HD
HETATM   24  H   UNK N   1      35.954   9.265  18.012  0.00  0.00     0.157 HD
ENDBRANCH  21  22
BRANCH  21  25
HETATM   25  N   UNK N   1      35.269  12.035  18.325  0.00  0.00    -0.385 N 
HETATM   26  H   UNK N   1      34.952  11.701  19.195  0.00  0.00     0.157 HD
ATOM     27  HN  UNK N   1      35.382  13.038  18.174  1.00  0.00     0.157 HD
ENDBRANCH  21  25
ENDBRANCH  18  21
ENDBRANCH  13  15
ENDBRANCH  12  13
ENDBRANCH   3  12
BRANCH  10  28
HETATM   28  C   UNK N   1      31.205  17.255   6.955  0.00  0.00     0.169 C 
BRANCH  28  29
HETATM   29  N   UNK N   1      29.771  17.216   7.276  0.00  0.00    -0.331 N 
HETATM   30  C   UNK N   1      29.061  17.775   8.302  0.00  0.00     0.080 A 
HETATM   31  C   UNK N   1      29.623  18.624   9.392  0.00  0.00     0.089 C 
HETATM   32  N   UNK N   1      27.753  17.413   8.278  0.00  0.00    -0.344 N 
HETATM   33  C   UNK N   1      27.660  16.587   7.223  0.00  0.00     0.060 A 
ATOM     34  HN  UNK N   1      27.011  17.704   8.915  1.00  0.00     0.167 HD
HETATM   35  C   UNK N   1      28.876  16.462   6.622  0.00  0.00     0.063 A 
HETATM   36  C   UNK N   1      26.543  15.884   6.789  0.00  0.00     0.032 A 
HETATM   37  C   UNK N   1      29.080  15.613   5.535  0.00  0.00     0.032 A 
HETATM   38  C   UNK N   1      27.971  14.881   5.067  0.00  0.00     0.002 A 
HETATM   39  C   UNK N   1      26.707  15.017   5.690  0.00  0.00     0.002 A 
ENDBRANCH  28  29
ENDBRANCH  10  28
TORSDOF 8
ENDMDL
MODEL 9
REMARK VINA RESULT:      -7.8      6.016     11.202
REMARK  8 active torsions:
REMARK  status: ('A' for Active; 'I' for Inactive)
REMARK    1  A    between atoms: C_3  and  C_4 
REMARK    2  A    between atoms: C_4  and  N_5 
REMARK    3  A    between atoms: N_5  and  C_6 
REMARK    4  A    between atoms: C_9  and  C_12 
REMARK    5  A    between atoms: C_12  and  N_13 
REMARK    6  A    between atoms: C_12  and  N_14 
REMARK    7  A    between atoms: C_22  and  C_23 
REMARK    8  A    between atoms: C_23  and  N_24 
ROOT
HETATM    1  C   UNK N   1      28.977  14.259   2.247  0.00  0.00     0.158 C 
HETATM    2  N   UNK N   1      28.679  15.571   2.800  0.00  0.00    -0.338 N 
HETATM    3  C   UNK N   1      29.563  16.497   3.233  0.00  0.00     0.102 A 
HETATM    4  N   UNK N   1      28.954  17.605   3.731  0.00  0.00    -0.343 N 
ATOM      5  HN  UNK N   1      29.388  18.448   4.107  1.00  0.00     0.167 HD
HETATM    6  C   UNK N   1      27.641  17.326   3.612  0.00  0.00     0.061 A 
HETATM    7  C   UNK N   1      27.477  16.095   3.052  0.00  0.00     0.062 A 
HETATM    8  C   UNK N   1      26.227  15.524   2.860  0.00  0.00     0.033 A 
HETATM    9  C   UNK N   1      25.117  16.245   3.327  0.00  0.00     0.011 A 
HETATM   10  C   UNK N   1      25.276  17.508   3.945  0.00  0.00    -0.038 A 
HETATM   11  C   UNK N   1      26.564  18.078   4.062  0.00  0.00     0.040 A 
ENDROOT
BRANCH   3  12
HETATM   12  C   UNK N   1      31.027  16.286   3.217  0.00  0.00     0.196 C 
BRANCH  12  13
HETATM   13  N   UNK N   1      31.707  17.431   3.769  0.00  0.00    -0.383 N 
HETATM   14  H   UNK N   1      31.880  18.223   3.209  0.00  0.00     0.160 HD
BRANCH  13  15
HETATM   15  C   UNK N   1      32.124  17.412   5.118  0.00  0.00     0.028 A 
HETATM   16  C   UNK N   1      33.483  17.535   5.417  0.00  0.00     0.030 A 
HETATM   17  C   UNK N   1      33.929  17.319   6.723  0.00  0.00     0.017 A 
HETATM   18  C   UNK N   1      33.018  16.997   7.741  0.00  0.00     0.007 A 
HETATM   19  C   UNK N   1      31.650  16.941   7.447  0.00  0.00     0.017 A 
HETATM   20  C   UNK N   1      31.207  17.133   6.141  0.00  0.00     0.030 A 
BRANCH  18  21
HETATM   21  C   UNK N   1      33.493  16.652   9.095  0.00  0.00     0.102 C 
BRANCH  21  22
HETATM   22  N   UNK N   1      32.947  15.538   9.776  0.00  0.00    -0.385 N 
HETATM   23  H   UNK N   1      33.232  14.625   9.543  0.00  0.00     0.157 HD
HETATM   24  H   UNK N   1      32.280  15.677  10.486  0.00  0.00     0.157 HD
ENDBRANCH  21  22
BRANCH  21  25
HETATM   25  N   UNK N   1      34.483  17.281   9.613  0.00  0.00    -0.385 N 
HETATM   26  H   UNK N   1      35.227  16.782  10.021  0.00  0.00     0.157 HD
ATOM     27  HN  UNK N   1      34.500  18.301   9.600  1.00  0.00     0.157 HD
ENDBRANCH  21  25
ENDBRANCH  18  21
ENDBRANCH  13  15
ENDBRANCH  12  13
ENDBRANCH   3  12
BRANCH  10  28
HETATM   28  C   UNK N   1      24.063  18.110   4.596  0.00  0.00     0.169 C 
BRANCH  28  29
HETATM   29  N   UNK N   1      23.150  18.874   3.734  0.00  0.00    -0.331 N 
HETATM   30  C   UNK N   1      23.296  20.085   3.114  0.00  0.00     0.080 A 
HETATM   31  C   UNK N   1      24.509  20.951   3.165  0.00  0.00     0.089 C 
HETATM   32  N   UNK N   1      22.163  20.476   2.479  0.00  0.00    -0.344 N 
HETATM   33  C   UNK N   1      21.285  19.492   2.737  0.00  0.00     0.060 A 
ATOM     34  HN  UNK N   1      22.012  21.323   1.931  1.00  0.00     0.167 HD
HETATM   35  C   UNK N   1      21.876  18.530   3.498  0.00  0.00     0.063 A 
HETATM   36  C   UNK N   1      19.946  19.427   2.370  0.00  0.00     0.032 A 
HETATM   37  C   UNK N   1      21.173  17.419   3.965  0.00  0.00     0.032 A 
HETATM   38  C   UNK N   1      19.812  17.320   3.615  0.00  0.00     0.002 A 
HETATM   39  C   UNK N   1      19.202  18.319   2.819  0.00  0.00     0.002 A 
ENDBRANCH  28  29
ENDBRANCH  10  28
TORSDOF 8
ENDMDL
