REMARK  11 active torsions:
REMARK  status: ('A' for Active; 'I' for Inactive)
REMARK    1  A    between atoms: C_3  and  C_1 
REMARK    2  A    between atoms: N_17  and  C_1 
REMARK    3  A    between atoms: C_4  and  C_2 
REMARK    4  A    between atoms: O_18  and  C_2 
REMARK    5  A    between atoms: C_6  and  C_3 
REMARK    6  A    between atoms: C_3  and  O_19 
REMARK    7  A    between atoms: C_6  and  C_4 
REMARK    8  A    between atoms: C_4  and  O_20 
REMARK    9  A    between atoms: C_6  and  O_21 
REMARK   10  A    between atoms: O_22  and  C_8 
REMARK   11  A    between atoms: O_25  and  C_11 
ROOT
HETATM    1  C   UNK N   1      -1.203   0.303   0.027  0.00  0.00     0.131 A 
HETATM    2  C   UNK N   1       0.006  -0.293   0.427  0.00  0.00     0.145 A 
HETATM    3  C   UNK N   1      -2.264  -0.521  -0.351  0.00  0.00     0.174 A 
HETATM    4  C   UNK N   1      -0.281   2.456   0.388  0.00  0.00     0.314 A 
HETATM    5  C   UNK N   1       0.928   1.875   0.791  0.00  0.00     0.317 A 
HETATM    6  C   UNK N   1      -0.946  -2.435   0.094  0.00  0.00     0.224 A 
HETATM    7  N   UNK N   1      -1.322   1.654   0.006  0.00  0.00    -0.312 N 
HETATM    8  N   UNK N   1       0.107  -1.651   0.449  0.00  0.00    -0.306 N 
ATOM      9  HN  UNK N   1       0.984  -2.086   0.734  1.00  0.00     0.171 HD
HETATM   10  N   UNK N   1      -2.117  -1.870  -0.307  0.00  0.00    -0.301 N 
ATOM     11  HN  UNK N   1      -2.896  -2.470  -0.579  1.00  0.00     0.171 HD
HETATM   12  N   UNK N   1       1.065   0.497   0.784  0.00  0.00    -0.291 N 
HETATM   13  O   UNK N   1      -0.413   3.667   0.370  0.00  0.00    -0.262 OA
HETATM   14  O   UNK N   1       1.856   2.589   1.141  0.00  0.00    -0.262 OA
HETATM   15  H   UNK N   1      -2.168   2.063  -0.288  0.00  0.00     0.169 HD
ENDROOT
BRANCH  12  16
HETATM   16  C   UNK N   1       2.351  -0.115   1.139  0.00  0.00     0.168 C 
BRANCH  16  17
HETATM   17  C   UNK N   1       3.314  -0.080  -0.061  0.00  0.00     0.168 C 
BRANCH  17  18
HETATM   18  C   UNK N   1       4.726  -0.534   0.355  0.00  0.00     0.179 C 
BRANCH  18  19
HETATM   19  C   UNK N   1       5.759  -0.356  -0.785  0.00  0.00     0.173 C 
BRANCH  19  20
HETATM   20  C   UNK N   1       7.132  -0.890  -0.389  0.00  0.00     0.198 C 
BRANCH  20  21
HETATM   21  O   UNK N   1       7.655  -0.169   0.687  0.00  0.00    -0.398 OA
HETATM   22  H   UNK N   1       8.270  -0.233   1.435  0.00  0.00     0.209 HD
ENDBRANCH  20  21
ENDBRANCH  19  20
BRANCH  19  23
HETATM   23  O   UNK N   1       5.893   0.994  -1.125  0.00  0.00    -0.391 OA
HETATM   24  H   UNK N   1       6.751   1.381  -1.361  0.00  0.00     0.210 HD
ENDBRANCH  19  23
ENDBRANCH  18  19
BRANCH  18  25
HETATM   25  O   UNK N   1       4.677  -1.879   0.735  0.00  0.00    -0.390 OA
HETATM   26  H   UNK N   1       3.852  -2.316   0.998  0.00  0.00     0.210 HD
ENDBRANCH  18  25
ENDBRANCH  17  18
BRANCH  17  27
HETATM   27  O   UNK N   1       3.365   1.214  -0.580  0.00  0.00    -0.391 OA
HETATM   28  H   UNK N   1       4.162   1.633  -0.941  0.00  0.00     0.210 HD
ENDBRANCH  17  27
ENDBRANCH  16  17
ENDBRANCH  12  16
BRANCH   3  29
HETATM   29  O   UNK N   1      -3.430   0.012  -0.758  0.00  0.00    -0.344 OA
HETATM   30  H   UNK N   1      -3.514   0.901  -1.041  0.00  0.00     0.219 HD
ENDBRANCH   3  29
BRANCH   6  31
HETATM   31  O   UNK N   1      -0.831  -3.772   0.141  0.00  0.00    -0.332 OA
HETATM   32  H   UNK N   1      -1.599  -4.308   0.175  0.00  0.00     0.221 HD
ENDBRANCH   6  31
TORSDOF 11
