MODEL 1
REMARK VINA RESULT:      -5.2      0.000      0.000
REMARK  0 active torsions:
REMARK  status: ('A' for Active; 'I' for Inactive)
REMARK       I    between atoms: N_8  and  C_12 
ROOT
HETATM    1  O   UNK N   1      35.303  19.196   8.433  0.00  0.00    -0.265 OA
HETATM    2  N   UNK N   1      32.868  16.040   8.241  0.00  0.00    -0.174 N 
HETATM    3  N   UNK N   1      35.338  17.129  10.443  0.00  0.00    -0.345 N 
HETATM    4  N   UNK N   1      33.938  15.363  10.286  0.00  0.00    -0.336 N 
ATOM      5  HN  UNK N   1      33.455  14.487  10.486  1.00  0.00     0.168 HD
HETATM    6  N   UNK N   1      33.665  18.092   7.335  0.00  0.00    -0.154 N 
ATOM      7  HN  UNK N   1      33.623  18.804   6.605  1.00  0.00     0.187 HD
HETATM    8  N   UNK N   1      31.919  16.875   6.204  0.00  0.00    -0.234 N 
HETATM    9  C   UNK N   1      34.581  17.244   9.343  0.00  0.00     0.147 A 
HETATM   10  C   UNK N   1      33.751  16.191   9.254  0.00  0.00     0.154 A 
HETATM   11  C   UNK N   1      34.560  18.233   8.374  0.00  0.00     0.290 A 
HETATM   12  C   UNK N   1      32.827  17.003   7.272  0.00  0.00     0.680 A 
HETATM   13  C   UNK N   1      34.923  15.961  11.009  0.00  0.00     0.182 A 
HETATM   14  H   UNK N   1      32.271  15.258   8.202  0.00  0.00     0.186 HD
HETATM   15  H   UNK N   1      36.033  17.746  10.767  0.00  0.00     0.167 HD
HETATM   16  H   UNK N   1      31.884  17.565   5.502  0.00  0.00     0.174 HD
HETATM   17  H   UNK N   1      31.319  16.096   6.158  0.00  0.00     0.174 HD
ENDROOT
TORSDOF 0
ENDMDL
MODEL 2
REMARK VINA RESULT:      -5.0      2.027      2.712
REMARK  0 active torsions:
REMARK  status: ('A' for Active; 'I' for Inactive)
REMARK       I    between atoms: N_8  and  C_12 
ROOT
HETATM    1  O   UNK N   1      35.869  17.574  10.424  0.00  0.00    -0.265 OA
HETATM    2  N   UNK N   1      33.400  14.437  10.399  0.00  0.00    -0.174 N 
HETATM    3  N   UNK N   1      36.242  15.335  12.203  0.00  0.00    -0.345 N 
HETATM    4  N   UNK N   1      34.815  13.585  12.148  0.00  0.00    -0.336 N 
ATOM      5  HN  UNK N   1      34.366  12.692  12.354  1.00  0.00     0.168 HD
HETATM    6  N   UNK N   1      34.045  16.565   9.549  0.00  0.00    -0.154 N 
ATOM      7  HN  UNK N   1      33.881  17.340   8.904  1.00  0.00     0.187 HD
HETATM    8  N   UNK N   1      32.108  15.447   8.651  0.00  0.00    -0.234 N 
HETATM    9  C   UNK N   1      35.300  15.545  11.273  0.00  0.00     0.147 A 
HETATM   10  C   UNK N   1      34.455  14.501  11.245  0.00  0.00     0.154 A 
HETATM   11  C   UNK N   1      35.116  16.617  10.417  0.00  0.00     0.290 A 
HETATM   12  C   UNK N   1      33.196  15.484   9.543  0.00  0.00     0.680 A 
HETATM   13  C   UNK N   1      35.922  14.120  12.729  0.00  0.00     0.182 A 
HETATM   14  H   UNK N   1      32.797  13.660  10.401  0.00  0.00     0.186 HD
HETATM   15  H   UNK N   1      36.992  15.924  12.449  0.00  0.00     0.167 HD
HETATM   16  H   UNK N   1      31.955  16.198   8.031  0.00  0.00     0.174 HD
HETATM   17  H   UNK N   1      31.500  14.673   8.646  0.00  0.00     0.174 HD
ENDROOT
TORSDOF 0
ENDMDL
MODEL 3
REMARK VINA RESULT:      -5.0     13.442     14.617
REMARK  0 active torsions:
REMARK  status: ('A' for Active; 'I' for Inactive)
REMARK       I    between atoms: N_8  and  C_12 
ROOT
HETATM    1  O   UNK N   1      23.079  19.680   3.963  0.00  0.00    -0.265 OA
HETATM    2  N   UNK N   1      19.765  19.276   1.776  0.00  0.00    -0.174 N 
HETATM    3  N   UNK N   1      21.152  17.603   4.499  0.00  0.00    -0.345 N 
HETATM    4  N   UNK N   1      19.291  17.419   3.230  0.00  0.00    -0.336 N 
ATOM      5  HN  UNK N   1      18.400  17.093   2.856  1.00  0.00     0.168 HD
HETATM    6  N   UNK N   1      21.802  20.413   2.248  0.00  0.00    -0.154 N 
ATOM      7  HN  UNK N   1      22.462  21.161   2.028  1.00  0.00     0.187 HD
HETATM    8  N   UNK N   1      20.404  21.155   0.430  0.00  0.00    -0.234 N 
HETATM    9  C   UNK N   1      21.146  18.558   3.558  0.00  0.00     0.147 A 
HETATM   10  C   UNK N   1      20.038  18.443   2.806  0.00  0.00     0.154 A 
HETATM   11  C   UNK N   1      22.068  19.557   3.295  0.00  0.00     0.290 A 
HETATM   12  C   UNK N   1      20.659  20.272   1.496  0.00  0.00     0.680 A 
HETATM   13  C   UNK N   1      19.998  16.914   4.277  0.00  0.00     0.182 A 
HETATM   14  H   UNK N   1      18.945  19.169   1.242  0.00  0.00     0.186 HD
HETATM   15  H   UNK N   1      21.832  17.439   5.191  0.00  0.00     0.167 HD
HETATM   16  H   UNK N   1      21.044  21.874   0.223  0.00  0.00     0.174 HD
HETATM   17  H   UNK N   1      19.586  21.054  -0.108  0.00  0.00     0.174 HD
ENDROOT
TORSDOF 0
ENDMDL
MODEL 4
REMARK VINA RESULT:      -5.0     10.910     12.403
REMARK  0 active torsions:
REMARK  status: ('A' for Active; 'I' for Inactive)
REMARK       I    between atoms: N_8  and  C_12 
ROOT
HETATM    1  O   UNK N   1      41.870  19.763   3.503  0.00  0.00    -0.265 OA
HETATM    2  N   UNK N   1      43.934  23.135   2.955  0.00  0.00    -0.174 N 
HETATM    3  N   UNK N   1      40.789  21.977   2.005  0.00  0.00    -0.345 N 
HETATM    4  N   UNK N   1      41.999  23.864   1.724  0.00  0.00    -0.336 N 
ATOM      5  HN  UNK N   1      42.284  24.800   1.437  1.00  0.00     0.168 HD
HETATM    6  N   UNK N   1      43.766  20.940   3.861  0.00  0.00    -0.154 N 
ATOM      7  HN  UNK N   1      44.182  20.178   4.398  1.00  0.00     0.187 HD
HETATM    8  N   UNK N   1      45.766  22.238   4.214  0.00  0.00    -0.234 N 
HETATM    9  C   UNK N   1      41.975  21.851   2.616  0.00  0.00     0.147 A 
HETATM   10  C   UNK N   1      42.691  22.976   2.445  0.00  0.00     0.154 A 
HETATM   11  C   UNK N   1      42.500  20.792   3.336  0.00  0.00     0.290 A 
HETATM   12  C   UNK N   1      44.475  22.103   3.671  0.00  0.00     0.680 A 
HETATM   13  C   UNK N   1      40.827  23.226   1.462  0.00  0.00     0.182 A 
HETATM   14  H   UNK N   1      44.435  23.970   2.814  0.00  0.00     0.186 HD
HETATM   15  H   UNK N   1      40.058  21.318   1.959  0.00  0.00     0.167 HD
HETATM   16  H   UNK N   1      46.162  21.498   4.730  0.00  0.00     0.174 HD
HETATM   17  H   UNK N   1      46.274  23.070   4.077  0.00  0.00     0.174 HD
ENDROOT
TORSDOF 0
ENDMDL
MODEL 5
REMARK VINA RESULT:      -5.0      2.347      4.290
REMARK  0 active torsions:
REMARK  status: ('A' for Active; 'I' for Inactive)
REMARK       I    between atoms: N_8  and  C_12 
ROOT
HETATM    1  O   UNK N   1      35.630  17.513  10.429  0.00  0.00    -0.265 OA
HETATM    2  N   UNK N   1      35.301  13.556  10.839  0.00  0.00    -0.174 N 
HETATM    3  N   UNK N   1      33.289  16.085   9.535  0.00  0.00    -0.345 N 
HETATM    4  N   UNK N   1      33.154  13.844   9.791  0.00  0.00    -0.336 N 
ATOM      5  HN  UNK N   1      32.811  12.884   9.768  1.00  0.00     0.168 HD
HETATM    6  N   UNK N   1      36.540  15.567  11.133  0.00  0.00    -0.154 N 
ATOM      7  HN  UNK N   1      37.384  16.038  11.461  1.00  0.00     0.187 HD
HETATM    8  N   UNK N   1      37.465  13.466  11.866  0.00  0.00    -0.234 N 
HETATM    9  C   UNK N   1      34.403  15.626  10.123  0.00  0.00     0.147 A 
HETATM   10  C   UNK N   1      34.317  14.293  10.273  0.00  0.00     0.154 A 
HETATM   11  C   UNK N   1      35.529  16.305  10.554  0.00  0.00     0.290 A 
HETATM   12  C   UNK N   1      36.424  14.204  11.272  0.00  0.00     0.680 A 
HETATM   13  C   UNK N   1      32.534  14.968   9.341  0.00  0.00     0.182 A 
HETATM   14  H   UNK N   1      35.210  12.581  10.935  0.00  0.00     0.186 HD
HETATM   15  H   UNK N   1      33.069  17.014   9.299  0.00  0.00     0.167 HD
HETATM   16  H   UNK N   1      38.277  13.926  12.181  0.00  0.00     0.174 HD
HETATM   17  H   UNK N   1      37.382  12.490  11.966  0.00  0.00     0.174 HD
ENDROOT
TORSDOF 0
ENDMDL
MODEL 6
REMARK VINA RESULT:      -4.9      1.697      3.795
REMARK  0 active torsions:
REMARK  status: ('A' for Active; 'I' for Inactive)
REMARK       I    between atoms: N_8  and  C_12 
ROOT
HETATM    1  O   UNK N   1      34.116  17.790   5.641  0.00  0.00    -0.265 OA
HETATM    2  N   UNK N   1      32.652  16.945   9.257  0.00  0.00    -0.174 N 
HETATM    3  N   UNK N   1      31.314  17.249   6.054  0.00  0.00    -0.345 N 
HETATM    4  N   UNK N   1      30.537  16.776   8.122  0.00  0.00    -0.336 N 
ATOM      5  HN  UNK N   1      29.912  16.543   8.894  1.00  0.00     0.168 HD
HETATM    6  N   UNK N   1      34.493  17.489   7.849  0.00  0.00    -0.154 N 
ATOM      7  HN  UNK N   1      35.491  17.675   7.742  1.00  0.00     0.187 HD
HETATM    8  N   UNK N   1      34.841  17.157  10.211  0.00  0.00    -0.234 N 
HETATM    9  C   UNK N   1      32.323  17.274   6.936  0.00  0.00     0.147 A 
HETATM   10  C   UNK N   1      31.855  16.992   8.164  0.00  0.00     0.154 A 
HETATM   11  C   UNK N   1      33.669  17.533   6.744  0.00  0.00     0.290 A 
HETATM   12  C   UNK N   1      33.985  17.197   9.094  0.00  0.00     0.680 A 
HETATM   13  C   UNK N   1      30.223  16.940   6.809  0.00  0.00     0.182 A 
HETATM   14  H   UNK N   1      32.281  16.736  10.144  0.00  0.00     0.186 HD
HETATM   15  H   UNK N   1      31.353  17.416   5.085  0.00  0.00     0.167 HD
HETATM   16  H   UNK N   1      35.802  17.338  10.101  0.00  0.00     0.174 HD
HETATM   17  H   UNK N   1      34.478  16.948  11.102  0.00  0.00     0.174 HD
ENDROOT
TORSDOF 0
ENDMDL
MODEL 7
REMARK VINA RESULT:      -4.8     11.156     11.956
REMARK  0 active torsions:
REMARK  status: ('A' for Active; 'I' for Inactive)
REMARK       I    between atoms: N_8  and  C_12 
ROOT
HETATM    1  O   UNK N   1      20.930  12.639   8.940  0.00  0.00    -0.265 OA
HETATM    2  N   UNK N   1      24.752  12.984  10.036  0.00  0.00    -0.174 N 
HETATM    3  N   UNK N   1      21.816  11.942  11.594  0.00  0.00    -0.345 N 
HETATM    4  N   UNK N   1      23.992  12.156  12.163  0.00  0.00    -0.336 N 
ATOM      5  HN  UNK N   1      24.861  12.143  12.697  1.00  0.00     0.168 HD
HETATM    6  N   UNK N   1      23.048  13.205   8.389  0.00  0.00    -0.154 N 
ATOM      7  HN  UNK N   1      22.772  13.462   7.441  1.00  0.00     0.187 HD
HETATM    8  N   UNK N   1      25.323  13.795   7.853  0.00  0.00    -0.234 N 
HETATM    9  C   UNK N   1      22.515  12.408  10.550  0.00  0.00     0.147 A 
HETATM   10  C   UNK N   1      23.809  12.533  10.894  0.00  0.00     0.154 A 
HETATM   11  C   UNK N   1      22.097  12.744   9.275  0.00  0.00     0.290 A 
HETATM   12  C   UNK N   1      24.364  13.323   8.770  0.00  0.00     0.680 A 
HETATM   13  C   UNK N   1      22.748  11.795  12.577  0.00  0.00     0.182 A 
HETATM   14  H   UNK N   1      25.693  13.065  10.316  0.00  0.00     0.186 HD
HETATM   15  H   UNK N   1      20.851  11.751  11.640  0.00  0.00     0.167 HD
HETATM   16  H   UNK N   1      25.050  14.041   6.940  0.00  0.00     0.174 HD
HETATM   17  H   UNK N   1      26.265  13.879   8.126  0.00  0.00     0.174 HD
ENDROOT
TORSDOF 0
ENDMDL
MODEL 8
REMARK VINA RESULT:      -4.8      1.165      3.388
REMARK  0 active torsions:
REMARK  status: ('A' for Active; 'I' for Inactive)
REMARK       I    between atoms: N_8  and  C_12 
ROOT
HETATM    1  O   UNK N   1      34.963  19.101   8.337  0.00  0.00    -0.265 OA
HETATM    2  N   UNK N   1      33.564  15.378   8.680  0.00  0.00    -0.174 N 
HETATM    3  N   UNK N   1      33.856  17.682   6.083  0.00  0.00    -0.345 N 
HETATM    4  N   UNK N   1      33.078  15.576   6.332  0.00  0.00    -0.336 N 
ATOM      5  HN  UNK N   1      32.667  14.664   6.134  1.00  0.00     0.168 HD
HETATM    6  N   UNK N   1      34.566  17.306   9.653  0.00  0.00    -0.154 N 
ATOM      7  HN  UNK N   1      34.951  17.776  10.473  1.00  0.00     0.187 HD
HETATM    8  N   UNK N   1      34.121  15.366  11.012  0.00  0.00    -0.234 N 
HETATM    9  C   UNK N   1      34.006  17.289   7.356  0.00  0.00     0.147 A 
HETATM   10  C   UNK N   1      33.542  16.036   7.498  0.00  0.00     0.154 A 
HETATM   11  C   UNK N   1      34.536  17.965   8.441  0.00  0.00     0.290 A 
HETATM   12  C   UNK N   1      34.083  16.024   9.768  0.00  0.00     0.680 A 
HETATM   13  C   UNK N   1      33.282  16.609   5.471  0.00  0.00     0.182 A 
HETATM   14  H   UNK N   1      33.217  14.460   8.755  0.00  0.00     0.186 HD
HETATM   15  H   UNK N   1      34.104  18.547   5.684  0.00  0.00     0.167 HD
HETATM   16  H   UNK N   1      34.493  15.825  11.800  0.00  0.00     0.174 HD
HETATM   17  H   UNK N   1      33.775  14.448  11.094  0.00  0.00     0.174 HD
ENDROOT
TORSDOF 0
ENDMDL
MODEL 9
REMARK VINA RESULT:      -4.8     11.628     12.868
REMARK  0 active torsions:
REMARK  status: ('A' for Active; 'I' for Inactive)
REMARK       I    between atoms: N_8  and  C_12 
ROOT
HETATM    1  O   UNK N   1      44.557  24.648   3.052  0.00  0.00    -0.265 OA
HETATM    2  N   UNK N   1      43.728  20.748   2.871  0.00  0.00    -0.174 N 
HETATM    3  N   UNK N   1      41.982  23.683   2.182  0.00  0.00    -0.345 N 
HETATM    4  N   UNK N   1      41.566  21.464   2.098  0.00  0.00    -0.336 N 
ATOM      5  HN  UNK N   1      41.095  20.569   1.959  1.00  0.00     0.168 HD
HETATM    6  N   UNK N   1      45.247  22.517   3.351  0.00  0.00    -0.154 N 
ATOM      7  HN  UNK N   1      46.170  22.821   3.665  1.00  0.00     0.187 HD
HETATM    8  N   UNK N   1      45.933  20.226   3.654  0.00  0.00    -0.234 N 
HETATM    9  C   UNK N   1      43.066  23.001   2.578  0.00  0.00     0.147 A 
HETATM   10  C   UNK N   1      42.812  21.682   2.526  0.00  0.00     0.154 A 
HETATM   11  C   UNK N   1      44.304  23.458   2.997  0.00  0.00     0.290 A 
HETATM   12  C   UNK N   1      44.959  21.174   3.288  0.00  0.00     0.680 A 
HETATM   13  C   UNK N   1      41.070  22.713   1.891  0.00  0.00     0.182 A 
HETATM   14  H   UNK N   1      43.514  19.788   2.824  0.00  0.00     0.186 HD
HETATM   15  H   UNK N   1      41.872  24.659   2.116  0.00  0.00     0.167 HD
HETATM   16  H   UNK N   1      46.822  20.526   3.956  0.00  0.00     0.174 HD
HETATM   17  H   UNK N   1      45.727  19.265   3.609  0.00  0.00     0.174 HD
ENDROOT
TORSDOF 0
ENDMDL
