MODEL 1
REMARK VINA RESULT:      -5.6      0.000      0.000
REMARK  4 active torsions:
REMARK  status: ('A' for Active; 'I' for Inactive)
REMARK    1  A    between atoms: O_1  and  C_2 
REMARK    2  A    between atoms: C_4  and  N_12 
REMARK    3  A    between atoms: C_6  and  N_9 
REMARK    4  A    between atoms: C_7  and  O_8 
ROOT
HETATM    1  C   UNK N   1      20.177  17.292   2.578  0.00  0.00     0.103 A 
HETATM    2  C   UNK N   1      20.398  17.061   3.940  0.00  0.00     0.075 A 
HETATM    3  C   UNK N   1      20.967  18.058   4.742  0.00  0.00     0.108 A 
HETATM    4  C   UNK N   1      21.312  19.284   4.169  0.00  0.00     0.075 A 
HETATM    5  C   UNK N   1      21.101  19.540   2.810  0.00  0.00     0.141 A 
HETATM    6  C   UNK N   1      20.525  18.527   2.004  0.00  0.00     0.132 A 
ENDROOT
BRANCH   3   7
HETATM    7  N   UNK N   1      21.198  17.838   6.127  0.00  0.00    -0.116 N 
HETATM    8  O   UNK N   1      20.977  18.800   6.998  0.00  0.00    -0.532 OA
HETATM    9  O   UNK N   1      21.594  16.778   6.510  0.00  0.00    -0.532 OA
ENDBRANCH   3   7
BRANCH   1  10
HETATM   10  O   UNK N   1      19.629  16.324   1.824  0.00  0.00    -0.358 OA
HETATM   11  H   UNK N   1      19.445  16.483   0.919  0.00  0.00     0.217 HD
ENDBRANCH   1  10
BRANCH   5  12
HETATM   12  N   UNK N   1      21.477  20.816   2.289  0.00  0.00    -0.113 N 
HETATM   13  O   UNK N   1      20.838  21.347   1.268  0.00  0.00    -0.532 OA
HETATM   14  O   UNK N   1      22.384  21.417   2.782  0.00  0.00    -0.532 OA
ENDBRANCH   5  12
BRANCH   6  15
HETATM   15  O   UNK N   1      20.303  18.730   0.692  0.00  0.00    -0.356 OA
HETATM   16  H   UNK N   1      19.427  18.808   0.371  0.00  0.00     0.218 HD
ENDBRANCH   6  15
TORSDOF 4
ENDMDL
MODEL 2
REMARK VINA RESULT:      -5.5      1.445      3.154
REMARK  4 active torsions:
REMARK  status: ('A' for Active; 'I' for Inactive)
REMARK    1  A    between atoms: O_1  and  C_2 
REMARK    2  A    between atoms: C_4  and  N_12 
REMARK    3  A    between atoms: C_6  and  N_9 
REMARK    4  A    between atoms: C_7  and  O_8 
ROOT
HETATM    1  C   UNK N   1      21.049  20.207   2.691  0.00  0.00     0.103 A 
HETATM    2  C   UNK N   1      21.165  19.691   3.986  0.00  0.00     0.075 A 
HETATM    3  C   UNK N   1      20.945  18.329   4.226  0.00  0.00     0.108 A 
HETATM    4  C   UNK N   1      20.608  17.492   3.160  0.00  0.00     0.075 A 
HETATM    5  C   UNK N   1      20.485  17.983   1.856  0.00  0.00     0.141 A 
HETATM    6  C   UNK N   1      20.709  19.362   1.620  0.00  0.00     0.132 A 
ENDROOT
BRANCH   3   7
HETATM    7  N   UNK N   1      21.059  17.790   5.536  0.00  0.00    -0.116 N 
HETATM    8  O   UNK N   1      21.376  18.569   6.548  0.00  0.00    -0.532 OA
HETATM    9  O   UNK N   1      20.869  16.627   5.727  0.00  0.00    -0.532 OA
ENDBRANCH   3   7
BRANCH   1  10
HETATM   10  O   UNK N   1      21.264  21.517   2.480  0.00  0.00    -0.358 OA
HETATM   11  H   UNK N   1      22.139  21.852   2.466  0.00  0.00     0.217 HD
ENDBRANCH   1  10
BRANCH   5  12
HETATM   12  N   UNK N   1      20.138  17.072   0.812  0.00  0.00    -0.113 N 
HETATM   13  O   UNK N   1      19.560  15.920   1.082  0.00  0.00    -0.532 OA
HETATM   14  O   UNK N   1      20.372  17.351  -0.325  0.00  0.00    -0.532 OA
ENDBRANCH   5  12
BRANCH   6  15
HETATM   15  O   UNK N   1      20.602  19.879   0.382  0.00  0.00    -0.356 OA
HETATM   16  H   UNK N   1      21.374  20.080  -0.111  0.00  0.00     0.218 HD
ENDBRANCH   6  15
TORSDOF 4
ENDMDL
MODEL 3
REMARK VINA RESULT:      -5.4     12.297     13.522
REMARK  4 active torsions:
REMARK  status: ('A' for Active; 'I' for Inactive)
REMARK    1  A    between atoms: O_1  and  C_2 
REMARK    2  A    between atoms: C_4  and  N_12 
REMARK    3  A    between atoms: C_6  and  N_9 
REMARK    4  A    between atoms: C_7  and  O_8 
ROOT
HETATM    1  C   UNK N   1      32.022  20.265  -4.210  0.00  0.00     0.103 A 
HETATM    2  C   UNK N   1      31.207  20.228  -5.346  0.00  0.00     0.075 A 
HETATM    3  C   UNK N   1      30.202  21.186  -5.526  0.00  0.00     0.108 A 
HETATM    4  C   UNK N   1      30.020  22.177  -4.559  0.00  0.00     0.075 A 
HETATM    5  C   UNK N   1      30.821  22.236  -3.414  0.00  0.00     0.141 A 
HETATM    6  C   UNK N   1      31.837  21.264  -3.239  0.00  0.00     0.132 A 
ENDROOT
BRANCH   3   7
HETATM    7  N   UNK N   1      29.366  21.161  -6.675  0.00  0.00    -0.116 N 
HETATM    8  O   UNK N   1      29.346  20.103  -7.458  0.00  0.00    -0.532 OA
HETATM    9  O   UNK N   1      28.677  22.100  -6.938  0.00  0.00    -0.532 OA
ENDBRANCH   3   7
BRANCH   1  10
HETATM   10  O   UNK N   1      32.983  19.337  -4.054  0.00  0.00    -0.358 OA
HETATM   11  H   UNK N   1      33.817  19.453  -4.465  0.00  0.00     0.217 HD
ENDBRANCH   1  10
BRANCH   5  12
HETATM   12  N   UNK N   1      30.582  23.277  -2.465  0.00  0.00    -0.113 N 
HETATM   13  O   UNK N   1      30.605  24.542  -2.827  0.00  0.00    -0.532 OA
HETATM   14  O   UNK N   1      30.356  23.004  -1.325  0.00  0.00    -0.532 OA
ENDBRANCH   5  12
BRANCH   6  15
HETATM   15  O   UNK N   1      32.632  21.282  -2.152  0.00  0.00    -0.356 OA
HETATM   16  H   UNK N   1      33.402  20.749  -2.126  0.00  0.00     0.218 HD
ENDBRANCH   6  15
TORSDOF 4
ENDMDL
MODEL 4
REMARK VINA RESULT:      -5.4     21.427     22.518
REMARK  4 active torsions:
REMARK  status: ('A' for Active; 'I' for Inactive)
REMARK    1  A    between atoms: O_1  and  C_2 
REMARK    2  A    between atoms: C_4  and  N_12 
REMARK    3  A    between atoms: C_6  and  N_9 
REMARK    4  A    between atoms: C_7  and  O_8 
ROOT
HETATM    1  C   UNK N   1      44.573  22.221   3.643  0.00  0.00     0.103 A 
HETATM    2  C   UNK N   1      43.838  21.043   3.813  0.00  0.00     0.075 A 
HETATM    3  C   UNK N   1      42.590  20.894   3.196  0.00  0.00     0.108 A 
HETATM    4  C   UNK N   1      42.088  21.932   2.409  0.00  0.00     0.075 A 
HETATM    5  C   UNK N   1      42.803  23.120   2.222  0.00  0.00     0.141 A 
HETATM    6  C   UNK N   1      44.064  23.264   2.850  0.00  0.00     0.132 A 
ENDROOT
BRANCH   3   7
HETATM    7  N   UNK N   1      41.832  19.703   3.360  0.00  0.00    -0.116 N 
HETATM    8  O   UNK N   1      40.627  19.751   3.885  0.00  0.00    -0.532 OA
HETATM    9  O   UNK N   1      42.284  18.651   3.021  0.00  0.00    -0.532 OA
ENDBRANCH   3   7
BRANCH   1  10
HETATM   10  O   UNK N   1      45.770  22.347   4.243  0.00  0.00    -0.358 OA
HETATM   11  H   UNK N   1      46.441  22.867   3.846  0.00  0.00     0.217 HD
ENDBRANCH   1  10
BRANCH   5  12
HETATM   12  N   UNK N   1      42.229  24.141   1.405  0.00  0.00    -0.113 N 
HETATM   13  O   UNK N   1      40.948  24.431   1.480  0.00  0.00    -0.532 OA
HETATM   14  O   UNK N   1      42.916  24.746   0.638  0.00  0.00    -0.532 OA
ENDBRANCH   5  12
BRANCH   6  15
HETATM   15  O   UNK N   1      44.788  24.390   2.699  0.00  0.00    -0.356 OA
HETATM   16  H   UNK N   1      45.354  24.487   1.959  0.00  0.00     0.218 HD
ENDBRANCH   6  15
TORSDOF 4
ENDMDL
MODEL 5
REMARK VINA RESULT:      -5.3     11.280     12.327
REMARK  4 active torsions:
REMARK  status: ('A' for Active; 'I' for Inactive)
REMARK    1  A    between atoms: O_1  and  C_2 
REMARK    2  A    between atoms: C_4  and  N_12 
REMARK    3  A    between atoms: C_6  and  N_9 
REMARK    4  A    between atoms: C_7  and  O_8 
ROOT
HETATM    1  C   UNK N   1      31.933  17.179   5.813  0.00  0.00     0.103 A 
HETATM    2  C   UNK N   1      30.732  17.133   6.528  0.00  0.00     0.075 A 
HETATM    3  C   UNK N   1      30.714  17.417   7.899  0.00  0.00     0.108 A 
HETATM    4  C   UNK N   1      31.908  17.745   8.545  0.00  0.00     0.075 A 
HETATM    5  C   UNK N   1      33.123  17.798   7.854  0.00  0.00     0.141 A 
HETATM    6  C   UNK N   1      33.134  17.510   6.467  0.00  0.00     0.132 A 
ENDROOT
BRANCH   3   7
HETATM    7  N   UNK N   1      29.502  17.374   8.639  0.00  0.00    -0.116 N 
HETATM    8  O   UNK N   1      29.516  17.080   9.921  0.00  0.00    -0.532 OA
HETATM    9  O   UNK N   1      28.461  17.606   8.101  0.00  0.00    -0.532 OA
ENDBRANCH   3   7
BRANCH   1  10
HETATM   10  O   UNK N   1      31.931  16.904   4.498  0.00  0.00    -0.358 OA
HETATM   11  H   UNK N   1      32.350  17.488   3.896  0.00  0.00     0.217 HD
ENDBRANCH   1  10
BRANCH   5  12
HETATM   12  N   UNK N   1      34.306  18.141   8.577  0.00  0.00    -0.113 N 
HETATM   13  O   UNK N   1      34.701  17.427   9.609  0.00  0.00    -0.532 OA
HETATM   14  O   UNK N   1      34.953  19.089   8.246  0.00  0.00    -0.532 OA
ENDBRANCH   5  12
BRANCH   6  15
HETATM   15  O   UNK N   1      34.279  17.548   5.761  0.00  0.00    -0.356 OA
HETATM   16  H   UNK N   1      34.678  18.372   5.558  0.00  0.00     0.218 HD
ENDBRANCH   6  15
TORSDOF 4
ENDMDL
MODEL 6
REMARK VINA RESULT:      -5.3     12.913     14.607
REMARK  4 active torsions:
REMARK  status: ('A' for Active; 'I' for Inactive)
REMARK    1  A    between atoms: O_1  and  C_2 
REMARK    2  A    between atoms: C_4  and  N_12 
REMARK    3  A    between atoms: C_6  and  N_9 
REMARK    4  A    between atoms: C_7  and  O_8 
ROOT
HETATM    1  C   UNK N   1      34.539  18.132   8.441  0.00  0.00     0.103 A 
HETATM    2  C   UNK N   1      33.572  18.041   7.435  0.00  0.00     0.075 A 
HETATM    3  C   UNK N   1      32.767  16.900   7.329  0.00  0.00     0.108 A 
HETATM    4  C   UNK N   1      32.941  15.854   8.238  0.00  0.00     0.075 A 
HETATM    5  C   UNK N   1      33.901  15.919   9.253  0.00  0.00     0.141 A 
HETATM    6  C   UNK N   1      34.711  17.077   9.354  0.00  0.00     0.132 A 
ENDROOT
BRANCH   3   7
HETATM    7  N   UNK N   1      31.780  16.794   6.312  0.00  0.00    -0.116 N 
HETATM    8  O   UNK N   1      31.957  17.389   5.151  0.00  0.00    -0.532 OA
HETATM    9  O   UNK N   1      30.784  16.165   6.504  0.00  0.00    -0.532 OA
ENDBRANCH   3   7
BRANCH   1  10
HETATM   10  O   UNK N   1      35.303  19.235   8.528  0.00  0.00    -0.358 OA
HETATM   11  H   UNK N   1      34.903  20.072   8.660  0.00  0.00     0.217 HD
ENDBRANCH   1  10
BRANCH   5  12
HETATM   12  N   UNK N   1      34.025  14.813  10.148  0.00  0.00    -0.113 N 
HETATM   13  O   UNK N   1      34.056  14.995  11.451  0.00  0.00    -0.532 OA
HETATM   14  O   UNK N   1      34.103  13.702   9.715  0.00  0.00    -0.532 OA
ENDBRANCH   5  12
BRANCH   6  15
HETATM   15  O   UNK N   1      35.648  17.183  10.315  0.00  0.00    -0.356 OA
HETATM   16  H   UNK N   1      36.557  17.191  10.086  0.00  0.00     0.218 HD
ENDBRANCH   6  15
TORSDOF 4
ENDMDL
MODEL 7
REMARK VINA RESULT:      -5.2     11.954     12.801
REMARK  4 active torsions:
REMARK  status: ('A' for Active; 'I' for Inactive)
REMARK    1  A    between atoms: O_1  and  C_2 
REMARK    2  A    between atoms: C_4  and  N_12 
REMARK    3  A    between atoms: C_6  and  N_9 
REMARK    4  A    between atoms: C_7  and  O_8 
ROOT
HETATM    1  C   UNK N   1      31.263  17.412   7.594  0.00  0.00     0.103 A 
HETATM    2  C   UNK N   1      32.342  17.790   8.400  0.00  0.00     0.075 A 
HETATM    3  C   UNK N   1      33.640  17.820   7.876  0.00  0.00     0.108 A 
HETATM    4  C   UNK N   1      33.847  17.469   6.540  0.00  0.00     0.075 A 
HETATM    5  C   UNK N   1      32.786  17.087   5.712  0.00  0.00     0.141 A 
HETATM    6  C   UNK N   1      31.475  17.059   6.249  0.00  0.00     0.132 A 
ENDROOT
BRANCH   3   7
HETATM    7  N   UNK N   1      34.745  18.202   8.684  0.00  0.00    -0.116 N 
HETATM    8  O   UNK N   1      35.348  19.354   8.482  0.00  0.00    -0.532 OA
HETATM    9  O   UNK N   1      35.134  17.479   9.551  0.00  0.00    -0.532 OA
ENDBRANCH   3   7
BRANCH   1  10
HETATM   10  O   UNK N   1      30.024  17.389   8.114  0.00  0.00    -0.358 OA
HETATM   11  H   UNK N   1      29.364  17.963   7.778  0.00  0.00     0.217 HD
ENDBRANCH   1  10
BRANCH   5  12
HETATM   12  N   UNK N   1      33.068  16.741   4.356  0.00  0.00    -0.113 N 
HETATM   13  O   UNK N   1      33.819  15.700   4.064  0.00  0.00    -0.532 OA
HETATM   14  O   UNK N   1      32.620  17.400   3.467  0.00  0.00    -0.532 OA
ENDBRANCH   5  12
BRANCH   6  15
HETATM   15  O   UNK N   1      30.424  16.698   5.490  0.00  0.00    -0.356 OA
HETATM   16  H   UNK N   1      29.617  17.170   5.551  0.00  0.00     0.218 HD
ENDBRANCH   6  15
TORSDOF 4
ENDMDL
MODEL 8
REMARK VINA RESULT:      -5.1     10.334     11.556
REMARK  4 active torsions:
REMARK  status: ('A' for Active; 'I' for Inactive)
REMARK    1  A    between atoms: O_1  and  C_2 
REMARK    2  A    between atoms: C_4  and  N_12 
REMARK    3  A    between atoms: C_6  and  N_9 
REMARK    4  A    between atoms: C_7  and  O_8 
ROOT
HETATM    1  C   UNK N   1      30.586  16.882   6.155  0.00  0.00     0.103 A 
HETATM    2  C   UNK N   1      31.954  17.099   6.347  0.00  0.00     0.075 A 
HETATM    3  C   UNK N   1      32.425  17.613   7.562  0.00  0.00     0.108 A 
HETATM    4  C   UNK N   1      31.514  17.906   8.580  0.00  0.00     0.075 A 
HETATM    5  C   UNK N   1      30.141  17.698   8.413  0.00  0.00     0.141 A 
HETATM    6  C   UNK N   1      29.672  17.178   7.182  0.00  0.00     0.132 A 
ENDROOT
BRANCH   3   7
HETATM    7  N   UNK N   1      33.812  17.838   7.772  0.00  0.00    -0.116 N 
HETATM    8  O   UNK N   1      34.307  17.845   8.991  0.00  0.00    -0.532 OA
HETATM    9  O   UNK N   1      34.539  18.024   6.842  0.00  0.00    -0.532 OA
ENDBRANCH   3   7
BRANCH   1  10
HETATM   10  O   UNK N   1      30.153  16.389   4.982  0.00  0.00    -0.358 OA
HETATM   11  H   UNK N   1      30.599  16.609   4.188  0.00  0.00     0.217 HD
ENDBRANCH   1  10
BRANCH   5  12
HETATM   12  N   UNK N   1      29.265  18.019   9.495  0.00  0.00    -0.113 N 
HETATM   13  O   UNK N   1      28.101  17.421   9.626  0.00  0.00    -0.532 OA
HETATM   14  O   UNK N   1      29.587  18.843  10.298  0.00  0.00    -0.532 OA
ENDBRANCH   5  12
BRANCH   6  15
HETATM   15  O   UNK N   1      28.359  16.962   6.977  0.00  0.00    -0.356 OA
HETATM   16  H   UNK N   1      27.897  16.344   7.508  0.00  0.00     0.218 HD
ENDBRANCH   6  15
TORSDOF 4
ENDMDL
MODEL 9
REMARK VINA RESULT:      -5.0     13.702     15.184
REMARK  4 active torsions:
REMARK  status: ('A' for Active; 'I' for Inactive)
REMARK    1  A    between atoms: O_1  and  C_2 
REMARK    2  A    between atoms: C_4  and  N_12 
REMARK    3  A    between atoms: C_6  and  N_9 
REMARK    4  A    between atoms: C_7  and  O_8 
ROOT
HETATM    1  C   UNK N   1      32.991  14.373   8.939  0.00  0.00     0.103 A 
HETATM    2  C   UNK N   1      33.064  14.910   7.650  0.00  0.00     0.075 A 
HETATM    3  C   UNK N   1      33.964  15.944   7.365  0.00  0.00     0.108 A 
HETATM    4  C   UNK N   1      34.788  16.434   8.381  0.00  0.00     0.075 A 
HETATM    5  C   UNK N   1      34.734  15.914   9.679  0.00  0.00     0.141 A 
HETATM    6  C   UNK N   1      33.821  14.868   9.960  0.00  0.00     0.132 A 
ENDROOT
BRANCH   3   7
HETATM    7  N   UNK N   1      34.050  16.500   6.060  0.00  0.00    -0.116 N 
HETATM    8  O   UNK N   1      34.125  17.804   5.897  0.00  0.00    -0.532 OA
HETATM    9  O   UNK N   1      34.054  15.787   5.102  0.00  0.00    -0.532 OA
ENDBRANCH   3   7
BRANCH   1  10
HETATM   10  O   UNK N   1      32.120  13.381   9.194  0.00  0.00    -0.358 OA
HETATM   11  H   UNK N   1      31.199  13.532   9.110  0.00  0.00     0.217 HD
ENDBRANCH   1  10
BRANCH   5  12
HETATM   12  N   UNK N   1      35.605  16.461  10.670  0.00  0.00    -0.113 N 
HETATM   13  O   UNK N   1      36.887  16.163  10.686  0.00  0.00    -0.532 OA
HETATM   14  O   UNK N   1      35.171  17.201  11.501  0.00  0.00    -0.532 OA
ENDBRANCH   5  12
BRANCH   6  15
HETATM   15  O   UNK N   1      33.735  14.337  11.194  0.00  0.00    -0.356 OA
HETATM   16  H   UNK N   1      33.339  14.826  11.888  0.00  0.00     0.218 HD
ENDBRANCH   6  15
TORSDOF 4
ENDMDL
