REMARK  11 active torsions:
REMARK  status: ('A' for Active; 'I' for Inactive)
REMARK    1  A    between atoms: N_2  and  C_3 
REMARK    2  A    between atoms: N_2  and  C_26 
REMARK    3  A    between atoms: C_3  and  C_4 
REMARK    4  A    between atoms: C_4  and  C_5 
REMARK    5  A    between atoms: C_5  and  C_6 
REMARK    6  A    between atoms: C_6  and  C_7 
REMARK    7  A    between atoms: C_7  and  C_8 
REMARK    8  A    between atoms: C_8  and  O_9 
REMARK    9  A    between atoms: O_9  and  C_10 
REMARK   10  A    between atoms: C_17  and  C_18 
REMARK   11  A    between atoms: C_26  and  C_27 
ROOT
HETATM    1  C   UNK N   1      -1.591  -0.122  -0.230  0.00  0.00     0.071 A 
HETATM    2  C   UNK N   1      -1.270  -1.508  -0.277  0.00  0.00     0.038 A 
HETATM    3  C   UNK N   1      -2.281  -2.482  -0.168  0.00  0.00     0.018 A 
HETATM    4  C   UNK N   1      -3.595  -2.042  -0.020  0.00  0.00     0.011 A 
HETATM    5  C   UNK N   1      -3.902  -0.713   0.036  0.00  0.00     0.088 A 
HETATM    6  O   UNK N   1      -5.195  -0.549   0.164  0.00  0.00    -0.321 OA
HETATM    7  C   UNK N   1      -5.778  -1.736   0.192  0.00  0.00     0.155 A 
HETATM    8  C   UNK N   1      -4.795  -2.720   0.078  0.00  0.00     0.009 A 
HETATM    9  C   UNK N   1      -2.929   0.277  -0.061  0.00  0.00     0.074 A 
ENDROOT
BRANCH   1  10
HETATM   10  O   UNK N   1      -0.639   0.832  -0.369  0.00  0.00    -0.351 OA
BRANCH  10  11
HETATM   11  C   UNK N   1       0.672   0.555  -0.689  0.00  0.00     0.175 C 
BRANCH  11  12
HETATM   12  C   UNK N   1       1.587   1.070   0.404  0.00  0.00     0.027 C 
BRANCH  12  13
HETATM   13  C   UNK N   1       2.257  -0.097   1.102  0.00  0.00     0.002 C 
BRANCH  13  14
HETATM   14  C   UNK N   1       3.485  -0.525   0.323  0.00  0.00     0.002 C 
BRANCH  14  15
HETATM   15  C   UNK N   1       3.475  -2.029   0.141  0.00  0.00     0.030 C 
BRANCH  15  16
HETATM   16  C   UNK N   1       4.662  -2.461  -0.702  0.00  0.00     0.272 C 
BRANCH  16  17
HETATM   17  N   UNK N   1       5.878  -2.439   0.093  0.00  0.00     0.087 N 
HETATM   18  C   UNK N   1       6.473  -3.761  -0.021  0.00  0.00     0.310 C 
BRANCH  17  19
HETATM   19  C   UNK N   1       6.786  -1.487  -0.531  0.00  0.00     0.298 C 
BRANCH  19  20
HETATM   20  C   UNK N   1       7.870  -1.102   0.421  0.00  0.00    -0.007 C 
HETATM   21  C   UNK N   1       8.826  -0.262   0.037  0.00  0.00     0.008 C 
ENDBRANCH  19  20
ENDBRANCH  17  19
ENDBRANCH  16  17
ENDBRANCH  15  16
ENDBRANCH  14  15
ENDBRANCH  13  14
ENDBRANCH  12  13
ENDBRANCH  11  12
ENDBRANCH  10  11
ENDBRANCH   1  10
BRANCH   8  22
HETATM   22  C   UNK N   1      -5.038  -4.178   0.052  0.00  0.00    -0.023 A 
HETATM   23  C   UNK N   1      -3.972  -5.088  -0.024  0.00  0.00     0.013 A 
HETATM   24  C   UNK N   1      -4.220  -6.464  -0.052  0.00  0.00     0.020 A 
HETATM   25  C   UNK N   1      -5.533  -6.940  -0.009  0.00  0.00     0.011 A 
HETATM   26 Br   UNK N   1      -5.872  -8.815  -0.049  0.00  0.00    -0.051 Br
HETATM   27  C   UNK N   1      -6.599  -6.041   0.063  0.00  0.00     0.020 A 
HETATM   28  C   UNK N   1      -6.353  -4.666   0.096  0.00  0.00     0.013 A 
ENDBRANCH   8  22
TORSDOF 11
