MODEL 1
REMARK VINA RESULT:      -6.1      0.000      0.000
REMARK  11 active torsions:
REMARK  status: ('A' for Active; 'I' for Inactive)
REMARK    1  A    between atoms: C_6  and  C_2 
REMARK    2  A    between atoms: O_15  and  C_2 
REMARK    3  A    between atoms: C_5  and  C_3 
REMARK    4  A    between atoms: O_21  and  C_3 
REMARK    5  A    between atoms: O_16  and  C_4 
REMARK    6  A    between atoms: C_10  and  C_5 
REMARK    7  A    between atoms: C_5  and  N_12 
REMARK    8  A    between atoms: C_7  and  N_13 
REMARK    9  A    between atoms: C_9  and  O_18 
REMARK   10  A    between atoms: O_20  and  C_10 
REMARK   11  A    between atoms: C_11  and  O_21 
ROOT
HETATM    1  C   UNK N   1      32.391  15.551   4.649  0.00  0.00     0.179 C 
HETATM    2  C   UNK N   1      30.890  17.133   6.555  0.00  0.00     0.169 C 
HETATM    3  C   UNK N   1      31.670  16.814   4.147  0.00  0.00     0.180 C 
HETATM    4  C   UNK N   1      30.463  17.075   5.061  0.00  0.00     0.177 C 
HETATM    5  C   UNK N   1      31.725  15.837   6.869  0.00  0.00     0.285 C 
HETATM    6  O   UNK N   1      32.541  17.908   4.177  0.00  0.00    -0.390 OA
HETATM    7  O   UNK N   1      32.825  15.762   5.976  0.00  0.00    -0.349 OA
HETATM    8  H   UNK N   1      33.218  18.602   4.192  0.00  0.00     0.210 HD
ENDROOT
BRANCH   1   9
HETATM    9  C   UNK N   1      33.617  15.224   3.802  0.00  0.00     0.198 C 
BRANCH   9  10
HETATM   10  O   UNK N   1      33.443  15.668   2.491  0.00  0.00    -0.398 OA
HETATM   11  H   UNK N   1      34.109  15.953   1.847  0.00  0.00     0.209 HD
ENDBRANCH   9  10
ENDBRANCH   1   9
BRANCH   4  12
HETATM   12  O   UNK N   1      29.823  18.250   4.660  0.00  0.00    -0.391 OA
HETATM   13  H   UNK N   1      30.297  19.000   4.268  0.00  0.00     0.210 HD
ENDBRANCH   4  12
BRANCH   2  14
HETATM   14  N   UNK N   1      29.707  17.171   7.405  0.00  0.00    -0.363 N 
HETATM   15  C   UNK N   1      29.653  17.722   8.570  0.00  0.00     0.107 C 
HETATM   16  C   UNK N   1      28.369  17.717   9.322  0.00  0.00     0.097 C 
ATOM     17  HN  UNK N   1      28.858  16.730   7.051  1.00  0.00     0.162 HD
BRANCH  15  18
HETATM   18  O   UNK N   1      30.744  18.282   9.131  0.00  0.00    -0.350 OA
HETATM   19  H   UNK N   1      31.372  18.132   9.811  0.00  0.00     0.219 HD
ENDBRANCH  15  18
ENDBRANCH   2  14
BRANCH   5  20
HETATM   20  O   UNK N   1      32.279  15.681   8.172  0.00  0.00    -0.356 OA
BRANCH  20  21
HETATM   21  C   UNK N   1      33.651  15.953   8.264  0.00  0.00     0.206 C 
BRANCH  21  22
HETATM   22  C   UNK N   1      33.875  17.279   8.978  0.00  0.00     0.197 C 
BRANCH  22  23
HETATM   23  C   UNK N   1      34.547  18.241   8.040  0.00  0.00     0.165 C 
HETATM   24  O   UNK N   1      35.241  19.152   8.469  0.00  0.00    -0.648 OA
BRANCH  23  25
HETATM   25  O   UNK N   1      34.386  18.103   6.711  0.00  0.00    -0.775 OA
HETATM   26  H   UNK N   1      33.529  18.050   6.336  0.00  0.00     0.167 HD
ENDBRANCH  23  25
ENDBRANCH  22  23
BRANCH  22  27
HETATM   27  N   UNK N   1      34.691  17.064  10.166  0.00  0.00    -0.416 N 
HETATM   28  H   UNK N   1      35.436  17.718  10.405  0.00  0.00     0.150 HD
HETATM   29  H   UNK N   1      34.516  16.254  10.762  0.00  0.00     0.150 HD
ENDBRANCH  22  27
ENDBRANCH  21  22
ENDBRANCH  20  21
ENDBRANCH   5  20
TORSDOF 11
ENDMDL
MODEL 2
REMARK VINA RESULT:      -5.5      1.596      4.293
REMARK  11 active torsions:
REMARK  status: ('A' for Active; 'I' for Inactive)
REMARK    1  A    between atoms: C_6  and  C_2 
REMARK    2  A    between atoms: O_15  and  C_2 
REMARK    3  A    between atoms: C_5  and  C_3 
REMARK    4  A    between atoms: O_21  and  C_3 
REMARK    5  A    between atoms: O_16  and  C_4 
REMARK    6  A    between atoms: C_10  and  C_5 
REMARK    7  A    between atoms: C_5  and  N_12 
REMARK    8  A    between atoms: C_7  and  N_13 
REMARK    9  A    between atoms: C_9  and  O_18 
REMARK   10  A    between atoms: O_20  and  C_10 
REMARK   11  A    between atoms: C_11  and  O_21 
ROOT
HETATM    1  C   UNK N   1      29.463  18.001   8.012  0.00  0.00     0.179 C 
HETATM    2  C   UNK N   1      30.807  16.598   5.863  0.00  0.00     0.169 C 
HETATM    3  C   UNK N   1      28.804  17.985   6.621  0.00  0.00     0.180 C 
HETATM    4  C   UNK N   1      29.910  17.834   5.566  0.00  0.00     0.177 C 
HETATM    5  C   UNK N   1      31.289  16.702   7.358  0.00  0.00     0.285 C 
HETATM    6  O   UNK N   1      27.903  16.919   6.529  0.00  0.00    -0.390 OA
HETATM    7  O   UNK N   1      30.158  16.788   8.209  0.00  0.00    -0.349 OA
HETATM    8  H   UNK N   1      27.272  16.183   6.563  0.00  0.00     0.210 HD
ENDROOT
BRANCH   1   9
HETATM    9  C   UNK N   1      28.430  18.135   9.126  0.00  0.00     0.198 C 
BRANCH   9  10
HETATM   10  O   UNK N   1      27.378  18.961   8.726  0.00  0.00    -0.398 OA
HETATM   11  H   UNK N   1      26.987  19.720   9.186  0.00  0.00     0.209 HD
ENDBRANCH   9  10
ENDBRANCH   1   9
BRANCH   4  12
HETATM   12  O   UNK N   1      29.334  17.760   4.296  0.00  0.00    -0.391 OA
HETATM   13  H   UNK N   1      28.880  16.967   3.969  0.00  0.00     0.210 HD
ENDBRANCH   4  12
BRANCH   2  14
HETATM   14  N   UNK N   1      31.962  16.603   4.975  0.00  0.00    -0.363 N 
HETATM   15  C   UNK N   1      32.163  15.756   4.022  0.00  0.00     0.107 C 
HETATM   16  C   UNK N   1      33.373  15.893   3.166  0.00  0.00     0.097 C 
ATOM     17  HN  UNK N   1      32.663  17.330   5.116  1.00  0.00     0.162 HD
BRANCH  15  18
HETATM   18  O   UNK N   1      31.311  14.734   3.803  0.00  0.00    -0.350 OA
HETATM   19  H   UNK N   1      30.924  14.001   4.240  0.00  0.00     0.219 HD
ENDBRANCH  15  18
ENDBRANCH   2  14
BRANCH   5  20
HETATM   20  O   UNK N   1      32.089  15.650   7.890  0.00  0.00    -0.356 OA
BRANCH  20  21
HETATM   21  C   UNK N   1      33.455  15.947   8.000  0.00  0.00     0.206 C 
BRANCH  21  22
HETATM   22  C   UNK N   1      33.646  17.259   8.748  0.00  0.00     0.197 C 
BRANCH  22  23
HETATM   23  C   UNK N   1      34.414  18.217   7.881  0.00  0.00     0.165 C 
HETATM   24  O   UNK N   1      35.059  19.130   8.377  0.00  0.00    -0.648 OA
BRANCH  23  25
HETATM   25  O   UNK N   1      34.394  18.072   6.543  0.00  0.00    -0.775 OA
HETATM   26  H   UNK N   1      35.186  17.912   6.067  0.00  0.00     0.167 HD
ENDBRANCH  23  25
ENDBRANCH  22  23
BRANCH  22  27
HETATM   27  N   UNK N   1      34.357  17.013   9.996  0.00  0.00    -0.416 N 
HETATM   28  H   UNK N   1      35.170  16.398  10.014  0.00  0.00     0.150 HD
HETATM   29  H   UNK N   1      34.038  17.457  10.858  0.00  0.00     0.150 HD
ENDBRANCH  22  27
ENDBRANCH  21  22
ENDBRANCH  20  21
ENDBRANCH   5  20
TORSDOF 11
ENDMDL
MODEL 3
REMARK VINA RESULT:      -5.2     11.401     12.929
REMARK  11 active torsions:
REMARK  status: ('A' for Active; 'I' for Inactive)
REMARK    1  A    between atoms: C_6  and  C_2 
REMARK    2  A    between atoms: O_15  and  C_2 
REMARK    3  A    between atoms: C_5  and  C_3 
REMARK    4  A    between atoms: O_21  and  C_3 
REMARK    5  A    between atoms: O_16  and  C_4 
REMARK    6  A    between atoms: C_10  and  C_5 
REMARK    7  A    between atoms: C_5  and  N_12 
REMARK    8  A    between atoms: C_7  and  N_13 
REMARK    9  A    between atoms: C_9  and  O_18 
REMARK   10  A    between atoms: O_20  and  C_10 
REMARK   11  A    between atoms: C_11  and  O_21 
ROOT
HETATM    1  C   UNK N   1      20.883  18.788   3.108  0.00  0.00     0.179 C 
HETATM    2  C   UNK N   1      20.048  16.103   2.411  0.00  0.00     0.169 C 
HETATM    3  C   UNK N   1      19.840  18.611   1.990  0.00  0.00     0.180 C 
HETATM    4  C   UNK N   1      20.055  17.234   1.343  0.00  0.00     0.177 C 
HETATM    5  C   UNK N   1      21.067  16.501   3.541  0.00  0.00     0.285 C 
HETATM    6  O   UNK N   1      18.548  18.695   2.522  0.00  0.00    -0.390 OA
HETATM    7  O   UNK N   1      20.709  17.768   4.069  0.00  0.00    -0.349 OA
HETATM    8  H   UNK N   1      17.692  18.805   2.963  0.00  0.00     0.210 HD
ENDROOT
BRANCH   1   9
HETATM    9  C   UNK N   1      20.732  20.130   3.816  0.00  0.00     0.198 C 
BRANCH   9  10
HETATM   10  O   UNK N   1      20.729  21.177   2.894  0.00  0.00    -0.398 OA
HETATM   11  H   UNK N   1      20.436  21.177   1.969  0.00  0.00     0.209 HD
ENDBRANCH   9  10
ENDBRANCH   1   9
BRANCH   4  12
HETATM   12  O   UNK N   1      19.084  17.025   0.362  0.00  0.00    -0.391 OA
HETATM   13  H   UNK N   1      18.651  17.752  -0.114  0.00  0.00     0.210 HD
ENDBRANCH   4  12
BRANCH   2  14
HETATM   14  N   UNK N   1      20.460  14.846   1.799  0.00  0.00    -0.363 N 
HETATM   15  C   UNK N   1      19.658  13.986   1.268  0.00  0.00     0.107 C 
HETATM   16  C   UNK N   1      20.215  12.753   0.648  0.00  0.00     0.097 C 
ATOM     17  HN  UNK N   1      21.457  14.631   1.790  1.00  0.00     0.162 HD
BRANCH  15  18
HETATM   18  O   UNK N   1      18.322  14.171   1.285  0.00  0.00    -0.350 OA
HETATM   19  H   UNK N   1      17.568  13.986   1.809  0.00  0.00     0.219 HD
ENDBRANCH  15  18
ENDBRANCH   2  14
BRANCH   5  20
HETATM   20  O   UNK N   1      21.203  15.642   4.670  0.00  0.00    -0.356 OA
BRANCH  20  21
HETATM   21  C   UNK N   1      20.118  15.661   5.558  0.00  0.00     0.206 C 
BRANCH  21  22
HETATM   22  C   UNK N   1      20.615  15.566   6.993  0.00  0.00     0.197 C 
BRANCH  22  23
HETATM   23  C   UNK N   1      20.763  16.949   7.561  0.00  0.00     0.165 C 
HETATM   24  O   UNK N   1      20.372  17.207   8.690  0.00  0.00    -0.648 OA
BRANCH  23  25
HETATM   25  O   UNK N   1      21.332  17.919   6.820  0.00  0.00    -0.775 OA
HETATM   26  H   UNK N   1      21.292  17.892   5.884  0.00  0.00     0.167 HD
ENDBRANCH  23  25
ENDBRANCH  22  23
BRANCH  22  27
HETATM   27  N   UNK N   1      21.888  14.858   7.026  0.00  0.00    -0.416 N 
HETATM   28  H   UNK N   1      22.622  15.146   7.673  0.00  0.00     0.150 HD
HETATM   29  H   UNK N   1      22.048  14.071   6.396  0.00  0.00     0.150 HD
ENDBRANCH  22  27
ENDBRANCH  21  22
ENDBRANCH  20  21
ENDBRANCH   5  20
TORSDOF 11
ENDMDL
MODEL 4
REMARK VINA RESULT:      -5.2      6.108      8.970
REMARK  11 active torsions:
REMARK  status: ('A' for Active; 'I' for Inactive)
REMARK    1  A    between atoms: C_6  and  C_2 
REMARK    2  A    between atoms: O_15  and  C_2 
REMARK    3  A    between atoms: C_5  and  C_3 
REMARK    4  A    between atoms: O_21  and  C_3 
REMARK    5  A    between atoms: O_16  and  C_4 
REMARK    6  A    between atoms: C_10  and  C_5 
REMARK    7  A    between atoms: C_5  and  N_12 
REMARK    8  A    between atoms: C_7  and  N_13 
REMARK    9  A    between atoms: C_9  and  O_18 
REMARK   10  A    between atoms: O_20  and  C_10 
REMARK   11  A    between atoms: C_11  and  O_21 
ROOT
HETATM    1  C   UNK N   1      36.021  14.005  14.341  0.00  0.00     0.179 C 
HETATM    2  C   UNK N   1      35.340  11.755  12.648  0.00  0.00     0.169 C 
HETATM    3  C   UNK N   1      36.528  12.608  14.739  0.00  0.00     0.180 C 
HETATM    4  C   UNK N   1      35.553  11.563  14.177  0.00  0.00     0.177 C 
HETATM    5  C   UNK N   1      34.956  13.261  12.401  0.00  0.00     0.285 C 
HETATM    6  O   UNK N   1      37.810  12.397  14.220  0.00  0.00    -0.390 OA
HETATM    7  O   UNK N   1      35.972  14.097  12.933  0.00  0.00    -0.349 OA
HETATM    8  H   UNK N   1      38.709  12.348  13.858  0.00  0.00     0.210 HD
ENDROOT
BRANCH   1   9
HETATM    9  C   UNK N   1      36.943  15.109  14.850  0.00  0.00     0.198 C 
BRANCH   9  10
HETATM   10  O   UNK N   1      37.771  14.629  15.865  0.00  0.00    -0.398 OA
HETATM   11  H   UNK N   1      37.854  14.933  16.783  0.00  0.00     0.209 HD
ENDBRANCH   9  10
ENDBRANCH   1   9
BRANCH   4  12
HETATM   12  O   UNK N   1      36.021  10.282  14.476  0.00  0.00    -0.391 OA
HETATM   13  H   UNK N   1      36.898  10.118  14.857  0.00  0.00     0.210 HD
ENDBRANCH   4  12
BRANCH   2  14
HETATM   14  N   UNK N   1      34.260  10.892  12.188  0.00  0.00    -0.363 N 
HETATM   15  C   UNK N   1      34.151  10.422  10.991  0.00  0.00     0.107 C 
HETATM   16  C   UNK N   1      33.011   9.523  10.661  0.00  0.00     0.097 C 
ATOM     17  HN  UNK N   1      33.538  10.640  12.862  1.00  0.00     0.162 HD
BRANCH  15  18
HETATM   18  O   UNK N   1      35.036  10.747  10.027  0.00  0.00    -0.350 OA
HETATM   19  H   UNK N   1      35.083  11.182   9.198  0.00  0.00     0.219 HD
ENDBRANCH  15  18
ENDBRANCH   2  14
BRANCH   5  20
HETATM   20  O   UNK N   1      34.760  13.703  11.061  0.00  0.00    -0.356 OA
BRANCH  20  21
HETATM   21  C   UNK N   1      33.991  14.868  10.933  0.00  0.00     0.206 C 
BRANCH  21  22
HETATM   22  C   UNK N   1      34.533  15.732   9.802  0.00  0.00     0.197 C 
BRANCH  22  23
HETATM   23  C   UNK N   1      35.648  16.592  10.325  0.00  0.00     0.165 C 
HETATM   24  O   UNK N   1      35.621  17.806  10.183  0.00  0.00    -0.648 OA
BRANCH  23  25
HETATM   25  O   UNK N   1      36.691  16.024  10.959  0.00  0.00    -0.775 OA
HETATM   26  H   UNK N   1      36.637  15.804  11.868  0.00  0.00     0.167 HD
ENDBRANCH  23  25
ENDBRANCH  22  23
BRANCH  22  27
HETATM   27  N   UNK N   1      33.461  16.554   9.257  0.00  0.00    -0.416 N 
HETATM   28  H   UNK N   1      33.627  17.141   8.439  0.00  0.00     0.150 HD
HETATM   29  H   UNK N   1      32.540  16.545   9.696  0.00  0.00     0.150 HD
ENDBRANCH  22  27
ENDBRANCH  21  22
ENDBRANCH  20  21
ENDBRANCH   5  20
TORSDOF 11
ENDMDL
MODEL 5
REMARK VINA RESULT:      -5.2      3.821      6.266
REMARK  11 active torsions:
REMARK  status: ('A' for Active; 'I' for Inactive)
REMARK    1  A    between atoms: C_6  and  C_2 
REMARK    2  A    between atoms: O_15  and  C_2 
REMARK    3  A    between atoms: C_5  and  C_3 
REMARK    4  A    between atoms: O_21  and  C_3 
REMARK    5  A    between atoms: O_16  and  C_4 
REMARK    6  A    between atoms: C_10  and  C_5 
REMARK    7  A    between atoms: C_5  and  N_12 
REMARK    8  A    between atoms: C_7  and  N_13 
REMARK    9  A    between atoms: C_9  and  O_18 
REMARK   10  A    between atoms: O_20  and  C_10 
REMARK   11  A    between atoms: C_11  and  O_21 
ROOT
HETATM    1  C   UNK N   1      27.092  20.410   5.766  0.00  0.00     0.179 C 
HETATM    2  C   UNK N   1      27.365  17.826   4.486  0.00  0.00     0.169 C 
HETATM    3  C   UNK N   1      25.922  19.886   4.916  0.00  0.00     0.180 C 
HETATM    4  C   UNK N   1      26.489  18.941   3.846  0.00  0.00     0.177 C 
HETATM    5  C   UNK N   1      28.421  18.522   5.422  0.00  0.00     0.285 C 
HETATM    6  O   UNK N   1      25.009  19.202   5.726  0.00  0.00    -0.390 OA
HETATM    7  O   UNK N   1      27.744  19.319   6.381  0.00  0.00    -0.349 OA
HETATM    8  H   UNK N   1      24.410  18.780   6.362  0.00  0.00     0.210 HD
ENDROOT
BRANCH   1   9
HETATM    9  C   UNK N   1      26.615  21.351   6.868  0.00  0.00     0.198 C 
BRANCH   9  10
HETATM   10  O   UNK N   1      26.206  20.629   7.990  0.00  0.00    -0.398 OA
HETATM   11  H   UNK N   1      25.336  20.602   8.417  0.00  0.00     0.209 HD
ENDBRANCH   9  10
ENDBRANCH   1   9
BRANCH   4  12
HETATM   12  O   UNK N   1      25.439  18.406   3.095  0.00  0.00    -0.391 OA
HETATM   13  H   UNK N   1      25.186  18.751   2.224  0.00  0.00     0.210 HD
ENDBRANCH   4  12
BRANCH   2  14
HETATM   14  N   UNK N   1      28.053  17.079   3.440  0.00  0.00    -0.363 N 
HETATM   15  C   UNK N   1      28.338  15.822   3.499  0.00  0.00     0.107 C 
HETATM   16  C   UNK N   1      29.018  15.173   2.345  0.00  0.00     0.097 C 
ATOM     17  HN  UNK N   1      28.328  17.587   2.600  1.00  0.00     0.162 HD
BRANCH  15  18
HETATM   18  O   UNK N   1      28.055  15.090   4.595  0.00  0.00    -0.350 OA
HETATM   19  H   UNK N   1      27.503  14.388   4.880  0.00  0.00     0.219 HD
ENDBRANCH  15  18
ENDBRANCH   2  14
BRANCH   5  20
HETATM   20  O   UNK N   1      29.314  17.701   6.169  0.00  0.00    -0.356 OA
BRANCH  20  21
HETATM   21  C   UNK N   1      28.736  17.052   7.269  0.00  0.00     0.206 C 
BRANCH  21  22
HETATM   22  C   UNK N   1      29.596  17.253   8.508  0.00  0.00     0.197 C 
BRANCH  22  23
HETATM   23  C   UNK N   1      28.920  18.230   9.429  0.00  0.00     0.165 C 
HETATM   24  O   UNK N   1      29.563  18.848  10.265  0.00  0.00    -0.648 OA
BRANCH  23  25
HETATM   25  O   UNK N   1      27.592  18.429   9.335  0.00  0.00    -0.775 OA
HETATM   26  H   UNK N   1      27.181  18.529   8.499  0.00  0.00     0.167 HD
ENDBRANCH  23  25
ENDBRANCH  22  23
BRANCH  22  27
HETATM   27  N   UNK N   1      30.912  17.741   8.117  0.00  0.00    -0.416 N 
HETATM   28  H   UNK N   1      31.291  18.592   8.532  0.00  0.00     0.150 HD
HETATM   29  H   UNK N   1      31.458  17.228   7.423  0.00  0.00     0.150 HD
ENDBRANCH  22  27
ENDBRANCH  21  22
ENDBRANCH  20  21
ENDBRANCH   5  20
TORSDOF 11
ENDMDL
MODEL 6
REMARK VINA RESULT:      -5.2     11.389     12.754
REMARK  11 active torsions:
REMARK  status: ('A' for Active; 'I' for Inactive)
REMARK    1  A    between atoms: C_6  and  C_2 
REMARK    2  A    between atoms: O_15  and  C_2 
REMARK    3  A    between atoms: C_5  and  C_3 
REMARK    4  A    between atoms: O_21  and  C_3 
REMARK    5  A    between atoms: O_16  and  C_4 
REMARK    6  A    between atoms: C_10  and  C_5 
REMARK    7  A    between atoms: C_5  and  N_12 
REMARK    8  A    between atoms: C_7  and  N_13 
REMARK    9  A    between atoms: C_9  and  O_18 
REMARK   10  A    between atoms: O_20  and  C_10 
REMARK   11  A    between atoms: C_11  and  O_21 
ROOT
HETATM    1  C   UNK N   1      21.286  18.297   3.334  0.00  0.00     0.179 C 
HETATM    2  C   UNK N   1      20.188  15.885   4.503  0.00  0.00     0.169 C 
HETATM    3  C   UNK N   1      20.166  17.560   2.579  0.00  0.00     0.180 C 
HETATM    4  C   UNK N   1      20.226  16.073   2.960  0.00  0.00     0.177 C 
HETATM    5  C   UNK N   1      21.304  16.802   5.128  0.00  0.00     0.285 C 
HETATM    6  O   UNK N   1      18.921  18.095   2.926  0.00  0.00    -0.390 OA
HETATM    7  O   UNK N   1      21.087  18.144   4.724  0.00  0.00    -0.349 OA
HETATM    8  H   UNK N   1      18.105  18.549   3.190  0.00  0.00     0.210 HD
ENDROOT
BRANCH   1   9
HETATM    9  C   UNK N   1      21.292  19.790   3.023  0.00  0.00     0.198 C 
BRANCH   9  10
HETATM   10  O   UNK N   1      20.442  20.477   3.891  0.00  0.00    -0.398 OA
HETATM   11  H   UNK N   1      20.662  20.997   4.680  0.00  0.00     0.209 HD
ENDBRANCH   9  10
ENDBRANCH   1   9
BRANCH   4  12
HETATM   12  O   UNK N   1      19.182  15.390   2.331  0.00  0.00    -0.391 OA
HETATM   13  H   UNK N   1      18.558  15.824   1.728  0.00  0.00     0.210 HD
ENDBRANCH   4  12
BRANCH   2  14
HETATM   14  N   UNK N   1      20.456  14.491   4.836  0.00  0.00    -0.363 N 
HETATM   15  C   UNK N   1      19.554  13.579   4.970  0.00  0.00     0.107 C 
HETATM   16  C   UNK N   1      19.967  12.183   5.282  0.00  0.00     0.097 C 
ATOM     17  HN  UNK N   1      21.429  14.218   4.973  1.00  0.00     0.162 HD
BRANCH  15  18
HETATM   18  O   UNK N   1      18.242  13.869   4.856  0.00  0.00    -0.350 OA
HETATM   19  H   UNK N   1      17.669  14.553   4.569  0.00  0.00     0.219 HD
ENDBRANCH  15  18
ENDBRANCH   2  14
BRANCH   5  20
HETATM   20  O   UNK N   1      21.436  16.846   6.545  0.00  0.00    -0.356 OA
BRANCH  20  21
HETATM   21  C   UNK N   1      20.640  17.810   7.180  0.00  0.00     0.206 C 
BRANCH  21  22
HETATM   22  C   UNK N   1      19.775  17.155   8.248  0.00  0.00     0.197 C 
BRANCH  22  23
HETATM   23  C   UNK N   1      19.343  18.194   9.243  0.00  0.00     0.165 C 
HETATM   24  O   UNK N   1      20.140  19.015   9.675  0.00  0.00    -0.648 OA
BRANCH  23  25
HETATM   25  O   UNK N   1      18.066  18.225   9.666  0.00  0.00    -0.775 OA
HETATM   26  H   UNK N   1      17.488  18.911   9.393  0.00  0.00     0.167 HD
ENDBRANCH  23  25
ENDBRANCH  22  23
BRANCH  22  27
HETATM   27  N   UNK N   1      20.527  16.094   8.905  0.00  0.00    -0.416 N 
HETATM   28  H   UNK N   1      21.477  16.263   9.234  0.00  0.00     0.150 HD
HETATM   29  H   UNK N   1      20.101  15.176   9.035  0.00  0.00     0.150 HD
ENDBRANCH  22  27
ENDBRANCH  21  22
ENDBRANCH  20  21
ENDBRANCH   5  20
TORSDOF 11
ENDMDL
MODEL 7
REMARK VINA RESULT:      -5.2      2.671      6.405
REMARK  11 active torsions:
REMARK  status: ('A' for Active; 'I' for Inactive)
REMARK    1  A    between atoms: C_6  and  C_2 
REMARK    2  A    between atoms: O_15  and  C_2 
REMARK    3  A    between atoms: C_5  and  C_3 
REMARK    4  A    between atoms: O_21  and  C_3 
REMARK    5  A    between atoms: O_16  and  C_4 
REMARK    6  A    between atoms: C_10  and  C_5 
REMARK    7  A    between atoms: C_5  and  N_12 
REMARK    8  A    between atoms: C_7  and  N_13 
REMARK    9  A    between atoms: C_9  and  O_18 
REMARK   10  A    between atoms: O_20  and  C_10 
REMARK   11  A    between atoms: C_11  and  O_21 
ROOT
HETATM    1  C   UNK N   1      29.425  17.250   8.451  0.00  0.00     0.179 C 
HETATM    2  C   UNK N   1      31.319  17.009   6.273  0.00  0.00     0.169 C 
HETATM    3  C   UNK N   1      30.894  16.943   8.788  0.00  0.00     0.180 C 
HETATM    4  C   UNK N   1      31.520  16.210   7.592  0.00  0.00     0.177 C 
HETATM    5  C   UNK N   1      29.789  17.354   6.147  0.00  0.00     0.285 C 
HETATM    6  O   UNK N   1      31.588  18.132   9.038  0.00  0.00    -0.390 OA
HETATM    7  O   UNK N   1      29.374  18.068   7.300  0.00  0.00    -0.349 OA
HETATM    8  H   UNK N   1      31.982  18.996   9.235  0.00  0.00     0.210 HD
ENDROOT
BRANCH   1   9
HETATM    9  C   UNK N   1      28.726  17.994   9.585  0.00  0.00     0.198 C 
BRANCH   9  10
HETATM   10  O   UNK N   1      27.359  18.110   9.330  0.00  0.00    -0.398 OA
HETATM   11  H   UNK N   1      26.662  17.441   9.413  0.00  0.00     0.209 HD
ENDBRANCH   9  10
ENDBRANCH   1   9
BRANCH   4  12
HETATM   12  O   UNK N   1      32.871  15.969   7.850  0.00  0.00    -0.391 OA
HETATM   13  H   UNK N   1      33.240  15.950   8.747  0.00  0.00     0.210 HD
ENDBRANCH   4  12
BRANCH   2  14
HETATM   14  N   UNK N   1      31.733  16.197   5.136  0.00  0.00    -0.363 N 
HETATM   15  C   UNK N   1      32.106  16.664   3.992  0.00  0.00     0.107 C 
HETATM   16  C   UNK N   1      32.535  15.722   2.923  0.00  0.00     0.097 C 
ATOM     17  HN  UNK N   1      31.729  15.184   5.254  1.00  0.00     0.162 HD
BRANCH  15  18
HETATM   18  O   UNK N   1      32.091  17.988   3.738  0.00  0.00    -0.350 OA
HETATM   19  H   UNK N   1      32.469  18.624   3.163  0.00  0.00     0.219 HD
ENDBRANCH  15  18
ENDBRANCH   2  14
BRANCH   5  20
HETATM   20  O   UNK N   1      29.356  18.136   5.038  0.00  0.00    -0.356 OA
BRANCH  20  21
HETATM   21  C   UNK N   1      28.000  18.491   5.062  0.00  0.00     0.206 C 
BRANCH  21  22
HETATM   22  C   UNK N   1      27.845  19.984   4.808  0.00  0.00     0.197 C 
BRANCH  22  23
HETATM   23  C   UNK N   1      27.328  20.648   6.053  0.00  0.00     0.165 C 
HETATM   24  O   UNK N   1      27.169  21.860   6.095  0.00  0.00    -0.648 OA
BRANCH  23  25
HETATM   25  O   UNK N   1      27.034  19.905   7.136  0.00  0.00    -0.775 OA
HETATM   26  H   UNK N   1      27.118  20.263   7.999  0.00  0.00     0.167 HD
ENDBRANCH  23  25
ENDBRANCH  22  23
BRANCH  22  27
HETATM   27  N   UNK N   1      26.932  20.199   3.693  0.00  0.00    -0.416 N 
HETATM   28  H   UNK N   1      25.926  20.081   3.819  0.00  0.00     0.150 HD
HETATM   29  H   UNK N   1      27.300  20.469   2.780  0.00  0.00     0.150 HD
ENDBRANCH  22  27
ENDBRANCH  21  22
ENDBRANCH  20  21
ENDBRANCH   5  20
TORSDOF 11
ENDMDL
MODEL 8
REMARK VINA RESULT:      -5.1      1.871      4.574
REMARK  11 active torsions:
REMARK  status: ('A' for Active; 'I' for Inactive)
REMARK    1  A    between atoms: C_6  and  C_2 
REMARK    2  A    between atoms: O_15  and  C_2 
REMARK    3  A    between atoms: C_5  and  C_3 
REMARK    4  A    between atoms: O_21  and  C_3 
REMARK    5  A    between atoms: O_16  and  C_4 
REMARK    6  A    between atoms: C_10  and  C_5 
REMARK    7  A    between atoms: C_5  and  N_12 
REMARK    8  A    between atoms: C_7  and  N_13 
REMARK    9  A    between atoms: C_9  and  O_18 
REMARK   10  A    between atoms: O_20  and  C_10 
REMARK   11  A    between atoms: C_11  and  O_21 
ROOT
HETATM    1  C   UNK N   1      32.137  17.416   5.102  0.00  0.00     0.179 C 
HETATM    2  C   UNK N   1      33.532  16.399   7.428  0.00  0.00     0.169 C 
HETATM    3  C   UNK N   1      33.327  16.466   4.885  0.00  0.00     0.180 C 
HETATM    4  C   UNK N   1      34.281  16.608   6.080  0.00  0.00     0.177 C 
HETATM    5  C   UNK N   1      32.275  17.346   7.432  0.00  0.00     0.285 C 
HETATM    6  O   UNK N   1      32.875  15.145   4.786  0.00  0.00    -0.390 OA
HETATM    7  O   UNK N   1      31.472  17.062   6.297  0.00  0.00    -0.349 OA
HETATM    8  H   UNK N   1      32.476  14.267   4.689  0.00  0.00     0.210 HD
ENDROOT
BRANCH   1   9
HETATM    9  C   UNK N   1      31.127  17.329   3.962  0.00  0.00     0.198 C 
BRANCH   9  10
HETATM   10  O   UNK N   1      31.780  17.237   2.732  0.00  0.00    -0.398 OA
HETATM   11  H   UNK N   1      32.324  17.897   2.277  0.00  0.00     0.209 HD
ENDBRANCH   9  10
ENDBRANCH   1   9
BRANCH   4  12
HETATM   12  O   UNK N   1      35.344  15.714   5.936  0.00  0.00    -0.391 OA
HETATM   13  H   UNK N   1      35.519  15.233   5.111  0.00  0.00     0.210 HD
ENDBRANCH   4  12
BRANCH   2  14
HETATM   14  N   UNK N   1      34.410  16.745   8.538  0.00  0.00    -0.363 N 
HETATM   15  C   UNK N   1      34.322  16.254   9.728  0.00  0.00     0.107 C 
HETATM   16  C   UNK N   1      35.304  16.671  10.765  0.00  0.00     0.097 C 
ATOM     17  HN  UNK N   1      35.149  17.425   8.361  1.00  0.00     0.162 HD
BRANCH  15  18
HETATM   18  O   UNK N   1      33.342  15.388  10.058  0.00  0.00    -0.350 OA
HETATM   19  H   UNK N   1      33.162  14.680  10.645  0.00  0.00     0.219 HD
ENDBRANCH  15  18
ENDBRANCH   2  14
BRANCH   5  20
HETATM   20  O   UNK N   1      31.390  17.298   8.547  0.00  0.00    -0.356 OA
BRANCH  20  21
HETATM   21  C   UNK N   1      30.835  18.533   8.910  0.00  0.00     0.206 C 
BRANCH  21  22
HETATM   22  C   UNK N   1      29.316  18.471   8.819  0.00  0.00     0.197 C 
BRANCH  22  23
HETATM   23  C   UNK N   1      28.809  17.387   9.728  0.00  0.00     0.165 C 
HETATM   24  O   UNK N   1      27.661  16.976   9.631  0.00  0.00    -0.648 OA
BRANCH  23  25
HETATM   25  O   UNK N   1      29.624  16.859  10.660  0.00  0.00    -0.775 OA
HETATM   26  H   UNK N   1      29.423  16.939  11.572  0.00  0.00     0.167 HD
ENDBRANCH  23  25
ENDBRANCH  22  23
BRANCH  22  27
HETATM   27  N   UNK N   1      28.917  18.216   7.442  0.00  0.00    -0.416 N 
HETATM   28  H   UNK N   1      29.552  18.430   6.673  0.00  0.00     0.150 HD
HETATM   29  H   UNK N   1      27.996  17.822   7.244  0.00  0.00     0.150 HD
ENDBRANCH  22  27
ENDBRANCH  21  22
ENDBRANCH  20  21
ENDBRANCH   5  20
TORSDOF 11
ENDMDL
MODEL 9
REMARK VINA RESULT:      -5.1      1.814      2.291
REMARK  11 active torsions:
REMARK  status: ('A' for Active; 'I' for Inactive)
REMARK    1  A    between atoms: C_6  and  C_2 
REMARK    2  A    between atoms: O_15  and  C_2 
REMARK    3  A    between atoms: C_5  and  C_3 
REMARK    4  A    between atoms: O_21  and  C_3 
REMARK    5  A    between atoms: O_16  and  C_4 
REMARK    6  A    between atoms: C_10  and  C_5 
REMARK    7  A    between atoms: C_5  and  N_12 
REMARK    8  A    between atoms: C_7  and  N_13 
REMARK    9  A    between atoms: C_9  and  O_18 
REMARK   10  A    between atoms: O_20  and  C_10 
REMARK   11  A    between atoms: C_11  and  O_21 
ROOT
HETATM    1  C   UNK N   1      32.257  15.481   4.407  0.00  0.00     0.179 C 
HETATM    2  C   UNK N   1      30.347  17.600   4.911  0.00  0.00     0.169 C 
HETATM    3  C   UNK N   1      31.362  15.953   3.248  0.00  0.00     0.180 C 
HETATM    4  C   UNK N   1      30.059  16.509   3.840  0.00  0.00     0.177 C 
HETATM    5  C   UNK N   1      31.375  17.003   5.942  0.00  0.00     0.285 C 
HETATM    6  O   UNK N   1      32.015  16.945   2.509  0.00  0.00    -0.390 OA
HETATM    7  O   UNK N   1      32.538  16.578   5.251  0.00  0.00    -0.349 OA
HETATM    8  H   UNK N   1      32.553  17.595   2.030  0.00  0.00     0.210 HD
ENDROOT
BRANCH   1   9
HETATM    9  C   UNK N   1      33.585  14.923   3.906  0.00  0.00     0.198 C 
BRANCH   9  10
HETATM   10  O   UNK N   1      34.611  15.210   4.807  0.00  0.00    -0.398 OA
HETATM   11  H   UNK N   1      34.563  15.350   5.765  0.00  0.00     0.209 HD
ENDBRANCH   9  10
ENDBRANCH   1   9
BRANCH   4  12
HETATM   12  O   UNK N   1      29.251  16.997   2.811  0.00  0.00    -0.391 OA
HETATM   13  H   UNK N   1      29.554  17.066   1.892  0.00  0.00     0.210 HD
ENDBRANCH   4  12
BRANCH   2  14
HETATM   14  N   UNK N   1      29.113  17.955   5.599  0.00  0.00    -0.363 N 
HETATM   15  C   UNK N   1      28.313  18.901   5.237  0.00  0.00     0.107 C 
HETATM   16  C   UNK N   1      27.065  19.138   6.013  0.00  0.00     0.097 C 
ATOM     17  HN  UNK N   1      28.862  17.415   6.427  1.00  0.00     0.162 HD
BRANCH  15  18
HETATM   18  O   UNK N   1      28.597  19.694   4.184  0.00  0.00    -0.350 OA
HETATM   19  H   UNK N   1      28.862  20.570   3.983  0.00  0.00     0.219 HD
ENDBRANCH  15  18
ENDBRANCH   2  14
BRANCH   5  20
HETATM   20  O   UNK N   1      31.842  17.836   6.999  0.00  0.00    -0.356 OA
BRANCH  20  21
HETATM   21  C   UNK N   1      32.049  17.178   8.219  0.00  0.00     0.206 C 
BRANCH  21  22
HETATM   22  C   UNK N   1      33.537  16.942   8.441  0.00  0.00     0.197 C 
BRANCH  22  23
HETATM   23  C   UNK N   1      34.319  18.021   7.747  0.00  0.00     0.165 C 
HETATM   24  O   UNK N   1      34.727  18.994   8.365  0.00  0.00    -0.648 OA
BRANCH  23  25
HETATM   25  O   UNK N   1      34.576  17.919   6.429  0.00  0.00    -0.775 OA
HETATM   26  H   UNK N   1      35.403  17.597   6.127  0.00  0.00     0.167 HD
ENDBRANCH  23  25
ENDBRANCH  22  23
BRANCH  22  27
HETATM   27  N   UNK N   1      33.907  15.629   7.930  0.00  0.00    -0.416 N 
HETATM   28  H   UNK N   1      33.766  15.400   6.946  0.00  0.00     0.150 HD
HETATM   29  H   UNK N   1      34.308  14.933   8.561  0.00  0.00     0.150 HD
ENDBRANCH  22  27
ENDBRANCH  21  22
ENDBRANCH  20  21
ENDBRANCH   5  20
TORSDOF 11
ENDMDL
