REMARK  7 active torsions:
REMARK  status: ('A' for Active; 'I' for Inactive)
REMARK    1  A    between atoms: O_1  and  V_3 
REMARK    2  A    between atoms: V_7  and  O_8 
REMARK    3  A    between atoms: V_7  and  O_10 
REMARK    4  A    between atoms: V_13  and  O_14 
REMARK    5  A    between atoms: V_13  and  O_16 
REMARK    6  A    between atoms: V_19  and  O_20 
REMARK    7  A    between atoms: V_19  and  O_22 
ROOT
HETATM    1  V   UNK N   1       3.567   0.440   0.000  0.00  0.00     0.000 V 
HETATM    2  O   UNK N   1       5.123  -0.374   0.000  0.00  0.00    -0.253 OA
ATOM      3  HO  UNK N   1       4.355  -0.933   0.000  1.00  0.00     0.253 HD
HETATM    4  O   UNK N   1       2.824  -1.378   0.000  0.00  0.00     0.000 OA
HETATM    5  V   UNK N   1       1.043  -2.205   0.000  0.00  0.00     0.000 V 
HETATM    6  O   UNK N   1      -0.791  -1.497   0.000  0.00  0.00     0.000 OA
HETATM    7  V   UNK N   1      -1.581   0.301   0.000  0.00  0.00     0.000 V 
HETATM    8  O   UNK N   1      -0.834   2.120   0.000  0.00  0.00     0.000 OA
HETATM    9  V   UNK N   1       0.947   2.951   0.000  0.00  0.00     0.000 V 
HETATM   10  O   UNK N   1       2.782   2.243   0.000  0.00  0.00     0.000 OA
ENDROOT
BRANCH   1  11
HETATM   11  O   UNK N   1       5.157   1.598   0.000  0.00  0.00    -0.253 OA
ATOM     12  HO  UNK N   1       4.315   2.038   0.000  1.00  0.00     0.253 HD
ENDBRANCH   1  11
BRANCH   5  13
HETATM   13  O   UNK N   1      -0.063  -3.831   0.000  0.00  0.00    -0.253 OA
ATOM     14  HO  UNK N   1      -0.925  -4.231   0.000  1.00  0.00     0.253 HD
ENDBRANCH   5  13
BRANCH   5  15
HETATM   15  O   UNK N   1       1.919  -3.726   0.000  0.00  0.00    -0.253 OA
ATOM     16  HO  UNK N   1       1.058  -4.126   0.000  1.00  0.00     0.253 HD
ENDBRANCH   5  15
BRANCH   9  17
HETATM   17  O   UNK N   1       2.047   4.581   0.000  0.00  0.00    -0.253 OA
ATOM     18  HO  UNK N   1       2.908   4.983   0.000  1.00  0.00     0.253 HD
ENDBRANCH   9  17
BRANCH   9  19
HETATM   19  O   UNK N   1       0.067   4.471   0.000  0.00  0.00    -0.253 OA
ATOM     20  HO  UNK N   1       0.928   4.873   0.000  1.00  0.00     0.253 HD
ENDBRANCH   9  19
BRANCH   7  21
HETATM   21  O   UNK N   1      -3.175   1.452   0.000  0.00  0.00    -0.253 OA
ATOM     22  HO  UNK N   1      -3.557   2.322   0.000  1.00  0.00     0.253 HD
ENDBRANCH   7  21
BRANCH   7  23
HETATM   23  O   UNK N   1      -3.124  -0.536   0.000  0.00  0.00    -0.253 OA
ATOM     24  HO  UNK N   1      -3.506   0.334   0.000  1.00  0.00     0.253 HD
ENDBRANCH   7  23
TORSDOF 7
