MODEL 1
REMARK VINA RESULT:      -7.5      0.000      0.000
REMARK  14 active torsions:
REMARK  status: ('A' for Active; 'I' for Inactive)
REMARK    1  A    between atoms: C_11  and  C_5 
REMARK    2  A    between atoms: N_22  and  C_5 
REMARK    3  A    between atoms: C_12  and  C_6 
REMARK    4  A    between atoms: O_35  and  C_6 
REMARK    5  A    between atoms: C_14  and  C_11 
REMARK    6  A    between atoms: C_11  and  O_24 
REMARK    7  A    between atoms: C_14  and  C_12 
REMARK    8  A    between atoms: C_12  and  O_25 
REMARK    9  A    between atoms: C_14  and  O_26 
REMARK   10  A    between atoms: O_27  and  C_16 
REMARK   11  A    between atoms: S_37  and  N_23 
REMARK   12  A    between atoms: P_36  and  O_29 
REMARK   13  A    between atoms: P_36  and  O_30 
REMARK   14  A    between atoms: P_36  and  O_35 
ROOT
HETATM    1  C   UNK N   1      29.676  18.600   9.747  0.00  0.00     0.049 C 
HETATM    2  C   UNK N   1      28.404  18.289   7.098  0.00  0.00     0.049 C 
HETATM    3  C   UNK N   1      31.679  17.488   8.799  0.00  0.00     0.039 A 
HETATM    4  C   UNK N   1      30.519  17.239   6.303  0.00  0.00     0.040 A 
HETATM    5  C   UNK N   1      30.397  17.976   8.599  0.00  0.00    -0.054 A 
HETATM    6  C   UNK N   1      29.801  17.834   7.343  0.00  0.00    -0.054 A 
HETATM    7  C   UNK N   1      32.390  16.830   7.773  0.00  0.00     0.065 A 
HETATM    8  C   UNK N   1      31.825  16.727   6.490  0.00  0.00     0.081 A 
HETATM    9  C   UNK N   1      33.774  15.534   5.730  0.00  0.00     0.148 A 
HETATM   10  C   UNK N   1      34.295  15.626   7.055  0.00  0.00     0.145 A 
HETATM   11  C   UNK N   1      34.604  14.834   4.782  0.00  0.00     0.176 A 
HETATM   12  C   UNK N   1      36.244  14.414   6.444  0.00  0.00     0.327 A 
HETATM   13  N   UNK N   1      35.497  15.065   7.369  0.00  0.00    -0.292 N 
ATOM     14  HN  UNK N   1      35.844  15.137   8.325  1.00  0.00     0.172 HD
HETATM   15  N   UNK N   1      35.795  14.307   5.169  0.00  0.00    -0.287 N 
ATOM     16  HN  UNK N   1      36.367  13.817   4.482  1.00  0.00     0.172 HD
HETATM   17  N   UNK N   1      33.594  16.251   8.036  0.00  0.00    -0.327 N 
HETATM   18  N   UNK N   1      32.500  16.099   5.455  0.00  0.00    -0.211 N 
HETATM   19  O   UNK N   1      37.313  13.924   6.759  0.00  0.00    -0.247 OA
ENDROOT
BRANCH  17  20
HETATM   20  C   UNK N   1      34.094  16.193   9.414  0.00  0.00     0.165 C 
BRANCH  20  21
HETATM   21  C   UNK N   1      33.646  14.858  10.046  0.00  0.00     0.167 C 
BRANCH  21  22
HETATM   22  C   UNK N   1      34.796  14.171  10.790  0.00  0.00     0.179 C 
BRANCH  22  23
HETATM   23  C   UNK N   1      35.877  15.160  11.309  0.00  0.00     0.173 C 
BRANCH  23  24
HETATM   24  C   UNK N   1      36.037  15.082  12.841  0.00  0.00     0.214 C 
BRANCH  24  25
HETATM   25  O   UNK N   1      36.639  13.867  13.240  0.00  0.00    -0.294 OA
BRANCH  25  26
HETATM   26  P   UNK N   1      36.558  13.800  14.987  0.00  0.00     0.390 P 
HETATM   27  O   UNK N   1      35.103  13.445  14.572  0.00  0.00    -0.632 OA
BRANCH  26  28
HETATM   28  O   UNK N   1      36.239  12.326  15.842  0.00  0.00    -0.307 OA
HETATM   29  H   UNK N   1      36.608  11.839  16.596  0.00  0.00     0.222 HD
ENDBRANCH  26  28
BRANCH  26  30
HETATM   30  O   UNK N   1      37.627  12.552  14.434  0.00  0.00    -0.307 OA
HETATM   31  H   UNK N   1      38.173  12.480  13.636  0.00  0.00     0.222 HD
ENDBRANCH  26  30
ENDBRANCH  25  26
ENDBRANCH  24  25
ENDBRANCH  23  24
BRANCH  23  32
HETATM   32  O   UNK N   1      37.113  14.954  10.689  0.00  0.00    -0.391 OA
HETATM   33  H   UNK N   1      37.826  14.387  10.357  0.00  0.00     0.210 HD
ENDBRANCH  23  32
ENDBRANCH  22  23
BRANCH  22  34
HETATM   34  O   UNK N   1      34.263  13.453  11.863  0.00  0.00    -0.390 OA
HETATM   35  H   UNK N   1      33.317  13.507  12.070  0.00  0.00     0.210 HD
ENDBRANCH  22  34
ENDBRANCH  21  22
BRANCH  21  36
HETATM   36  O   UNK N   1      32.572  15.058  10.913  0.00  0.00    -0.391 OA
HETATM   37  H   UNK N   1      31.648  14.918  10.651  0.00  0.00     0.210 HD
ENDBRANCH  21  36
ENDBRANCH  20  21
ENDBRANCH  17  20
BRANCH  18  38
HETATM   38  S   UNK N   1      31.546  16.097   3.886  0.00  0.00     0.216 S 
HETATM   39  O   UNK N   1      32.287  15.682   2.612  0.00  0.00    -0.577 OA
HETATM   40  O   UNK N   1      32.982  17.025   3.687  0.00  0.00    -0.577 OA
HETATM   41  O   UNK N   1      31.754  14.596   4.130  0.00  0.00    -0.577 OA
ENDBRANCH  18  38
BRANCH  11  42
HETATM   42  O   UNK N   1      34.266  14.660   3.505  0.00  0.00    -0.344 OA
HETATM   43  H   UNK N   1      34.416  13.848   3.063  0.00  0.00     0.219 HD
ENDBRANCH  11  42
TORSDOF 14
ENDMDL
MODEL 2
REMARK VINA RESULT:      -7.4      5.581      9.835
REMARK  14 active torsions:
REMARK  status: ('A' for Active; 'I' for Inactive)
REMARK    1  A    between atoms: C_11  and  C_5 
REMARK    2  A    between atoms: N_22  and  C_5 
REMARK    3  A    between atoms: C_12  and  C_6 
REMARK    4  A    between atoms: O_35  and  C_6 
REMARK    5  A    between atoms: C_14  and  C_11 
REMARK    6  A    between atoms: C_11  and  O_24 
REMARK    7  A    between atoms: C_14  and  C_12 
REMARK    8  A    between atoms: C_12  and  O_25 
REMARK    9  A    between atoms: C_14  and  O_26 
REMARK   10  A    between atoms: O_27  and  C_16 
REMARK   11  A    between atoms: S_37  and  N_23 
REMARK   12  A    between atoms: P_36  and  O_29 
REMARK   13  A    between atoms: P_36  and  O_30 
REMARK   14  A    between atoms: P_36  and  O_35 
ROOT
HETATM    1  C   UNK N   1      34.944  13.965  18.425  0.00  0.00     0.049 C 
HETATM    2  C   UNK N   1      35.289  11.237  19.507  0.00  0.00     0.049 C 
HETATM    3  C   UNK N   1      35.682  13.076  16.231  0.00  0.00     0.039 A 
HETATM    4  C   UNK N   1      35.958  10.509  17.220  0.00  0.00     0.040 A 
HETATM    5  C   UNK N   1      35.384  12.829  17.562  0.00  0.00    -0.054 A 
HETATM    6  C   UNK N   1      35.541  11.537  18.069  0.00  0.00    -0.054 A 
HETATM    7  C   UNK N   1      36.163  12.059  15.380  0.00  0.00     0.065 A 
HETATM    8  C   UNK N   1      36.276  10.743  15.860  0.00  0.00     0.081 A 
HETATM    9  C   UNK N   1      37.113  10.033  13.716  0.00  0.00     0.148 A 
HETATM   10  C   UNK N   1      37.020  11.389  13.279  0.00  0.00     0.145 A 
HETATM   11  C   UNK N   1      37.622   9.099  12.744  0.00  0.00     0.176 A 
HETATM   12  C   UNK N   1      37.884  10.827  11.140  0.00  0.00     0.327 A 
HETATM   13  N   UNK N   1      37.409  11.741  12.021  0.00  0.00    -0.292 N 
ATOM     14  HN  UNK N   1      37.341  12.717  11.735  1.00  0.00     0.172 HD
HETATM   15  N   UNK N   1      37.983   9.526  11.506  0.00  0.00    -0.287 N 
ATOM     16  HN  UNK N   1      38.340   8.848  10.833  1.00  0.00     0.172 HD
HETATM   17  N   UNK N   1      36.567  12.360  14.114  0.00  0.00    -0.327 N 
HETATM   18  N   UNK N   1      36.732   9.717  15.048  0.00  0.00    -0.211 N 
HETATM   19  O   UNK N   1      38.223  11.176  10.024  0.00  0.00    -0.247 OA
ENDROOT
BRANCH  17  20
HETATM   20  C   UNK N   1      36.628  13.759  13.677  0.00  0.00     0.165 C 
BRANCH  20  21
HETATM   21  C   UNK N   1      35.325  14.097  12.922  0.00  0.00     0.167 C 
BRANCH  21  22
HETATM   22  C   UNK N   1      35.611  14.656  11.524  0.00  0.00     0.179 C 
BRANCH  22  23
HETATM   23  C   UNK N   1      34.485  15.581  10.985  0.00  0.00     0.173 C 
BRANCH  23  24
HETATM   24  C   UNK N   1      34.781  16.067   9.551  0.00  0.00     0.214 C 
BRANCH  24  25
HETATM   25  O   UNK N   1      34.861  17.477   9.485  0.00  0.00    -0.294 OA
BRANCH  25  26
HETATM   26  P   UNK N   1      33.915  17.984   8.103  0.00  0.00     0.390 P 
HETATM   27  O   UNK N   1      35.117  18.967   8.063  0.00  0.00    -0.632 OA
BRANCH  26  28
HETATM   28  O   UNK N   1      34.502  17.842   6.478  0.00  0.00    -0.307 OA
HETATM   29  H   UNK N   1      34.756  18.434   5.752  0.00  0.00     0.222 HD
ENDBRANCH  26  28
BRANCH  26  30
HETATM   30  O   UNK N   1      34.490  16.373   7.819  0.00  0.00    -0.307 OA
HETATM   31  H   UNK N   1      35.384  15.996   7.838  0.00  0.00     0.222 HD
ENDBRANCH  26  30
ENDBRANCH  25  26
ENDBRANCH  24  25
ENDBRANCH  23  24
BRANCH  23  32
HETATM   32  O   UNK N   1      33.234  14.958  11.027  0.00  0.00    -0.391 OA
HETATM   33  H   UNK N   1      32.419  14.692  11.482  0.00  0.00     0.210 HD
ENDBRANCH  23  32
ENDBRANCH  22  23
BRANCH  22  34
HETATM   34  O   UNK N   1      36.817  15.360  11.567  0.00  0.00    -0.390 OA
HETATM   35  H   UNK N   1      36.867  16.226  12.001  0.00  0.00     0.210 HD
ENDBRANCH  22  34
ENDBRANCH  21  22
BRANCH  21  36
HETATM   36  O   UNK N   1      34.505  12.972  12.826  0.00  0.00    -0.391 OA
HETATM   37  H   UNK N   1      34.557  12.342  12.090  0.00  0.00     0.210 HD
ENDBRANCH  21  36
ENDBRANCH  20  21
ENDBRANCH  17  20
BRANCH  18  38
HETATM   38  S   UNK N   1      36.787   8.099  15.915  0.00  0.00     0.216 S 
HETATM   39  O   UNK N   1      37.010   6.849  15.059  0.00  0.00    -0.577 OA
HETATM   40  O   UNK N   1      35.642   8.027  14.633  0.00  0.00    -0.577 OA
HETATM   41  O   UNK N   1      38.251   8.278  15.488  0.00  0.00    -0.577 OA
ENDBRANCH  18  38
BRANCH  11  42
HETATM   42  O   UNK N   1      37.770   7.798  12.991  0.00  0.00    -0.344 OA
HETATM   43  H   UNK N   1      37.043   7.208  12.974  0.00  0.00     0.219 HD
ENDBRANCH  11  42
TORSDOF 14
ENDMDL
MODEL 3
REMARK VINA RESULT:      -7.3      6.324     10.352
REMARK  14 active torsions:
REMARK  status: ('A' for Active; 'I' for Inactive)
REMARK    1  A    between atoms: C_11  and  C_5 
REMARK    2  A    between atoms: N_22  and  C_5 
REMARK    3  A    between atoms: C_12  and  C_6 
REMARK    4  A    between atoms: O_35  and  C_6 
REMARK    5  A    between atoms: C_14  and  C_11 
REMARK    6  A    between atoms: C_11  and  O_24 
REMARK    7  A    between atoms: C_14  and  C_12 
REMARK    8  A    between atoms: C_12  and  O_25 
REMARK    9  A    between atoms: C_14  and  O_26 
REMARK   10  A    between atoms: O_27  and  C_16 
REMARK   11  A    between atoms: S_37  and  N_23 
REMARK   12  A    between atoms: P_36  and  O_29 
REMARK   13  A    between atoms: P_36  and  O_30 
REMARK   14  A    between atoms: P_36  and  O_35 
ROOT
HETATM    1  C   UNK N   1      26.565  15.374   1.945  0.00  0.00     0.049 C 
HETATM    2  C   UNK N   1      29.021  13.755   1.664  0.00  0.00     0.049 C 
HETATM    3  C   UNK N   1      27.546  16.314   4.019  0.00  0.00     0.039 A 
HETATM    4  C   UNK N   1      29.871  14.844   3.739  0.00  0.00     0.040 A 
HETATM    5  C   UNK N   1      27.686  15.474   2.925  0.00  0.00    -0.054 A 
HETATM    6  C   UNK N   1      28.852  14.715   2.791  0.00  0.00    -0.054 A 
HETATM    7  C   UNK N   1      28.542  16.405   5.014  0.00  0.00     0.065 A 
HETATM    8  C   UNK N   1      29.743  15.689   4.867  0.00  0.00     0.081 A 
HETATM    9  C   UNK N   1      30.524  16.569   6.968  0.00  0.00     0.148 A 
HETATM   10  C   UNK N   1      29.276  17.248   7.099  0.00  0.00     0.145 A 
HETATM   11  C   UNK N   1      31.449  16.749   8.059  0.00  0.00     0.176 A 
HETATM   12  C   UNK N   1      29.908  18.139   9.208  0.00  0.00     0.327 A 
HETATM   13  N   UNK N   1      29.007  18.000   8.204  0.00  0.00    -0.292 N 
ATOM     14  HN  UNK N   1      28.105  18.468   8.278  1.00  0.00     0.172 HD
HETATM   15  N   UNK N   1      31.110  17.520   9.125  0.00  0.00    -0.287 N 
ATOM     16  HN  UNK N   1      31.780  17.635   9.886  1.00  0.00     0.172 HD
HETATM   17  N   UNK N   1      28.322  17.141   6.139  0.00  0.00    -0.327 N 
HETATM   18  N   UNK N   1      30.748  15.765   5.818  0.00  0.00    -0.211 N 
HETATM   19  O   UNK N   1      29.634  18.818  10.182  0.00  0.00    -0.247 OA
ENDROOT
BRANCH  17  20
HETATM   20  C   UNK N   1      27.001  17.731   6.381  0.00  0.00     0.165 C 
BRANCH  20  21
HETATM   21  C   UNK N   1      27.019  19.196   5.895  0.00  0.00     0.167 C 
BRANCH  21  22
HETATM   22  C   UNK N   1      25.769  19.535   5.074  0.00  0.00     0.179 C 
BRANCH  22  23
HETATM   23  C   UNK N   1      26.032  19.600   3.544  0.00  0.00     0.173 C 
BRANCH  23  24
HETATM   24  C   UNK N   1      24.993  20.482   2.821  0.00  0.00     0.214 C 
BRANCH  24  25
HETATM   25  O   UNK N   1      23.864  20.729   3.635  0.00  0.00    -0.294 OA
BRANCH  25  26
HETATM   26  P   UNK N   1      22.458  20.193   2.741  0.00  0.00     0.390 P 
HETATM   27  O   UNK N   1      22.220  19.568   4.144  0.00  0.00    -0.632 OA
BRANCH  26  28
HETATM   28  O   UNK N   1      20.852  20.707   3.148  0.00  0.00    -0.307 OA
HETATM   29  H   UNK N   1      20.064  20.331   3.571  0.00  0.00     0.222 HD
ENDBRANCH  26  28
BRANCH  26  30
HETATM   30  O   UNK N   1      22.404  21.921   2.872  0.00  0.00    -0.307 OA
HETATM   31  H   UNK N   1      22.030  22.599   2.287  0.00  0.00     0.222 HD
ENDBRANCH  26  30
ENDBRANCH  25  26
ENDBRANCH  24  25
ENDBRANCH  23  24
BRANCH  23  32
HETATM   32  O   UNK N   1      27.324  20.051   3.255  0.00  0.00    -0.391 OA
HETATM   33  H   UNK N   1      28.155  20.492   3.491  0.00  0.00     0.210 HD
ENDBRANCH  23  32
ENDBRANCH  22  23
BRANCH  22  34
HETATM   34  O   UNK N   1      24.790  18.575   5.342  0.00  0.00    -0.390 OA
HETATM   35  H   UNK N   1      25.032  17.642   5.451  0.00  0.00     0.210 HD
ENDBRANCH  22  34
ENDBRANCH  21  22
BRANCH  21  36
HETATM   36  O   UNK N   1      27.129  20.072   6.975  0.00  0.00    -0.391 OA
HETATM   37  H   UNK N   1      26.657  20.920   7.019  0.00  0.00     0.210 HD
ENDBRANCH  21  36
ENDBRANCH  20  21
ENDBRANCH  17  20
BRANCH  18  38
HETATM   38  S   UNK N   1      32.208  14.736   5.390  0.00  0.00     0.216 S 
HETATM   39  O   UNK N   1      33.482  14.945   6.213  0.00  0.00    -0.577 OA
HETATM   40  O   UNK N   1      32.657  16.397   5.404  0.00  0.00    -0.577 OA
HETATM   41  O   UNK N   1      31.795  14.149   6.747  0.00  0.00    -0.577 OA
ENDBRANCH  18  38
BRANCH  11  42
HETATM   42  O   UNK N   1      32.655  16.185   8.093  0.00  0.00    -0.344 OA
HETATM   43  H   UNK N   1      33.329  16.428   7.490  0.00  0.00     0.219 HD
ENDBRANCH  11  42
TORSDOF 14
ENDMDL
MODEL 4
REMARK VINA RESULT:      -7.3     10.214     13.495
REMARK  14 active torsions:
REMARK  status: ('A' for Active; 'I' for Inactive)
REMARK    1  A    between atoms: C_11  and  C_5 
REMARK    2  A    between atoms: N_22  and  C_5 
REMARK    3  A    between atoms: C_12  and  C_6 
REMARK    4  A    between atoms: O_35  and  C_6 
REMARK    5  A    between atoms: C_14  and  C_11 
REMARK    6  A    between atoms: C_11  and  O_24 
REMARK    7  A    between atoms: C_14  and  C_12 
REMARK    8  A    between atoms: C_12  and  O_25 
REMARK    9  A    between atoms: C_14  and  O_26 
REMARK   10  A    between atoms: O_27  and  C_16 
REMARK   11  A    between atoms: S_37  and  N_23 
REMARK   12  A    between atoms: P_36  and  O_29 
REMARK   13  A    between atoms: P_36  and  O_30 
REMARK   14  A    between atoms: P_36  and  O_35 
ROOT
HETATM    1  C   UNK N   1      27.611  18.107   4.495  0.00  0.00     0.049 C 
HETATM    2  C   UNK N   1      26.571  20.755   3.694  0.00  0.00     0.049 C 
HETATM    3  C   UNK N   1      25.300  17.242   4.256  0.00  0.00     0.039 A 
HETATM    4  C   UNK N   1      24.325  19.701   3.455  0.00  0.00     0.040 A 
HETATM    5  C   UNK N   1      26.174  18.313   4.150  0.00  0.00    -0.054 A 
HETATM    6  C   UNK N   1      25.680  19.562   3.764  0.00  0.00    -0.054 A 
HETATM    7  C   UNK N   1      23.919  17.386   4.006  0.00  0.00     0.065 A 
HETATM    8  C   UNK N   1      23.415  18.622   3.566  0.00  0.00     0.081 A 
HETATM    9  C   UNK N   1      21.193  17.695   3.508  0.00  0.00     0.148 A 
HETATM   10  C   UNK N   1      21.739  16.469   3.993  0.00  0.00     0.145 A 
HETATM   11  C   UNK N   1      19.768  17.702   3.298  0.00  0.00     0.176 A 
HETATM   12  C   UNK N   1      19.592  15.453   4.031  0.00  0.00     0.327 A 
HETATM   13  N   UNK N   1      20.930  15.400   4.242  0.00  0.00    -0.292 N 
ATOM     14  HN  UNK N   1      21.342  14.537   4.596  1.00  0.00     0.172 HD
HETATM   15  N   UNK N   1      19.029  16.594   3.562  0.00  0.00    -0.287 N 
ATOM     16  HN  UNK N   1      18.022  16.620   3.406  1.00  0.00     0.172 HD
HETATM   17  N   UNK N   1      23.069  16.348   4.241  0.00  0.00    -0.327 N 
HETATM   18  N   UNK N   1      22.067  18.796   3.299  0.00  0.00    -0.211 N 
HETATM   19  O   UNK N   1      18.899  14.479   4.264  0.00  0.00    -0.247 OA
ENDROOT
BRANCH  17  20
HETATM   20  C   UNK N   1      23.565  15.124   4.879  0.00  0.00     0.165 C 
BRANCH  20  21
HETATM   21  C   UNK N   1      23.429  15.275   6.409  0.00  0.00     0.167 C 
BRANCH  21  22
HETATM   22  C   UNK N   1      22.602  14.138   7.018  0.00  0.00     0.179 C 
BRANCH  22  23
HETATM   23  C   UNK N   1      21.499  14.629   7.996  0.00  0.00     0.173 C 
BRANCH  23  24
HETATM   24  C   UNK N   1      21.123  16.103   7.742  0.00  0.00     0.214 C 
BRANCH  24  25
HETATM   25  O   UNK N   1      20.544  16.698   8.886  0.00  0.00    -0.294 OA
BRANCH  25  26
HETATM   26  P   UNK N   1      18.961  17.281   8.420  0.00  0.00     0.390 P 
HETATM   27  O   UNK N   1      18.616  16.066   9.325  0.00  0.00    -0.632 OA
BRANCH  26  28
HETATM   28  O   UNK N   1      17.842  17.936   9.571  0.00  0.00    -0.307 OA
HETATM   29  H   UNK N   1      17.045  18.489   9.562  0.00  0.00     0.222 HD
ENDBRANCH  26  28
BRANCH  26  30
HETATM   30  O   UNK N   1      19.740  18.499   9.377  0.00  0.00    -0.307 OA
HETATM   31  H   UNK N   1      19.676  18.713  10.322  0.00  0.00     0.222 HD
ENDBRANCH  26  30
ENDBRANCH  25  26
ENDBRANCH  24  25
ENDBRANCH  23  24
BRANCH  23  32
HETATM   32  O   UNK N   1      20.354  13.828   7.936  0.00  0.00    -0.391 OA
HETATM   33  H   UNK N   1      19.862  13.014   8.123  0.00  0.00     0.210 HD
ENDBRANCH  23  32
ENDBRANCH  22  23
BRANCH  22  34
HETATM   34  O   UNK N   1      22.018  13.410   5.979  0.00  0.00    -0.390 OA
HETATM   35  H   UNK N   1      21.205  12.902   6.129  0.00  0.00     0.210 HD
ENDBRANCH  22  34
ENDBRANCH  21  22
BRANCH  21  36
HETATM   36  O   UNK N   1      24.686  15.324   7.013  0.00  0.00    -0.391 OA
HETATM   37  H   UNK N   1      25.366  15.972   6.768  0.00  0.00     0.210 HD
ENDBRANCH  21  36
ENDBRANCH  20  21
ENDBRANCH  17  20
BRANCH  18  38
HETATM   38  S   UNK N   1      21.669  20.500   2.741  0.00  0.00     0.216 S 
HETATM   39  O   UNK N   1      20.280  20.739   2.142  0.00  0.00    -0.577 OA
HETATM   40  O   UNK N   1      21.358  19.389   1.465  0.00  0.00    -0.577 OA
HETATM   41  O   UNK N   1      20.774  20.356   3.980  0.00  0.00    -0.577 OA
ENDBRANCH  18  38
BRANCH  11  42
HETATM   42  O   UNK N   1      19.102  18.766   2.848  0.00  0.00    -0.344 OA
HETATM   43  H   UNK N   1      18.244  18.690   2.482  0.00  0.00     0.219 HD
ENDBRANCH  11  42
TORSDOF 14
ENDMDL
MODEL 5
REMARK VINA RESULT:      -7.3      6.803     11.733
REMARK  14 active torsions:
REMARK  status: ('A' for Active; 'I' for Inactive)
REMARK    1  A    between atoms: C_11  and  C_5 
REMARK    2  A    between atoms: N_22  and  C_5 
REMARK    3  A    between atoms: C_12  and  C_6 
REMARK    4  A    between atoms: O_35  and  C_6 
REMARK    5  A    between atoms: C_14  and  C_11 
REMARK    6  A    between atoms: C_11  and  O_24 
REMARK    7  A    between atoms: C_14  and  C_12 
REMARK    8  A    between atoms: C_12  and  O_25 
REMARK    9  A    between atoms: C_14  and  O_26 
REMARK   10  A    between atoms: O_27  and  C_16 
REMARK   11  A    between atoms: S_37  and  N_23 
REMARK   12  A    between atoms: P_36  and  O_29 
REMARK   13  A    between atoms: P_36  and  O_30 
REMARK   14  A    between atoms: P_36  and  O_35 
ROOT
HETATM    1  C   UNK N   1      35.872   7.996  12.783  0.00  0.00     0.049 C 
HETATM    2  C   UNK N   1      35.704   6.030  14.982  0.00  0.00     0.049 C 
HETATM    3  C   UNK N   1      35.800   9.776  14.507  0.00  0.00     0.039 A 
HETATM    4  C   UNK N   1      35.695   7.945  16.576  0.00  0.00     0.040 A 
HETATM    5  C   UNK N   1      35.818   8.422  14.212  0.00  0.00    -0.054 A 
HETATM    6  C   UNK N   1      35.747   7.494  15.255  0.00  0.00    -0.054 A 
HETATM    7  C   UNK N   1      35.686  10.243  15.833  0.00  0.00     0.065 A 
HETATM    8  C   UNK N   1      35.666   9.324  16.897  0.00  0.00     0.081 A 
HETATM    9  C   UNK N   1      35.460  11.142  18.463  0.00  0.00     0.148 A 
HETATM   10  C   UNK N   1      35.445  12.039  17.354  0.00  0.00     0.145 A 
HETATM   11  C   UNK N   1      35.335  11.755  19.761  0.00  0.00     0.176 A 
HETATM   12  C   UNK N   1      35.189  13.914  18.789  0.00  0.00     0.327 A 
HETATM   13  N   UNK N   1      35.306  13.382  17.548  0.00  0.00    -0.292 N 
ATOM     14  HN  UNK N   1      35.289  14.001  16.739  1.00  0.00     0.172 HD
HETATM   15  N   UNK N   1      35.207  13.102  19.875  0.00  0.00    -0.287 N 
ATOM     16  HN  UNK N   1      35.121  13.515  20.803  1.00  0.00     0.172 HD
HETATM   17  N   UNK N   1      35.543  11.575  16.081  0.00  0.00    -0.327 N 
HETATM   18  N   UNK N   1      35.568   9.747  18.213  0.00  0.00    -0.211 N 
HETATM   19  O   UNK N   1      35.066  15.118  18.927  0.00  0.00    -0.247 OA
ENDROOT
BRANCH  17  20
HETATM   20  C   UNK N   1      35.372  12.513  14.966  0.00  0.00     0.165 C 
BRANCH  20  21
HETATM   21  C   UNK N   1      36.768  12.911  14.440  0.00  0.00     0.167 C 
BRANCH  21  22
HETATM   22  C   UNK N   1      36.700  13.431  12.999  0.00  0.00     0.179 C 
BRANCH  22  23
HETATM   23  C   UNK N   1      35.637  12.707  12.128  0.00  0.00     0.173 C 
BRANCH  23  24
HETATM   24  C   UNK N   1      34.949  13.674  11.143  0.00  0.00     0.214 C 
BRANCH  24  25
HETATM   25  O   UNK N   1      35.888  14.317  10.303  0.00  0.00    -0.294 OA
BRANCH  25  26
HETATM   26  P   UNK N   1      35.243  15.899   9.924  0.00  0.00     0.390 P 
HETATM   27  O   UNK N   1      34.223  15.364  10.967  0.00  0.00    -0.632 OA
BRANCH  26  28
HETATM   28  O   UNK N   1      35.160  17.170  11.101  0.00  0.00    -0.307 OA
HETATM   29  H   UNK N   1      35.508  17.350  11.988  0.00  0.00     0.222 HD
ENDBRANCH  26  28
BRANCH  26  30
HETATM   30  O   UNK N   1      36.786  16.099  10.690  0.00  0.00    -0.307 OA
HETATM   31  H   UNK N   1      37.031  16.449  11.561  0.00  0.00     0.222 HD
ENDBRANCH  26  30
ENDBRANCH  25  26
ENDBRANCH  24  25
ENDBRANCH  23  24
BRANCH  23  32
HETATM   32  O   UNK N   1      36.184  11.625  11.431  0.00  0.00    -0.391 OA
HETATM   33  H   UNK N   1      36.109  10.810  10.910  0.00  0.00     0.210 HD
ENDBRANCH  23  32
ENDBRANCH  22  23
BRANCH  22  34
HETATM   34  O   UNK N   1      36.425  14.801  13.036  0.00  0.00    -0.390 OA
HETATM   35  H   UNK N   1      37.104  15.446  12.784  0.00  0.00     0.210 HD
ENDBRANCH  22  34
ENDBRANCH  21  22
BRANCH  21  36
HETATM   36  O   UNK N   1      37.350  13.873  15.266  0.00  0.00    -0.391 OA
HETATM   37  H   UNK N   1      36.832  14.523  15.766  0.00  0.00     0.210 HD
ENDBRANCH  21  36
ENDBRANCH  20  21
ENDBRANCH  17  20
BRANCH  18  38
HETATM   38  S   UNK N   1      35.561   8.353  19.407  0.00  0.00     0.216 S 
HETATM   39  O   UNK N   1      35.735   8.694  20.890  0.00  0.00    -0.577 OA
HETATM   40  O   UNK N   1      36.969   9.312  19.650  0.00  0.00    -0.577 OA
HETATM   41  O   UNK N   1      34.226   9.043  19.720  0.00  0.00    -0.577 OA
ENDBRANCH  18  38
BRANCH  11  42
HETATM   42  O   UNK N   1      35.332  11.060  20.898  0.00  0.00    -0.344 OA
HETATM   43  H   UNK N   1      35.980  11.197  21.560  0.00  0.00     0.219 HD
ENDBRANCH  11  42
TORSDOF 14
ENDMDL
MODEL 6
REMARK VINA RESULT:      -7.2      2.143      4.638
REMARK  14 active torsions:
REMARK  status: ('A' for Active; 'I' for Inactive)
REMARK    1  A    between atoms: C_11  and  C_5 
REMARK    2  A    between atoms: N_22  and  C_5 
REMARK    3  A    between atoms: C_12  and  C_6 
REMARK    4  A    between atoms: O_35  and  C_6 
REMARK    5  A    between atoms: C_14  and  C_11 
REMARK    6  A    between atoms: C_11  and  O_24 
REMARK    7  A    between atoms: C_14  and  C_12 
REMARK    8  A    between atoms: C_12  and  O_25 
REMARK    9  A    between atoms: C_14  and  O_26 
REMARK   10  A    between atoms: O_27  and  C_16 
REMARK   11  A    between atoms: S_37  and  N_23 
REMARK   12  A    between atoms: P_36  and  O_29 
REMARK   13  A    between atoms: P_36  and  O_30 
REMARK   14  A    between atoms: P_36  and  O_35 
ROOT
HETATM    1  C   UNK N   1      36.422  14.372   5.499  0.00  0.00     0.049 C 
HETATM    2  C   UNK N   1      34.622  14.059   3.177  0.00  0.00     0.049 C 
HETATM    3  C   UNK N   1      34.521  15.417   6.700  0.00  0.00     0.039 A 
HETATM    4  C   UNK N   1      32.813  15.082   4.552  0.00  0.00     0.040 A 
HETATM    5  C   UNK N   1      34.995  14.808   5.549  0.00  0.00    -0.054 A 
HETATM    6  C   UNK N   1      34.140  14.654   4.455  0.00  0.00    -0.054 A 
HETATM    7  C   UNK N   1      33.202  15.908   6.788  0.00  0.00     0.065 A 
HETATM    8  C   UNK N   1      32.313  15.715   5.716  0.00  0.00     0.081 A 
HETATM    9  C   UNK N   1      30.589  16.871   6.937  0.00  0.00     0.148 A 
HETATM   10  C   UNK N   1      31.533  17.081   7.986  0.00  0.00     0.145 A 
HETATM   11  C   UNK N   1      29.278  17.428   7.158  0.00  0.00     0.176 A 
HETATM   12  C   UNK N   1      29.939  18.286   9.268  0.00  0.00     0.327 A 
HETATM   13  N   UNK N   1      31.185  17.779   9.104  0.00  0.00    -0.292 N 
ATOM     14  HN  UNK N   1      31.880  17.923   9.836  1.00  0.00     0.172 HD
HETATM   15  N   UNK N   1      29.005  18.105   8.303  0.00  0.00    -0.287 N 
ATOM     16  HN  UNK N   1      28.071  18.490   8.440  1.00  0.00     0.172 HD
HETATM   17  N   UNK N   1      32.804  16.614   7.883  0.00  0.00    -0.327 N 
HETATM   18  N   UNK N   1      31.006  16.172   5.772  0.00  0.00    -0.211 N 
HETATM   19  O   UNK N   1      29.661  18.905  10.280  0.00  0.00    -0.247 OA
ENDROOT
BRANCH  17  20
HETATM   20  C   UNK N   1      33.783  16.979   8.913  0.00  0.00     0.165 C 
BRANCH  20  21
HETATM   21  C   UNK N   1      34.051  15.744   9.799  0.00  0.00     0.167 C 
BRANCH  21  22
HETATM   22  C   UNK N   1      35.052  16.057  10.917  0.00  0.00     0.179 C 
BRANCH  22  23
HETATM   23  C   UNK N   1      36.041  14.895  11.206  0.00  0.00     0.173 C 
BRANCH  23  24
HETATM   24  C   UNK N   1      36.069  14.526  12.704  0.00  0.00     0.214 C 
BRANCH  24  25
HETATM   25  O   UNK N   1      34.862  13.915  13.113  0.00  0.00    -0.294 OA
BRANCH  25  26
HETATM   26  P   UNK N   1      35.282  12.389  13.859  0.00  0.00     0.390 P 
HETATM   27  O   UNK N   1      34.372  13.046  14.933  0.00  0.00    -0.632 OA
BRANCH  26  28
HETATM   28  O   UNK N   1      34.099  11.166  14.192  0.00  0.00    -0.307 OA
HETATM   29  H   UNK N   1      33.166  10.995  13.987  0.00  0.00     0.222 HD
ENDBRANCH  26  28
BRANCH  26  30
HETATM   30  O   UNK N   1      34.343  12.070  12.436  0.00  0.00    -0.307 OA
HETATM   31  H   UNK N   1      34.463  12.340  11.512  0.00  0.00     0.222 HD
ENDBRANCH  26  30
ENDBRANCH  25  26
ENDBRANCH  24  25
ENDBRANCH  23  24
BRANCH  23  32
HETATM   32  O   UNK N   1      35.751  13.760  10.442  0.00  0.00    -0.391 OA
HETATM   33  H   UNK N   1      36.008  12.982   9.923  0.00  0.00     0.210 HD
ENDBRANCH  23  32
ENDBRANCH  22  23
BRANCH  22  34
HETATM   34  O   UNK N   1      35.766  17.205  10.563  0.00  0.00    -0.390 OA
HETATM   35  H   UNK N   1      35.305  18.045  10.417  0.00  0.00     0.210 HD
ENDBRANCH  22  34
ENDBRANCH  21  22
BRANCH  21  36
HETATM   36  O   UNK N   1      32.862  15.263  10.347  0.00  0.00    -0.391 OA
HETATM   37  H   UNK N   1      32.439  14.440  10.054  0.00  0.00     0.210 HD
ENDBRANCH  21  36
ENDBRANCH  20  21
ENDBRANCH  17  20
BRANCH  18  38
HETATM   38  S   UNK N   1      30.056  15.793   4.247  0.00  0.00     0.216 S 
HETATM   39  O   UNK N   1      28.540  15.998   4.292  0.00  0.00    -0.577 OA
HETATM   40  O   UNK N   1      29.368  14.949   5.579  0.00  0.00    -0.577 OA
HETATM   41  O   UNK N   1      29.957  17.324   4.309  0.00  0.00    -0.577 OA
ENDBRANCH  18  38
BRANCH  11  42
HETATM   42  O   UNK N   1      28.283  17.320   6.279  0.00  0.00    -0.344 OA
HETATM   43  H   UNK N   1      28.073  16.504   5.871  0.00  0.00     0.219 HD
ENDBRANCH  11  42
TORSDOF 14
ENDMDL
MODEL 7
REMARK VINA RESULT:      -7.0      1.476      4.461
REMARK  14 active torsions:
REMARK  status: ('A' for Active; 'I' for Inactive)
REMARK    1  A    between atoms: C_11  and  C_5 
REMARK    2  A    between atoms: N_22  and  C_5 
REMARK    3  A    between atoms: C_12  and  C_6 
REMARK    4  A    between atoms: O_35  and  C_6 
REMARK    5  A    between atoms: C_14  and  C_11 
REMARK    6  A    between atoms: C_11  and  O_24 
REMARK    7  A    between atoms: C_14  and  C_12 
REMARK    8  A    between atoms: C_12  and  O_25 
REMARK    9  A    between atoms: C_14  and  O_26 
REMARK   10  A    between atoms: O_27  and  C_16 
REMARK   11  A    between atoms: S_37  and  N_23 
REMARK   12  A    between atoms: P_36  and  O_29 
REMARK   13  A    between atoms: P_36  and  O_30 
REMARK   14  A    between atoms: P_36  and  O_35 
ROOT
HETATM    1  C   UNK N   1      38.050  13.560   7.207  0.00  0.00     0.049 C 
HETATM    2  C   UNK N   1      37.216  13.460   4.374  0.00  0.00     0.049 C 
HETATM    3  C   UNK N   1      35.902  14.702   7.691  0.00  0.00     0.039 A 
HETATM    4  C   UNK N   1      35.089  14.567   5.052  0.00  0.00     0.040 A 
HETATM    5  C   UNK N   1      36.732  14.099   6.758  0.00  0.00    -0.054 A 
HETATM    6  C   UNK N   1      36.332  14.046   5.421  0.00  0.00    -0.054 A 
HETATM    7  C   UNK N   1      34.673  15.286   7.320  0.00  0.00     0.065 A 
HETATM    8  C   UNK N   1      34.232  15.196   5.988  0.00  0.00     0.081 A 
HETATM    9  C   UNK N   1      32.248  16.435   6.562  0.00  0.00     0.148 A 
HETATM   10  C   UNK N   1      32.750  16.539   7.894  0.00  0.00     0.145 A 
HETATM   11  C   UNK N   1      30.982  17.079   6.322  0.00  0.00     0.176 A 
HETATM   12  C   UNK N   1      30.866  17.815   8.574  0.00  0.00     0.327 A 
HETATM   13  N   UNK N   1      32.054  17.222   8.846  0.00  0.00    -0.292 N 
ATOM     14  HN  UNK N   1      32.438  17.290   9.788  1.00  0.00     0.172 HD
HETATM   15  N   UNK N   1      30.345  17.736   7.325  0.00  0.00    -0.287 N 
ATOM     16  HN  UNK N   1      29.449  18.184   7.134  1.00  0.00     0.172 HD
HETATM   17  N   UNK N   1      33.941  15.982   8.234  0.00  0.00    -0.327 N 
HETATM   18  N   UNK N   1      33.024  15.746   5.591  0.00  0.00    -0.211 N 
HETATM   19  O   UNK N   1      30.271  18.418   9.449  0.00  0.00    -0.247 OA
ENDROOT
BRANCH  17  20
HETATM   20  C   UNK N   1      34.491  16.239   9.569  0.00  0.00     0.165 C 
BRANCH  20  21
HETATM   21  C   UNK N   1      34.191  15.021  10.469  0.00  0.00     0.167 C 
BRANCH  21  22
HETATM   22  C   UNK N   1      35.220  14.884  11.596  0.00  0.00     0.179 C 
BRANCH  22  23
HETATM   23  C   UNK N   1      35.508  13.411  11.997  0.00  0.00     0.173 C 
BRANCH  23  24
HETATM   24  C   UNK N   1      36.549  13.318  13.131  0.00  0.00     0.214 C 
BRANCH  24  25
HETATM   25  O   UNK N   1      36.414  14.384  14.050  0.00  0.00    -0.294 OA
BRANCH  25  26
HETATM   26  P   UNK N   1      36.428  13.687  15.655  0.00  0.00     0.390 P 
HETATM   27  O   UNK N   1      34.986  13.375  15.168  0.00  0.00    -0.632 OA
BRANCH  26  28
HETATM   28  O   UNK N   1      36.268  11.981  15.924  0.00  0.00    -0.307 OA
HETATM   29  H   UNK N   1      35.777  11.392  16.517  0.00  0.00     0.222 HD
ENDBRANCH  26  28
BRANCH  26  30
HETATM   30  O   UNK N   1      37.560  12.823  14.666  0.00  0.00    -0.307 OA
HETATM   31  H   UNK N   1      38.409  12.403  14.878  0.00  0.00     0.222 HD
ENDBRANCH  26  30
ENDBRANCH  25  26
ENDBRANCH  24  25
ENDBRANCH  23  24
BRANCH  23  32
HETATM   32  O   UNK N   1      34.342  12.732  12.364  0.00  0.00    -0.391 OA
HETATM   33  H   UNK N   1      33.677  12.036  12.246  0.00  0.00     0.210 HD
ENDBRANCH  23  32
ENDBRANCH  22  23
BRANCH  22  34
HETATM   34  O   UNK N   1      36.406  15.501  11.191  0.00  0.00    -0.390 OA
HETATM   35  H   UNK N   1      36.666  16.359  11.562  0.00  0.00     0.210 HD
ENDBRANCH  22  34
ENDBRANCH  21  22
BRANCH  21  36
HETATM   36  O   UNK N   1      32.906  15.109  11.006  0.00  0.00    -0.391 OA
HETATM   37  H   UNK N   1      32.733  15.392  11.918  0.00  0.00     0.210 HD
ENDBRANCH  21  36
ENDBRANCH  20  21
ENDBRANCH  17  20
BRANCH  18  38
HETATM   38  S   UNK N   1      32.683  15.491   3.804  0.00  0.00     0.216 S 
HETATM   39  O   UNK N   1      31.270  15.807   3.305  0.00  0.00    -0.577 OA
HETATM   40  O   UNK N   1      31.506  14.656   4.741  0.00  0.00    -0.577 OA
HETATM   41  O   UNK N   1      32.655  17.022   3.915  0.00  0.00    -0.577 OA
ENDBRANCH  18  38
BRANCH  11  42
HETATM   42  O   UNK N   1      30.375  17.076   5.135  0.00  0.00    -0.344 OA
HETATM   43  H   UNK N   1      30.267  16.288   4.641  0.00  0.00     0.219 HD
ENDBRANCH  11  42
TORSDOF 14
ENDMDL
MODEL 8
REMARK VINA RESULT:      -6.9      5.651      9.581
REMARK  14 active torsions:
REMARK  status: ('A' for Active; 'I' for Inactive)
REMARK    1  A    between atoms: C_11  and  C_5 
REMARK    2  A    between atoms: N_22  and  C_5 
REMARK    3  A    between atoms: C_12  and  C_6 
REMARK    4  A    between atoms: O_35  and  C_6 
REMARK    5  A    between atoms: C_14  and  C_11 
REMARK    6  A    between atoms: C_11  and  O_24 
REMARK    7  A    between atoms: C_14  and  C_12 
REMARK    8  A    between atoms: C_12  and  O_25 
REMARK    9  A    between atoms: C_14  and  O_26 
REMARK   10  A    between atoms: O_27  and  C_16 
REMARK   11  A    between atoms: S_37  and  N_23 
REMARK   12  A    between atoms: P_36  and  O_29 
REMARK   13  A    between atoms: P_36  and  O_30 
REMARK   14  A    between atoms: P_36  and  O_35 
ROOT
HETATM    1  C   UNK N   1      35.035  13.917  18.190  0.00  0.00     0.049 C 
HETATM    2  C   UNK N   1      35.498  11.263  19.404  0.00  0.00     0.049 C 
HETATM    3  C   UNK N   1      35.735  12.934  16.025  0.00  0.00     0.039 A 
HETATM    4  C   UNK N   1      36.121  10.433  17.138  0.00  0.00     0.040 A 
HETATM    5  C   UNK N   1      35.485  12.750  17.376  0.00  0.00    -0.054 A 
HETATM    6  C   UNK N   1      35.697  11.492  17.945  0.00  0.00    -0.054 A 
HETATM    7  C   UNK N   1      36.223  11.888  15.213  0.00  0.00     0.065 A 
HETATM    8  C   UNK N   1      36.392  10.603  15.759  0.00  0.00     0.081 A 
HETATM    9  C   UNK N   1      37.186   9.805  13.630  0.00  0.00     0.148 A 
HETATM   10  C   UNK N   1      37.038  11.131  13.126  0.00  0.00     0.145 A 
HETATM   11  C   UNK N   1      37.696   8.835  12.693  0.00  0.00     0.176 A 
HETATM   12  C   UNK N   1      37.856  10.482  10.993  0.00  0.00     0.327 A 
HETATM   13  N   UNK N   1      37.379  11.427  11.839  0.00  0.00    -0.292 N 
ATOM     14  HN  UNK N   1      37.272  12.384  11.505  1.00  0.00     0.172 HD
HETATM   15  N   UNK N   1      38.007   9.205  11.424  0.00  0.00    -0.287 N 
ATOM     16  HN  UNK N   1      38.364   8.503  10.777  1.00  0.00     0.172 HD
HETATM   17  N   UNK N   1      36.580  12.132  13.922  0.00  0.00    -0.327 N 
HETATM   18  N   UNK N   1      36.856   9.549  14.988  0.00  0.00    -0.211 N 
HETATM   19  O   UNK N   1      38.151  10.780   9.850  0.00  0.00    -0.247 OA
ENDROOT
BRANCH  17  20
HETATM   20  C   UNK N   1      36.584  13.507  13.410  0.00  0.00     0.165 C 
BRANCH  20  21
HETATM   21  C   UNK N   1      35.134  13.911  13.070  0.00  0.00     0.167 C 
BRANCH  21  22
HETATM   22  C   UNK N   1      35.087  14.973  11.966  0.00  0.00     0.179 C 
BRANCH  22  23
HETATM   23  C   UNK N   1      36.258  14.863  10.951  0.00  0.00     0.173 C 
BRANCH  23  24
HETATM   24  C   UNK N   1      35.767  14.434   9.553  0.00  0.00     0.214 C 
BRANCH  24  25
HETATM   25  O   UNK N   1      36.104  13.091   9.272  0.00  0.00    -0.294 OA
BRANCH  25  26
HETATM   26  P   UNK N   1      34.656  12.310   8.674  0.00  0.00     0.390 P 
HETATM   27  O   UNK N   1      34.671  11.885  10.168  0.00  0.00    -0.632 OA
BRANCH  26  28
HETATM   28  O   UNK N   1      33.073  12.742   9.235  0.00  0.00    -0.307 OA
HETATM   29  H   UNK N   1      32.153  12.615   8.955  0.00  0.00     0.222 HD
ENDBRANCH  26  28
BRANCH  26  30
HETATM   30  O   UNK N   1      34.441  14.028   8.574  0.00  0.00    -0.307 OA
HETATM   31  H   UNK N   1      33.980  14.653   9.155  0.00  0.00     0.222 HD
ENDBRANCH  26  30
ENDBRANCH  25  26
ENDBRANCH  24  25
ENDBRANCH  23  24
BRANCH  23  32
HETATM   32  O   UNK N   1      36.981  16.057  10.857  0.00  0.00    -0.391 OA
HETATM   33  H   UNK N   1      37.166  16.974  11.113  0.00  0.00     0.210 HD
ENDBRANCH  23  32
ENDBRANCH  22  23
BRANCH  22  34
HETATM   34  O   UNK N   1      33.869  14.857  11.292  0.00  0.00    -0.390 OA
HETATM   35  H   UNK N   1      33.804  15.081  10.351  0.00  0.00     0.210 HD
ENDBRANCH  22  34
ENDBRANCH  21  22
BRANCH  21  36
HETATM   36  O   UNK N   1      34.388  12.795  12.688  0.00  0.00    -0.391 OA
HETATM   37  H   UNK N   1      34.012  12.690  11.800  0.00  0.00     0.210 HD
ENDBRANCH  21  36
ENDBRANCH  20  21
ENDBRANCH  17  20
BRANCH  18  38
HETATM   38  S   UNK N   1      36.987   7.982  15.937  0.00  0.00     0.216 S 
HETATM   39  O   UNK N   1      37.221   6.695  15.142  0.00  0.00    -0.577 OA
HETATM   40  O   UNK N   1      35.805   7.809  14.699  0.00  0.00    -0.577 OA
HETATM   41  O   UNK N   1      38.431   8.180  15.453  0.00  0.00    -0.577 OA
ENDBRANCH  18  38
BRANCH  11  42
HETATM   42  O   UNK N   1      37.892   7.555  13.004  0.00  0.00    -0.344 OA
HETATM   43  H   UNK N   1      37.649   6.864  12.420  0.00  0.00     0.219 HD
ENDBRANCH  11  42
TORSDOF 14
ENDMDL
MODEL 9
REMARK VINA RESULT:      -6.9      4.320      8.328
REMARK  14 active torsions:
REMARK  status: ('A' for Active; 'I' for Inactive)
REMARK    1  A    between atoms: C_11  and  C_5 
REMARK    2  A    between atoms: N_22  and  C_5 
REMARK    3  A    between atoms: C_12  and  C_6 
REMARK    4  A    between atoms: O_35  and  C_6 
REMARK    5  A    between atoms: C_14  and  C_11 
REMARK    6  A    between atoms: C_11  and  O_24 
REMARK    7  A    between atoms: C_14  and  C_12 
REMARK    8  A    between atoms: C_12  and  O_25 
REMARK    9  A    between atoms: C_14  and  O_26 
REMARK   10  A    between atoms: O_27  and  C_16 
REMARK   11  A    between atoms: S_37  and  N_23 
REMARK   12  A    between atoms: P_36  and  O_29 
REMARK   13  A    between atoms: P_36  and  O_30 
REMARK   14  A    between atoms: P_36  and  O_35 
ROOT
HETATM    1  C   UNK N   1      33.740   8.523   8.213  0.00  0.00     0.049 C 
HETATM    2  C   UNK N   1      34.005   7.703  11.040  0.00  0.00     0.049 C 
HETATM    3  C   UNK N   1      34.475  10.786   8.908  0.00  0.00     0.039 A 
HETATM    4  C   UNK N   1      34.778  10.018  11.546  0.00  0.00     0.040 A 
HETATM    5  C   UNK N   1      34.206   9.474   9.265  0.00  0.00    -0.054 A 
HETATM    6  C   UNK N   1      34.340   9.087  10.600  0.00  0.00    -0.054 A 
HETATM    7  C   UNK N   1      34.858  11.749   9.865  0.00  0.00     0.065 A 
HETATM    8  C   UNK N   1      35.048  11.365  11.204  0.00  0.00     0.081 A 
HETATM    9  C   UNK N   1      35.613  13.635  11.776  0.00  0.00     0.148 A 
HETATM   10  C   UNK N   1      35.372  13.992  10.415  0.00  0.00     0.145 A 
HETATM   11  C   UNK N   1      35.997  14.718  12.645  0.00  0.00     0.176 A 
HETATM   12  C   UNK N   1      35.857  16.274  10.860  0.00  0.00     0.327 A 
HETATM   13  N   UNK N   1      35.495  15.286  10.005  0.00  0.00    -0.292 N 
ATOM     14  HN  UNK N   1      35.308  15.518   9.030  1.00  0.00     0.172 HD
HETATM   15  N   UNK N   1      36.105  15.982  12.160  0.00  0.00    -0.287 N 
ATOM     16  HN  UNK N   1      36.379  16.733  12.793  1.00  0.00     0.172 HD
HETATM   17  N   UNK N   1      34.991  13.056   9.507  0.00  0.00    -0.327 N 
HETATM   18  N   UNK N   1      35.437  12.280  12.168  0.00  0.00    -0.211 N 
HETATM   19  O   UNK N   1      35.956  17.420  10.460  0.00  0.00    -0.247 OA
ENDROOT
BRANCH  17  20
HETATM   20  C   UNK N   1      34.609  13.489   8.159  0.00  0.00     0.165 C 
BRANCH  20  21
HETATM   21  C   UNK N   1      33.272  14.255   8.247  0.00  0.00     0.167 C 
BRANCH  21  22
HETATM   22  C   UNK N   1      33.304  15.545   7.418  0.00  0.00     0.179 C 
BRANCH  22  23
HETATM   23  C   UNK N   1      32.666  16.762   8.142  0.00  0.00     0.173 C 
BRANCH  23  24
HETATM   24  C   UNK N   1      31.128  16.761   8.018  0.00  0.00     0.214 C 
BRANCH  24  25
HETATM   25  O   UNK N   1      30.559  17.921   8.590  0.00  0.00    -0.294 OA
BRANCH  25  26
HETATM   26  P   UNK N   1      29.135  17.415   9.474  0.00  0.00     0.390 P 
HETATM   27  O   UNK N   1      29.489  18.765  10.156  0.00  0.00    -0.632 OA
BRANCH  26  28
HETATM   28  O   UNK N   1      27.646  18.302   9.415  0.00  0.00    -0.307 OA
HETATM   29  H   UNK N   1      26.777  18.274   9.845  0.00  0.00     0.222 HD
ENDBRANCH  26  28
BRANCH  26  30
HETATM   30  O   UNK N   1      28.687  17.712   7.825  0.00  0.00    -0.307 OA
HETATM   31  H   UNK N   1      27.986  17.334   7.271  0.00  0.00     0.222 HD
ENDBRANCH  26  30
ENDBRANCH  25  26
ENDBRANCH  24  25
ENDBRANCH  23  24
BRANCH  23  32
HETATM   32  O   UNK N   1      33.035  16.820   9.489  0.00  0.00    -0.391 OA
HETATM   33  H   UNK N   1      32.942  17.157  10.394  0.00  0.00     0.210 HD
ENDBRANCH  23  32
ENDBRANCH  22  23
BRANCH  22  34
HETATM   34  O   UNK N   1      34.633  15.832   7.098  0.00  0.00    -0.390 OA
HETATM   35  H   UNK N   1      35.285  15.992   7.798  0.00  0.00     0.210 HD
ENDBRANCH  22  34
ENDBRANCH  21  22
BRANCH  21  36
HETATM   36  O   UNK N   1      32.213  13.449   7.829  0.00  0.00    -0.391 OA
HETATM   37  H   UNK N   1      32.042  13.241   6.897  0.00  0.00     0.210 HD
ENDBRANCH  21  36
ENDBRANCH  20  21
ENDBRANCH  17  20
BRANCH  18  38
HETATM   38  S   UNK N   1      35.614  11.525  13.833  0.00  0.00     0.216 S 
HETATM   39  O   UNK N   1      36.292  12.365  14.919  0.00  0.00    -0.577 OA
HETATM   40  O   UNK N   1      37.145  12.096  13.293  0.00  0.00    -0.577 OA
HETATM   41  O   UNK N   1      34.555  12.607  14.088  0.00  0.00    -0.577 OA
ENDBRANCH  18  38
BRANCH  11  42
HETATM   42  O   UNK N   1      36.259  14.555  13.942  0.00  0.00    -0.344 OA
HETATM   43  H   UNK N   1      37.112  14.713  14.295  0.00  0.00     0.219 HD
ENDBRANCH  11  42
TORSDOF 14
ENDMDL
