MODEL 1
REMARK VINA RESULT:      -6.0      0.000      0.000
REMARK  4 active torsions:
REMARK  status: ('A' for Active; 'I' for Inactive)
REMARK    1  A    between atoms: C_6  and  C_5 
REMARK    2  A    between atoms: O_11  and  C_7 
REMARK    3  A    between atoms: C_9  and  C_8 
REMARK    4  A    between atoms: O_14  and  C_9 
ROOT
HETATM    1  C   UNK N   1      31.073  18.256   8.692  0.00  0.00     0.014 A 
HETATM    2  C   UNK N   1      29.908  17.015   6.993  0.00  0.00     0.014 A 
HETATM    3  C   UNK N   1      29.866  18.524   9.338  0.00  0.00     0.037 A 
HETATM    4  C   UNK N   1      28.692  17.279   7.635  0.00  0.00     0.037 A 
HETATM    5  C   UNK N   1      31.117  17.503   7.517  0.00  0.00    -0.033 A 
HETATM    6  C   UNK N   1      28.674  18.036   8.810  0.00  0.00     0.065 A 
ENDROOT
BRANCH   5   7
HETATM    7  C   UNK N   1      32.383  17.187   6.786  0.00  0.00     0.060 C 
HETATM    8  C   UNK N   1      33.686  17.408   7.124  0.00  0.00     0.190 C 
HETATM    9  F   UNK N   1      34.613  16.992   6.218  0.00  0.00    -0.199 F 
BRANCH   8  10
HETATM   10  C   UNK N   1      34.249  18.045   8.353  0.00  0.00     0.206 C 
HETATM   11  O   UNK N   1      34.820  19.120   8.340  0.00  0.00    -0.644 OA
BRANCH  10  12
HETATM   12  O   UNK N   1      34.121  17.403   9.527  0.00  0.00    -0.771 OA
HETATM   13  H   UNK N   1      33.812  16.519   9.546  0.00  0.00     0.167 HD
ENDBRANCH  10  12
ENDBRANCH   8  10
ENDBRANCH   5   7
BRANCH   6  14
HETATM   14  O   UNK N   1      27.513  18.293   9.431  0.00  0.00    -0.361 OA
ATOM     15  HO  UNK N   1      27.092  19.137   9.317  1.00  0.00     0.217 HD
ENDBRANCH   6  14
TORSDOF 4
ENDMDL
MODEL 2
REMARK VINA RESULT:      -5.7      1.538      2.117
REMARK  4 active torsions:
REMARK  status: ('A' for Active; 'I' for Inactive)
REMARK    1  A    between atoms: C_6  and  C_5 
REMARK    2  A    between atoms: O_11  and  C_7 
REMARK    3  A    between atoms: C_9  and  C_8 
REMARK    4  A    between atoms: O_14  and  C_9 
ROOT
HETATM    1  C   UNK N   1      30.677  16.888   7.067  0.00  0.00     0.014 A 
HETATM    2  C   UNK N   1      30.519  18.105   9.136  0.00  0.00     0.014 A 
HETATM    3  C   UNK N   1      29.476  17.449   6.633  0.00  0.00     0.037 A 
HETATM    4  C   UNK N   1      29.312  18.672   8.708  0.00  0.00     0.037 A 
HETATM    5  C   UNK N   1      31.218  17.201   8.315  0.00  0.00    -0.033 A 
HETATM    6  C   UNK N   1      28.793  18.342   7.453  0.00  0.00     0.065 A 
ENDROOT
BRANCH   5   7
HETATM    7  C   UNK N   1      32.500  16.629   8.828  0.00  0.00     0.060 C 
HETATM    8  C   UNK N   1      33.794  16.997   8.599  0.00  0.00     0.190 C 
HETATM    9  F   UNK N   1      34.743  16.253   9.231  0.00  0.00    -0.199 F 
BRANCH   8  10
HETATM   10  C   UNK N   1      34.326  18.105   7.750  0.00  0.00     0.206 C 
HETATM   11  O   UNK N   1      34.229  18.116   6.537  0.00  0.00    -0.644 OA
BRANCH  10  12
HETATM   12  O   UNK N   1      34.942  19.138   8.352  0.00  0.00    -0.771 OA
HETATM   13  H   UNK N   1      35.752  19.462   8.014  0.00  0.00     0.167 HD
ENDBRANCH  10  12
ENDBRANCH   8  10
ENDBRANCH   5   7
BRANCH   6  14
HETATM   14  O   UNK N   1      27.637  18.882   7.037  0.00  0.00    -0.361 OA
ATOM     15  HO  UNK N   1      27.603  19.346   6.208  1.00  0.00     0.217 HD
ENDBRANCH   6  14
TORSDOF 4
ENDMDL
MODEL 3
REMARK VINA RESULT:      -5.6      9.986     11.093
REMARK  4 active torsions:
REMARK  status: ('A' for Active; 'I' for Inactive)
REMARK    1  A    between atoms: C_6  and  C_5 
REMARK    2  A    between atoms: O_11  and  C_7 
REMARK    3  A    between atoms: C_9  and  C_8 
REMARK    4  A    between atoms: O_14  and  C_9 
ROOT
HETATM    1  C   UNK N   1      34.933  13.337  17.543  0.00  0.00     0.014 A 
HETATM    2  C   UNK N   1      35.355  10.999  17.171  0.00  0.00     0.014 A 
HETATM    3  C   UNK N   1      35.201  13.180  18.902  0.00  0.00     0.037 A 
HETATM    4  C   UNK N   1      35.625  10.832  18.534  0.00  0.00     0.037 A 
HETATM    5  C   UNK N   1      35.004  12.260  16.658  0.00  0.00    -0.033 A 
HETATM    6  C   UNK N   1      35.548  11.927  19.399  0.00  0.00     0.065 A 
ENDROOT
BRANCH   5   7
HETATM    7  C   UNK N   1      34.727  12.374  15.193  0.00  0.00     0.060 C 
HETATM    8  C   UNK N   1      35.341  13.113  14.225  0.00  0.00     0.190 C 
HETATM    9  F   UNK N   1      34.833  12.986  12.969  0.00  0.00    -0.199 F 
BRANCH   8  10
HETATM   10  C   UNK N   1      36.500  14.049  14.343  0.00  0.00     0.206 C 
HETATM   11  O   UNK N   1      36.527  15.141  13.807  0.00  0.00    -0.644 OA
BRANCH  10  12
HETATM   12  O   UNK N   1      37.563  13.670  15.074  0.00  0.00    -0.771 OA
HETATM   13  H   UNK N   1      38.265  14.270  15.227  0.00  0.00     0.167 HD
ENDBRANCH  10  12
ENDBRANCH   8  10
ENDBRANCH   5   7
BRANCH   6  14
HETATM   14  O   UNK N   1      35.806  11.775  20.708  0.00  0.00    -0.361 OA
ATOM     15  HO  UNK N   1      36.057  12.527  21.231  1.00  0.00     0.217 HD
ENDBRANCH   6  14
TORSDOF 4
ENDMDL
MODEL 4
REMARK VINA RESULT:      -5.5     14.132     15.124
REMARK  4 active torsions:
REMARK  status: ('A' for Active; 'I' for Inactive)
REMARK    1  A    between atoms: C_6  and  C_5 
REMARK    2  A    between atoms: O_11  and  C_7 
REMARK    3  A    between atoms: C_9  and  C_8 
REMARK    4  A    between atoms: O_14  and  C_9 
ROOT
HETATM    1  C   UNK N   1      27.375  23.883  -2.972  0.00  0.00     0.014 A 
HETATM    2  C   UNK N   1      29.072  25.103  -4.162  0.00  0.00     0.014 A 
HETATM    3  C   UNK N   1      28.353  23.240  -2.215  0.00  0.00     0.037 A 
HETATM    4  C   UNK N   1      30.061  24.461  -3.406  0.00  0.00     0.037 A 
HETATM    5  C   UNK N   1      27.711  24.819  -3.952  0.00  0.00    -0.033 A 
HETATM    6  C   UNK N   1      29.698  23.529  -2.431  0.00  0.00     0.065 A 
ENDROOT
BRANCH   5   7
HETATM    7  C   UNK N   1      26.702  25.537  -4.790  0.00  0.00     0.060 C 
HETATM    8  C   UNK N   1      25.949  26.642  -4.525  0.00  0.00     0.190 C 
HETATM    9  F   UNK N   1      25.113  27.043  -5.522  0.00  0.00    -0.199 F 
BRANCH   8  10
HETATM   10  C   UNK N   1      25.905  27.484  -3.291  0.00  0.00     0.206 C 
HETATM   11  O   UNK N   1      26.012  27.023  -2.171  0.00  0.00    -0.644 OA
BRANCH  10  12
HETATM   12  O   UNK N   1      25.739  28.812  -3.424  0.00  0.00    -0.771 OA
HETATM   13  H   UNK N   1      24.989  29.230  -3.051  0.00  0.00     0.167 HD
ENDBRANCH  10  12
ENDBRANCH   8  10
ENDBRANCH   5   7
BRANCH   6  14
HETATM   14  O   UNK N   1      30.640  22.910  -1.703  0.00  0.00    -0.361 OA
ATOM     15  HO  UNK N   1      30.388  22.264  -1.053  1.00  0.00     0.217 HD
ENDBRANCH   6  14
TORSDOF 4
ENDMDL
MODEL 5
REMARK VINA RESULT:      -5.5      9.839     10.968
REMARK  4 active torsions:
REMARK  status: ('A' for Active; 'I' for Inactive)
REMARK    1  A    between atoms: C_6  and  C_5 
REMARK    2  A    between atoms: O_11  and  C_7 
REMARK    3  A    between atoms: C_9  and  C_8 
REMARK    4  A    between atoms: O_14  and  C_9 
ROOT
HETATM    1  C   UNK N   1      35.540  13.335  16.831  0.00  0.00     0.014 A 
HETATM    2  C   UNK N   1      35.730  11.112  17.730  0.00  0.00     0.014 A 
HETATM    3  C   UNK N   1      35.181  13.824  18.086  0.00  0.00     0.037 A 
HETATM    4  C   UNK N   1      35.370  11.595  18.995  0.00  0.00     0.037 A 
HETATM    5  C   UNK N   1      35.819  11.982  16.629  0.00  0.00    -0.033 A 
HETATM    6  C   UNK N   1      35.096  12.954  19.170  0.00  0.00     0.065 A 
ENDROOT
BRANCH   5   7
HETATM    7  C   UNK N   1      36.209  11.407  15.305  0.00  0.00     0.060 C 
HETATM    8  C   UNK N   1      36.237  11.971  14.063  0.00  0.00     0.190 C 
HETATM    9  F   UNK N   1      36.648  11.157  13.052  0.00  0.00    -0.199 F 
BRANCH   8  10
HETATM   10  C   UNK N   1      35.881  13.361  13.646  0.00  0.00     0.206 C 
HETATM   11  O   UNK N   1      34.758  13.684  13.310  0.00  0.00    -0.644 OA
BRANCH  10  12
HETATM   12  O   UNK N   1      36.845  14.298  13.643  0.00  0.00    -0.771 OA
HETATM   13  H   UNK N   1      37.331  14.474  14.424  0.00  0.00     0.167 HD
ENDBRANCH  10  12
ENDBRANCH   8  10
ENDBRANCH   5   7
BRANCH   6  14
HETATM   14  O   UNK N   1      34.750  13.424  20.378  0.00  0.00    -0.361 OA
ATOM     15  HO  UNK N   1      35.213  14.167  20.748  1.00  0.00     0.217 HD
ENDBRANCH   6  14
TORSDOF 4
ENDMDL
MODEL 6
REMARK VINA RESULT:      -5.4     10.602     11.708
REMARK  4 active torsions:
REMARK  status: ('A' for Active; 'I' for Inactive)
REMARK    1  A    between atoms: C_6  and  C_5 
REMARK    2  A    between atoms: O_11  and  C_7 
REMARK    3  A    between atoms: C_9  and  C_8 
REMARK    4  A    between atoms: O_14  and  C_9 
ROOT
HETATM    1  C   UNK N   1      35.778  10.768  18.304  0.00  0.00     0.014 A 
HETATM    2  C   UNK N   1      35.455  12.757  16.991  0.00  0.00     0.014 A 
HETATM    3  C   UNK N   1      35.443  11.467  19.463  0.00  0.00     0.037 A 
HETATM    4  C   UNK N   1      35.118  13.466  18.150  0.00  0.00     0.037 A 
HETATM    5  C   UNK N   1      35.791  11.393  17.056  0.00  0.00    -0.033 A 
HETATM    6  C   UNK N   1      35.113  12.817  19.388  0.00  0.00     0.065 A 
ENDROOT
BRANCH   5   7
HETATM    7  C   UNK N   1      36.142  10.691  15.783  0.00  0.00     0.060 C 
HETATM    8  C   UNK N   1      35.475  10.614  14.596  0.00  0.00     0.190 C 
HETATM    9  F   UNK N   1      36.081   9.881  13.622  0.00  0.00    -0.199 F 
BRANCH   8  10
HETATM   10  C   UNK N   1      34.166  11.220  14.204  0.00  0.00     0.206 C 
HETATM   11  O   UNK N   1      33.100  10.839  14.648  0.00  0.00    -0.644 OA
BRANCH  10  12
HETATM   12  O   UNK N   1      34.166  12.233  13.321  0.00  0.00    -0.771 OA
HETATM   13  H   UNK N   1      33.465  12.319  12.706  0.00  0.00     0.167 HD
ENDBRANCH  10  12
ENDBRANCH   8  10
ENDBRANCH   5   7
BRANCH   6  14
HETATM   14  O   UNK N   1      34.790  13.489  20.504  0.00  0.00    -0.361 OA
ATOM     15  HO  UNK N   1      34.985  14.417  20.570  1.00  0.00     0.217 HD
ENDBRANCH   6  14
TORSDOF 4
ENDMDL
MODEL 7
REMARK VINA RESULT:      -5.3      3.166      4.894
REMARK  4 active torsions:
REMARK  status: ('A' for Active; 'I' for Inactive)
REMARK    1  A    between atoms: C_6  and  C_5 
REMARK    2  A    between atoms: O_11  and  C_7 
REMARK    3  A    between atoms: C_9  and  C_8 
REMARK    4  A    between atoms: O_14  and  C_9 
ROOT
HETATM    1  C   UNK N   1      32.930  15.430   5.539  0.00  0.00     0.014 A 
HETATM    2  C   UNK N   1      32.223  17.473   4.484  0.00  0.00     0.014 A 
HETATM    3  C   UNK N   1      33.454  14.974   4.330  0.00  0.00     0.037 A 
HETATM    4  C   UNK N   1      32.747  17.023   3.265  0.00  0.00     0.037 A 
HETATM    5  C   UNK N   1      32.310  16.677   5.639  0.00  0.00    -0.033 A 
HETATM    6  C   UNK N   1      33.363  15.770   3.191  0.00  0.00     0.065 A 
ENDROOT
BRANCH   5   7
HETATM    7  C   UNK N   1      31.732  17.212   6.910  0.00  0.00     0.060 C 
HETATM    8  C   UNK N   1      32.341  17.703   8.028  0.00  0.00     0.190 C 
HETATM    9  F   UNK N   1      31.509  18.116   9.023  0.00  0.00    -0.199 F 
BRANCH   8  10
HETATM   10  C   UNK N   1      33.798  17.856   8.322  0.00  0.00     0.206 C 
HETATM   11  O   UNK N   1      34.597  18.278   7.507  0.00  0.00    -0.644 OA
BRANCH  10  12
HETATM   12  O   UNK N   1      34.248  17.512   9.541  0.00  0.00    -0.771 OA
HETATM   13  H   UNK N   1      35.066  17.067   9.630  0.00  0.00     0.167 HD
ENDBRANCH  10  12
ENDBRANCH   8  10
ENDBRANCH   5   7
BRANCH   6  14
HETATM   14  O   UNK N   1      33.867  15.332   2.027  0.00  0.00    -0.361 OA
ATOM     15  HO  UNK N   1      34.804  15.205   1.935  1.00  0.00     0.217 HD
ENDBRANCH   6  14
TORSDOF 4
ENDMDL
MODEL 8
REMARK VINA RESULT:      -5.3      1.956      2.704
REMARK  4 active torsions:
REMARK  status: ('A' for Active; 'I' for Inactive)
REMARK    1  A    between atoms: C_6  and  C_5 
REMARK    2  A    between atoms: O_11  and  C_7 
REMARK    3  A    between atoms: C_9  and  C_8 
REMARK    4  A    between atoms: O_14  and  C_9 
ROOT
HETATM    1  C   UNK N   1      29.915  17.099   7.004  0.00  0.00     0.014 A 
HETATM    2  C   UNK N   1      30.922  18.164   8.911  0.00  0.00     0.014 A 
HETATM    3  C   UNK N   1      28.680  17.656   7.331  0.00  0.00     0.037 A 
HETATM    4  C   UNK N   1      29.685  18.728   9.247  0.00  0.00     0.037 A 
HETATM    5  C   UNK N   1      31.051  17.339   7.779  0.00  0.00    -0.033 A 
HETATM    6  C   UNK N   1      28.563  18.472   8.454  0.00  0.00     0.065 A 
ENDROOT
BRANCH   5   7
HETATM    7  C   UNK N   1      32.398  16.767   7.473  0.00  0.00     0.060 C 
HETATM    8  C   UNK N   1      33.031  15.665   7.968  0.00  0.00     0.190 C 
HETATM    9  F   UNK N   1      34.273  15.419   7.468  0.00  0.00    -0.199 F 
BRANCH   8  10
HETATM   10  C   UNK N   1      32.557  14.680   8.988  0.00  0.00     0.206 C 
HETATM   11  O   UNK N   1      32.323  13.516   8.725  0.00  0.00    -0.644 OA
BRANCH  10  12
HETATM   12  O   UNK N   1      32.382  15.098  10.253  0.00  0.00    -0.771 OA
HETATM   13  H   UNK N   1      31.665  15.663  10.465  0.00  0.00     0.167 HD
ENDBRANCH  10  12
ENDBRANCH   8  10
ENDBRANCH   5   7
BRANCH   6  14
HETATM   14  O   UNK N   1      27.375  19.008   8.770  0.00  0.00    -0.361 OA
ATOM     15  HO  UNK N   1      27.337  19.825   9.254  1.00  0.00     0.217 HD
ENDBRANCH   6  14
TORSDOF 4
ENDMDL
MODEL 9
REMARK VINA RESULT:      -5.3      3.518      6.007
REMARK  4 active torsions:
REMARK  status: ('A' for Active; 'I' for Inactive)
REMARK    1  A    between atoms: C_6  and  C_5 
REMARK    2  A    between atoms: O_11  and  C_7 
REMARK    3  A    between atoms: C_9  and  C_8 
REMARK    4  A    between atoms: O_14  and  C_9 
ROOT
HETATM    1  C   UNK N   1      34.972  15.649  11.212  0.00  0.00     0.014 A 
HETATM    2  C   UNK N   1      35.361  14.928   8.950  0.00  0.00     0.014 A 
HETATM    3  C   UNK N   1      36.111  14.966  11.637  0.00  0.00     0.037 A 
HETATM    4  C   UNK N   1      36.507  14.239   9.369  0.00  0.00     0.037 A 
HETATM    5  C   UNK N   1      34.578  15.644   9.873  0.00  0.00    -0.033 A 
HETATM    6  C   UNK N   1      36.879  14.260  10.716  0.00  0.00     0.065 A 
ENDROOT
BRANCH   5   7
HETATM    7  C   UNK N   1      33.367  16.359   9.364  0.00  0.00     0.060 C 
HETATM    8  C   UNK N   1      33.251  17.425   8.521  0.00  0.00     0.190 C 
HETATM    9  F   UNK N   1      31.980  17.837   8.258  0.00  0.00    -0.199 F 
BRANCH   8  10
HETATM   10  C   UNK N   1      34.321  18.213   7.839  0.00  0.00     0.206 C 
HETATM   11  O   UNK N   1      34.998  19.045   8.412  0.00  0.00    -0.644 OA
BRANCH  10  12
HETATM   12  O   UNK N   1      34.548  17.993   6.532  0.00  0.00    -0.771 OA
HETATM   13  H   UNK N   1      35.355  18.268   6.144  0.00  0.00     0.167 HD
ENDBRANCH  10  12
ENDBRANCH   8  10
ENDBRANCH   5   7
BRANCH   6  14
HETATM   14  O   UNK N   1      37.976  13.602  11.124  0.00  0.00    -0.361 OA
ATOM     15  HO  UNK N   1      38.647  14.061  11.617  1.00  0.00     0.217 HD
ENDBRANCH   6  14
TORSDOF 4
ENDMDL
