MODEL 1
REMARK VINA RESULT:      -9.0      0.000      0.000
REMARK  5 active torsions:
REMARK  status: ('A' for Active; 'I' for Inactive)
REMARK    1  A    between atoms: C_11  and  C_15 
REMARK    2  A    between atoms: C_15  and  C_19 
REMARK    3  A    between atoms: N_16  and  O_18 
REMARK    4  A    between atoms: C_24  and  C_29 
REMARK    5  A    between atoms: C_29  and  O_30 
ROOT
HETATM    1  C   UNK N   1      26.646  19.959   5.366  0.00  0.00     0.074 C 
HETATM    2  N   UNK N   1      26.614  21.187   5.790  0.00  0.00    -0.268 N 
ATOM      3  HN  UNK N   1      25.775  21.742   5.620  1.00  0.00     0.194 HD
ENDROOT
BRANCH   1   4
HETATM    4  C   UNK N   1      27.831  19.051   5.615  0.00  0.00    -0.006 A 
HETATM    5  C   UNK N   1      28.185  18.786   6.940  0.00  0.00     0.022 A 
HETATM    6  C   UNK N   1      29.268  17.996   7.297  0.00  0.00    -0.042 A 
HETATM    7  C   UNK N   1      29.506  17.727   8.774  0.00  0.00    -0.020 C 
HETATM    8  C   UNK N   1      30.085  17.459   6.278  0.00  0.00    -0.043 A 
HETATM    9  C   UNK N   1      30.524  16.614   9.001  0.00  0.00     0.015 C 
HETATM   10  C   UNK N   1      29.956  19.007   9.461  0.00  0.00     0.020 C 
HETATM   11  C   UNK N   1      28.218  17.262   9.436  0.00  0.00     0.020 C 
HETATM   12  C   UNK N   1      31.722  16.780   8.090  0.00  0.00     0.015 C 
HETATM   13  C   UNK N   1      31.325  16.647   6.616  0.00  0.00    -0.020 C 
HETATM   14  C   UNK N   1      31.094  15.187   6.266  0.00  0.00     0.020 C 
HETATM   15  C   UNK N   1      32.517  17.154   5.823  0.00  0.00     0.020 C 
HETATM   16  C   UNK N   1      29.743  17.707   4.930  0.00  0.00     0.009 A 
HETATM   17  C   UNK N   1      28.631  18.502   4.603  0.00  0.00     0.014 A 
ENDBRANCH   1   4
BRANCH   1  18
HETATM   18  C   UNK N   1      25.430  19.402   4.693  0.00  0.00    -0.006 A 
HETATM   19  C   UNK N   1      25.029  18.081   4.965  0.00  0.00     0.014 A 
HETATM   20  C   UNK N   1      23.839  17.566   4.482  0.00  0.00     0.013 A 
HETATM   21  C   UNK N   1      23.007  18.369   3.721  0.00  0.00    -0.025 A 
HETATM   22  C   UNK N   1      21.771  17.876   3.318  0.00  0.00     0.030 A 
HETATM   23  C   UNK N   1      23.396  19.688   3.390  0.00  0.00    -0.025 A 
HETATM   24  C   UNK N   1      20.897  18.680   2.587  0.00  0.00     0.038 A 
HETATM   25  C   UNK N   1      21.282  19.986   2.239  0.00  0.00     0.019 A 
HETATM   26  C   UNK N   1      22.531  20.488   2.636  0.00  0.00     0.013 A 
HETATM   27  C   UNK N   1      24.618  20.196   3.863  0.00  0.00     0.026 A 
BRANCH  24  28
HETATM   28  C   UNK N   1      19.568  18.152   2.223  0.00  0.00     0.176 C 
HETATM   29  O   UNK N   1      19.469  17.130   1.563  0.00  0.00    -0.646 OA
BRANCH  28  30
HETATM   30  O   UNK N   1      18.453  18.812   2.597  0.00  0.00    -0.773 OA
HETATM   31  H   UNK N   1      18.081  18.821   3.456  0.00  0.00     0.167 HD
ENDBRANCH  28  30
ENDBRANCH  24  28
ENDBRANCH   1  18
BRANCH   2  32
HETATM   32  O   UNK N   1      27.617  21.743   6.428  0.00  0.00    -0.289 OA
HETATM   33  H   UNK N   1      27.687  21.678   7.361  0.00  0.00     0.244 HD
ENDBRANCH   2  32
TORSDOF 5
ENDMDL
MODEL 2
REMARK VINA RESULT:      -8.9      6.526     12.229
REMARK  5 active torsions:
REMARK  status: ('A' for Active; 'I' for Inactive)
REMARK    1  A    between atoms: C_11  and  C_15 
REMARK    2  A    between atoms: C_15  and  C_19 
REMARK    3  A    between atoms: N_16  and  O_18 
REMARK    4  A    between atoms: C_24  and  C_29 
REMARK    5  A    between atoms: C_29  and  O_30 
ROOT
HETATM    1  C   UNK N   1      34.408  17.255   8.864  0.00  0.00     0.074 C 
HETATM    2  N   UNK N   1      35.173  18.305   8.902  0.00  0.00    -0.268 N 
ATOM      3  HN  UNK N   1      36.049  18.254   9.422  1.00  0.00     0.194 HD
ENDROOT
BRANCH   1   4
HETATM    4  C   UNK N   1      33.114  17.229   8.080  0.00  0.00    -0.006 A 
HETATM    5  C   UNK N   1      31.927  17.493   8.768  0.00  0.00     0.022 A 
HETATM    6  C   UNK N   1      30.677  17.470   8.168  0.00  0.00    -0.042 A 
HETATM    7  C   UNK N   1      29.468  17.844   9.011  0.00  0.00    -0.020 C 
HETATM    8  C   UNK N   1      30.582  17.123   6.802  0.00  0.00    -0.043 A 
HETATM    9  C   UNK N   1      28.221  18.071   8.162  0.00  0.00     0.015 C 
HETATM   10  C   UNK N   1      29.214  16.762  10.049  0.00  0.00     0.020 C 
HETATM   11  C   UNK N   1      29.724  19.152   9.742  0.00  0.00     0.020 C 
HETATM   12  C   UNK N   1      28.071  16.986   7.117  0.00  0.00     0.015 C 
HETATM   13  C   UNK N   1      29.230  17.010   6.115  0.00  0.00    -0.020 C 
HETATM   14  C   UNK N   1      29.054  18.160   5.138  0.00  0.00     0.020 C 
HETATM   15  C   UNK N   1      29.138  15.703   5.348  0.00  0.00     0.020 C 
HETATM   16  C   UNK N   1      31.769  16.858   6.084  0.00  0.00     0.009 A 
HETATM   17  C   UNK N   1      33.022  16.903   6.719  0.00  0.00     0.014 A 
ENDBRANCH   1   4
BRANCH   1  18
HETATM   18  C   UNK N   1      34.873  16.006   9.545  0.00  0.00    -0.006 A 
HETATM   19  C   UNK N   1      35.292  14.908   8.771  0.00  0.00     0.014 A 
HETATM   20  C   UNK N   1      35.862  13.785   9.346  0.00  0.00     0.013 A 
HETATM   21  C   UNK N   1      36.043  13.739  10.718  0.00  0.00    -0.025 A 
HETATM   22  C   UNK N   1      36.700  12.649  11.278  0.00  0.00     0.030 A 
HETATM   23  C   UNK N   1      35.595  14.804  11.533  0.00  0.00    -0.025 A 
HETATM   24  C   UNK N   1      36.933  12.598  12.652  0.00  0.00     0.038 A 
HETATM   25  C   UNK N   1      36.477  13.645  13.472  0.00  0.00     0.019 A 
HETATM   26  C   UNK N   1      35.805  14.744  12.914  0.00  0.00     0.013 A 
HETATM   27  C   UNK N   1      34.994  15.929  10.945  0.00  0.00     0.026 A 
BRANCH  24  28
HETATM   28  C   UNK N   1      37.685  11.459  13.213  0.00  0.00     0.176 C 
HETATM   29  O   UNK N   1      37.596  10.352  12.709  0.00  0.00    -0.646 OA
BRANCH  28  30
HETATM   30  O   UNK N   1      38.458  11.632  14.305  0.00  0.00    -0.773 OA
HETATM   31  H   UNK N   1      38.599  11.004  14.985  0.00  0.00     0.167 HD
ENDBRANCH  28  30
ENDBRANCH  24  28
ENDBRANCH   1  18
BRANCH   2  32
HETATM   32  O   UNK N   1      34.865  19.428   8.297  0.00  0.00    -0.289 OA
HETATM   33  H   UNK N   1      35.514  20.089   8.153  0.00  0.00     0.244 HD
ENDBRANCH   2  32
TORSDOF 5
ENDMDL
MODEL 3
REMARK VINA RESULT:      -8.7      6.423     12.361
REMARK  5 active torsions:
REMARK  status: ('A' for Active; 'I' for Inactive)
REMARK    1  A    between atoms: C_11  and  C_15 
REMARK    2  A    between atoms: C_15  and  C_19 
REMARK    3  A    between atoms: N_16  and  O_18 
REMARK    4  A    between atoms: C_24  and  C_29 
REMARK    5  A    between atoms: C_29  and  O_30 
ROOT
HETATM    1  C   UNK N   1      34.204  17.207   8.901  0.00  0.00     0.074 C 
HETATM    2  N   UNK N   1      34.990  18.243   8.880  0.00  0.00    -0.268 N 
ATOM      3  HN  UNK N   1      35.887  18.185   9.363  1.00  0.00     0.194 HD
ENDROOT
BRANCH   1   4
HETATM    4  C   UNK N   1      32.877  17.189   8.174  0.00  0.00    -0.006 A 
HETATM    5  C   UNK N   1      32.884  16.892   6.808  0.00  0.00     0.022 A 
HETATM    6  C   UNK N   1      31.739  16.873   6.026  0.00  0.00    -0.042 A 
HETATM    7  C   UNK N   1      31.872  16.467   4.567  0.00  0.00    -0.020 C 
HETATM    8  C   UNK N   1      30.502  17.208   6.620  0.00  0.00    -0.043 A 
HETATM    9  C   UNK N   1      30.518  16.195   3.918  0.00  0.00     0.015 C 
HETATM   10  C   UNK N   1      32.621  17.547   3.802  0.00  0.00     0.020 C 
HETATM   11  C   UNK N   1      32.661  15.172   4.453  0.00  0.00     0.020 C 
HETATM   12  C   UNK N   1      29.515  17.269   4.286  0.00  0.00     0.015 C 
HETATM   13  C   UNK N   1      29.229  17.274   5.791  0.00  0.00    -0.020 C 
HETATM   14  C   UNK N   1      28.319  16.113   6.155  0.00  0.00     0.020 C 
HETATM   15  C   UNK N   1      28.491  18.572   6.064  0.00  0.00     0.020 C 
HETATM   16  C   UNK N   1      30.468  17.504   8.000  0.00  0.00     0.009 A 
HETATM   17  C   UNK N   1      31.646  17.502   8.767  0.00  0.00     0.014 A 
ENDBRANCH   1   4
BRANCH   1  18
HETATM   18  C   UNK N   1      34.673  15.966   9.592  0.00  0.00    -0.006 A 
HETATM   19  C   UNK N   1      34.962  14.816   8.834  0.00  0.00     0.014 A 
HETATM   20  C   UNK N   1      35.531  13.691   9.404  0.00  0.00     0.013 A 
HETATM   21  C   UNK N   1      35.844  13.692  10.753  0.00  0.00    -0.025 A 
HETATM   22  C   UNK N   1      36.501  12.595  11.298  0.00  0.00     0.030 A 
HETATM   23  C   UNK N   1      35.529  14.813  11.556  0.00  0.00    -0.025 A 
HETATM   24  C   UNK N   1      36.865  12.590  12.644  0.00  0.00     0.038 A 
HETATM   25  C   UNK N   1      36.541  13.692  13.454  0.00  0.00     0.019 A 
HETATM   26  C   UNK N   1      35.871  14.800  12.912  0.00  0.00     0.013 A 
HETATM   27  C   UNK N   1      34.927  15.942  10.976  0.00  0.00     0.026 A 
BRANCH  24  28
HETATM   28  C   UNK N   1      37.613  11.439  13.183  0.00  0.00     0.176 C 
HETATM   29  O   UNK N   1      37.463  10.326  12.706  0.00  0.00    -0.646 OA
BRANCH  28  30
HETATM   30  O   UNK N   1      38.452  11.606  14.226  0.00  0.00    -0.773 OA
HETATM   31  H   UNK N   1      39.360  11.828  14.172  0.00  0.00     0.167 HD
ENDBRANCH  28  30
ENDBRANCH  24  28
ENDBRANCH   1  18
BRANCH   2  32
HETATM   32  O   UNK N   1      34.678  19.356   8.261  0.00  0.00    -0.289 OA
HETATM   33  H   UNK N   1      34.024  19.365   7.589  0.00  0.00     0.244 HD
ENDBRANCH   2  32
TORSDOF 5
ENDMDL
MODEL 4
REMARK VINA RESULT:      -8.7      4.736      8.198
REMARK  5 active torsions:
REMARK  status: ('A' for Active; 'I' for Inactive)
REMARK    1  A    between atoms: C_11  and  C_15 
REMARK    2  A    between atoms: C_15  and  C_19 
REMARK    3  A    between atoms: N_16  and  O_18 
REMARK    4  A    between atoms: C_24  and  C_29 
REMARK    5  A    between atoms: C_29  and  O_30 
ROOT
HETATM    1  C   UNK N   1      34.135  17.864   8.526  0.00  0.00     0.074 C 
HETATM    2  N   UNK N   1      34.739  19.015   8.500  0.00  0.00    -0.268 N 
ATOM      3  HN  UNK N   1      34.320  19.776   7.966  1.00  0.00     0.194 HD
ENDROOT
BRANCH   1   4
HETATM    4  C   UNK N   1      34.661  16.695   9.329  0.00  0.00    -0.006 A 
HETATM    5  C   UNK N   1      34.527  15.415   8.785  0.00  0.00     0.022 A 
HETATM    6  C   UNK N   1      34.942  14.262   9.437  0.00  0.00    -0.042 A 
HETATM    7  C   UNK N   1      34.803  12.935   8.708  0.00  0.00    -0.020 C 
HETATM    8  C   UNK N   1      35.494  14.372  10.732  0.00  0.00    -0.043 A 
HETATM    9  C   UNK N   1      35.568  11.813   9.402  0.00  0.00     0.015 C 
HETATM   10  C   UNK N   1      33.331  12.575   8.578  0.00  0.00     0.020 C 
HETATM   11  C   UNK N   1      35.390  13.042   7.309  0.00  0.00     0.020 C 
HETATM   12  C   UNK N   1      35.342  11.848  10.899  0.00  0.00     0.015 C 
HETATM   13  C   UNK N   1      35.896  13.135  11.518  0.00  0.00    -0.020 C 
HETATM   14  C   UNK N   1      37.410  13.059  11.615  0.00  0.00     0.020 C 
HETATM   15  C   UNK N   1      35.323  13.195  12.923  0.00  0.00     0.020 C 
HETATM   16  C   UNK N   1      35.646  15.656  11.300  0.00  0.00     0.009 A 
HETATM   17  C   UNK N   1      35.226  16.806  10.607  0.00  0.00     0.014 A 
ENDBRANCH   1   4
BRANCH   1  18
HETATM   18  C   UNK N   1      32.827  17.727   7.810  0.00  0.00    -0.006 A 
HETATM   19  C   UNK N   1      32.815  17.383   6.446  0.00  0.00     0.014 A 
HETATM   20  C   UNK N   1      31.637  17.105   5.775  0.00  0.00     0.013 A 
HETATM   21  C   UNK N   1      30.434  17.150   6.459  0.00  0.00    -0.025 A 
HETATM   22  C   UNK N   1      29.266  16.779   5.803  0.00  0.00     0.030 A 
HETATM   23  C   UNK N   1      30.402  17.534   7.820  0.00  0.00    -0.025 A 
HETATM   24  C   UNK N   1      28.048  16.774   6.482  0.00  0.00     0.038 A 
HETATM   25  C   UNK N   1      28.004  17.171   7.830  0.00  0.00     0.019 A 
HETATM   26  C   UNK N   1      29.179  17.554   8.496  0.00  0.00     0.013 A 
HETATM   27  C   UNK N   1      31.599  17.839   8.489  0.00  0.00     0.026 A 
BRANCH  24  28
HETATM   28  C   UNK N   1      26.833  16.320   5.778  0.00  0.00     0.176 C 
HETATM   29  O   UNK N   1      26.880  15.368   5.016  0.00  0.00    -0.646 OA
BRANCH  28  30
HETATM   30  O   UNK N   1      25.666  16.972   5.955  0.00  0.00    -0.773 OA
HETATM   31  H   UNK N   1      25.487  17.612   6.616  0.00  0.00     0.167 HD
ENDBRANCH  28  30
ENDBRANCH  24  28
ENDBRANCH   1  18
BRANCH   2  32
HETATM   32  O   UNK N   1      35.866  19.237   9.135  0.00  0.00    -0.289 OA
HETATM   33  H   UNK N   1      36.121  18.703   9.861  0.00  0.00     0.244 HD
ENDBRANCH   2  32
TORSDOF 5
ENDMDL
MODEL 5
REMARK VINA RESULT:      -8.6     11.802     14.435
REMARK  5 active torsions:
REMARK  status: ('A' for Active; 'I' for Inactive)
REMARK    1  A    between atoms: C_11  and  C_15 
REMARK    2  A    between atoms: C_15  and  C_19 
REMARK    3  A    between atoms: N_16  and  O_18 
REMARK    4  A    between atoms: C_24  and  C_29 
REMARK    5  A    between atoms: C_29  and  O_30 
ROOT
HETATM    1  C   UNK N   1      29.700  22.826  -3.768  0.00  0.00     0.074 C 
HETATM    2  N   UNK N   1      30.266  22.633  -2.614  0.00  0.00    -0.268 N 
ATOM      3  HN  UNK N   1      30.933  21.866  -2.519  1.00  0.00     0.194 HD
ENDROOT
BRANCH   1   4
HETATM    4  C   UNK N   1      28.735  23.965  -4.011  0.00  0.00    -0.006 A 
HETATM    5  C   UNK N   1      29.173  25.038  -4.792  0.00  0.00     0.022 A 
HETATM    6  C   UNK N   1      28.393  26.154  -5.061  0.00  0.00    -0.042 A 
HETATM    7  C   UNK N   1      28.961  27.222  -5.982  0.00  0.00    -0.020 C 
HETATM    8  C   UNK N   1      27.105  26.239  -4.489  0.00  0.00    -0.043 A 
HETATM    9  C   UNK N   1      27.899  28.221  -6.429  0.00  0.00     0.015 C 
HETATM   10  C   UNK N   1      30.108  27.939  -5.288  0.00  0.00     0.020 C 
HETATM   11  C   UNK N   1      29.501  26.584  -7.253  0.00  0.00     0.020 C 
HETATM   12  C   UNK N   1      27.034  28.652  -5.263  0.00  0.00     0.015 C 
HETATM   13  C   UNK N   1      26.240  27.473  -4.692  0.00  0.00    -0.020 C 
HETATM   14  C   UNK N   1      25.073  27.136  -5.605  0.00  0.00     0.020 C 
HETATM   15  C   UNK N   1      25.690  27.955  -3.361  0.00  0.00     0.020 C 
HETATM   16  C   UNK N   1      26.637  25.164  -3.702  0.00  0.00     0.009 A 
HETATM   17  C   UNK N   1      27.448  24.042  -3.459  0.00  0.00     0.014 A 
ENDBRANCH   1   4
BRANCH   1  18
HETATM   18  C   UNK N   1      30.090  21.945  -4.914  0.00  0.00    -0.006 A 
HETATM   19  C   UNK N   1      31.180  21.067  -4.775  0.00  0.00     0.014 A 
HETATM   20  C   UNK N   1      31.494  20.134  -5.748  0.00  0.00     0.013 A 
HETATM   21  C   UNK N   1      30.711  20.045  -6.886  0.00  0.00    -0.025 A 
HETATM   22  C   UNK N   1      30.975  19.045  -7.815  0.00  0.00     0.030 A 
HETATM   23  C   UNK N   1      29.633  20.940  -7.081  0.00  0.00    -0.025 A 
HETATM   24  C   UNK N   1      30.174  18.907  -8.948  0.00  0.00     0.038 A 
HETATM   25  C   UNK N   1      29.111  19.803  -9.159  0.00  0.00     0.019 A 
HETATM   26  C   UNK N   1      28.844  20.820  -8.229  0.00  0.00     0.013 A 
HETATM   27  C   UNK N   1      29.336  21.901  -6.101  0.00  0.00     0.026 A 
BRANCH  24  28
HETATM   28  C   UNK N   1      30.440  17.801  -9.887  0.00  0.00     0.176 C 
HETATM   29  O   UNK N   1      30.024  17.850 -11.033  0.00  0.00    -0.646 OA
BRANCH  28  30
HETATM   30  O   UNK N   1      31.125  16.715  -9.475  0.00  0.00    -0.773 OA
HETATM   31  H   UNK N   1      30.763  15.966  -9.044  0.00  0.00     0.167 HD
ENDBRANCH  28  30
ENDBRANCH  24  28
ENDBRANCH   1  18
BRANCH   2  32
HETATM   32  O   UNK N   1      30.017  23.384  -1.568  0.00  0.00    -0.289 OA
HETATM   33  H   UNK N   1      30.374  23.170  -0.728  0.00  0.00     0.244 HD
ENDBRANCH   2  32
TORSDOF 5
ENDMDL
MODEL 6
REMARK VINA RESULT:      -8.5      9.640     14.247
REMARK  5 active torsions:
REMARK  status: ('A' for Active; 'I' for Inactive)
REMARK    1  A    between atoms: C_11  and  C_15 
REMARK    2  A    between atoms: C_15  and  C_19 
REMARK    3  A    between atoms: N_16  and  O_18 
REMARK    4  A    between atoms: C_24  and  C_29 
REMARK    5  A    between atoms: C_29  and  O_30 
ROOT
HETATM    1  C   UNK N   1      36.604  14.221  14.351  0.00  0.00     0.074 C 
HETATM    2  N   UNK N   1      37.243  15.290  14.723  0.00  0.00    -0.268 N 
ATOM      3  HN  UNK N   1      37.316  16.068  14.067  1.00  0.00     0.194 HD
ENDROOT
BRANCH   1   4
HETATM    4  C   UNK N   1      36.408  13.038  15.275  0.00  0.00    -0.006 A 
HETATM    5  C   UNK N   1      36.963  11.813  14.895  0.00  0.00     0.022 A 
HETATM    6  C   UNK N   1      36.827  10.651  15.640  0.00  0.00    -0.042 A 
HETATM    7  C   UNK N   1      37.537   9.398  15.153  0.00  0.00    -0.020 C 
HETATM    8  C   UNK N   1      36.058  10.686  16.824  0.00  0.00    -0.043 A 
HETATM    9  C   UNK N   1      37.556   8.298  16.210  0.00  0.00     0.015 C 
HETATM   10  C   UNK N   1      36.877   8.898  13.878  0.00  0.00     0.020 C 
HETATM   11  C   UNK N   1      38.993   9.708  14.843  0.00  0.00     0.020 C 
HETATM   12  C   UNK N   1      36.200   8.156  16.869  0.00  0.00     0.015 C 
HETATM   13  C   UNK N   1      35.817   9.424  17.638  0.00  0.00    -0.020 C 
HETATM   14  C   UNK N   1      36.590   9.500  18.943  0.00  0.00     0.020 C 
HETATM   15  C   UNK N   1      34.339   9.279  17.957  0.00  0.00     0.020 C 
HETATM   16  C   UNK N   1      35.493  11.914  17.232  0.00  0.00     0.009 A 
HETATM   17  C   UNK N   1      35.660  13.077  16.460  0.00  0.00     0.014 A 
ENDBRANCH   1   4
BRANCH   1  18
HETATM   18  C   UNK N   1      35.964  14.202  12.998  0.00  0.00    -0.006 A 
HETATM   19  C   UNK N   1      35.342  13.027  12.540  0.00  0.00     0.014 A 
HETATM   20  C   UNK N   1      34.616  12.997  11.362  0.00  0.00     0.013 A 
HETATM   21  C   UNK N   1      34.480  14.155  10.615  0.00  0.00    -0.025 A 
HETATM   22  C   UNK N   1      33.672  14.141   9.484  0.00  0.00     0.030 A 
HETATM   23  C   UNK N   1      35.127  15.345  11.021  0.00  0.00    -0.025 A 
HETATM   24  C   UNK N   1      33.484  15.304   8.738  0.00  0.00     0.038 A 
HETATM   25  C   UNK N   1      34.137  16.488   9.125  0.00  0.00     0.019 A 
HETATM   26  C   UNK N   1      34.960  16.507  10.261  0.00  0.00     0.013 A 
HETATM   27  C   UNK N   1      35.884  15.362  12.205  0.00  0.00     0.026 A 
BRANCH  24  28
HETATM   28  C   UNK N   1      32.576  15.276   7.576  0.00  0.00     0.176 C 
HETATM   29  O   UNK N   1      32.353  16.294   6.941  0.00  0.00    -0.646 OA
BRANCH  28  30
HETATM   30  O   UNK N   1      31.965  14.127   7.224  0.00  0.00    -0.773 OA
HETATM   31  H   UNK N   1      31.351  13.647   7.745  0.00  0.00     0.167 HD
ENDBRANCH  28  30
ENDBRANCH  24  28
ENDBRANCH   1  18
BRANCH   2  32
HETATM   32  O   UNK N   1      37.796  15.409  15.906  0.00  0.00    -0.289 OA
HETATM   33  H   UNK N   1      37.559  14.835  16.607  0.00  0.00     0.244 HD
ENDBRANCH   2  32
TORSDOF 5
ENDMDL
MODEL 7
REMARK VINA RESULT:      -8.4      9.984     14.648
REMARK  5 active torsions:
REMARK  status: ('A' for Active; 'I' for Inactive)
REMARK    1  A    between atoms: C_11  and  C_15 
REMARK    2  A    between atoms: C_15  and  C_19 
REMARK    3  A    between atoms: N_16  and  O_18 
REMARK    4  A    between atoms: C_24  and  C_29 
REMARK    5  A    between atoms: C_29  and  O_30 
ROOT
HETATM    1  C   UNK N   1      36.963  13.630  11.575  0.00  0.00     0.074 C 
HETATM    2  N   UNK N   1      38.195  13.383  11.242  0.00  0.00    -0.268 N 
ATOM      3  HN  UNK N   1      38.731  12.723  11.805  1.00  0.00     0.194 HD
ENDROOT
BRANCH   1   4
HETATM    4  C   UNK N   1      36.082  14.560  10.769  0.00  0.00    -0.006 A 
HETATM    5  C   UNK N   1      35.529  14.072   9.583  0.00  0.00     0.022 A 
HETATM    6  C   UNK N   1      34.730  14.835   8.743  0.00  0.00    -0.042 A 
HETATM    7  C   UNK N   1      34.132  14.165   7.516  0.00  0.00    -0.020 C 
HETATM    8  C   UNK N   1      34.490  16.187   9.073  0.00  0.00    -0.043 A 
HETATM    9  C   UNK N   1      33.049  15.018   6.865  0.00  0.00     0.015 C 
HETATM   10  C   UNK N   1      35.235  13.851   6.516  0.00  0.00     0.020 C 
HETATM   11  C   UNK N   1      33.461  12.858   7.907  0.00  0.00     0.020 C 
HETATM   12  C   UNK N   1      33.484  16.465   6.764  0.00  0.00     0.015 C 
HETATM   13  C   UNK N   1      33.684  17.086   8.150  0.00  0.00    -0.020 C 
HETATM   14  C   UNK N   1      32.339  17.397   8.783  0.00  0.00     0.020 C 
HETATM   15  C   UNK N   1      34.421  18.392   7.912  0.00  0.00     0.020 C 
HETATM   16  C   UNK N   1      35.033  16.701  10.271  0.00  0.00     0.009 A 
HETATM   17  C   UNK N   1      35.828  15.897  11.107  0.00  0.00     0.014 A 
ENDBRANCH   1   4
BRANCH   1  18
HETATM   18  C   UNK N   1      36.376  12.897  12.740  0.00  0.00    -0.006 A 
HETATM   19  C   UNK N   1      36.121  11.518  12.635  0.00  0.00     0.014 A 
HETATM   20  C   UNK N   1      35.712  10.767  13.724  0.00  0.00     0.013 A 
HETATM   21  C   UNK N   1      35.562  11.378  14.957  0.00  0.00    -0.025 A 
HETATM   22  C   UNK N   1      35.242  10.601  16.065  0.00  0.00     0.030 A 
HETATM   23  C   UNK N   1      35.766  12.771  15.091  0.00  0.00    -0.025 A 
HETATM   24  C   UNK N   1      35.127  11.186  17.325  0.00  0.00     0.038 A 
HETATM   25  C   UNK N   1      35.312  12.573  17.465  0.00  0.00     0.019 A 
HETATM   26  C   UNK N   1      35.627  13.364  16.350  0.00  0.00     0.013 A 
HETATM   27  C   UNK N   1      36.156  13.532  13.977  0.00  0.00     0.026 A 
BRANCH  24  28
HETATM   28  C   UNK N   1      34.846  10.330  18.493  0.00  0.00     0.176 C 
HETATM   29  O   UNK N   1      35.370  10.562  19.570  0.00  0.00    -0.646 OA
BRANCH  28  30
HETATM   30  O   UNK N   1      34.024   9.268  18.370  0.00  0.00    -0.773 OA
HETATM   31  H   UNK N   1      34.130   8.438  18.791  0.00  0.00     0.167 HD
ENDBRANCH  28  30
ENDBRANCH  24  28
ENDBRANCH   1  18
BRANCH   2  32
HETATM   32  O   UNK N   1      38.777  13.947  10.210  0.00  0.00    -0.289 OA
HETATM   33  H   UNK N   1      38.270  14.370   9.545  0.00  0.00     0.244 HD
ENDBRANCH   2  32
TORSDOF 5
ENDMDL
MODEL 8
REMARK VINA RESULT:      -8.3      5.151      5.976
REMARK  5 active torsions:
REMARK  status: ('A' for Active; 'I' for Inactive)
REMARK    1  A    between atoms: C_11  and  C_15 
REMARK    2  A    between atoms: C_15  and  C_19 
REMARK    3  A    between atoms: N_16  and  O_18 
REMARK    4  A    between atoms: C_24  and  C_29 
REMARK    5  A    between atoms: C_29  and  O_30 
ROOT
HETATM    1  C   UNK N   1      25.466  15.398   5.481  0.00  0.00     0.074 C 
HETATM    2  N   UNK N   1      24.849  15.998   4.508  0.00  0.00    -0.268 N 
ATOM      3  HN  UNK N   1      23.841  15.868   4.414  1.00  0.00     0.194 HD
ENDROOT
BRANCH   1   4
HETATM    4  C   UNK N   1      26.950  15.571   5.722  0.00  0.00    -0.006 A 
HETATM    5  C   UNK N   1      27.351  16.480   6.705  0.00  0.00     0.022 A 
HETATM    6  C   UNK N   1      28.680  16.749   6.998  0.00  0.00    -0.042 A 
HETATM    7  C   UNK N   1      28.985  17.708   8.137  0.00  0.00    -0.020 C 
HETATM    8  C   UNK N   1      29.688  16.108   6.244  0.00  0.00    -0.043 A 
HETATM    9  C   UNK N   1      30.454  17.674   8.543  0.00  0.00     0.015 C 
HETATM   10  C   UNK N   1      28.575  19.119   7.743  0.00  0.00     0.020 C 
HETATM   11  C   UNK N   1      28.196  17.316   9.377  0.00  0.00     0.020 C 
HETATM   12  C   UNK N   1      31.354  17.683   7.325  0.00  0.00     0.015 C 
HETATM   13  C   UNK N   1      31.157  16.423   6.476  0.00  0.00    -0.020 C 
HETATM   14  C   UNK N   1      31.839  15.236   7.134  0.00  0.00     0.020 C 
HETATM   15  C   UNK N   1      31.848  16.708   5.154  0.00  0.00     0.020 C 
HETATM   16  C   UNK N   1      29.307  15.180   5.251  0.00  0.00     0.009 A 
HETATM   17  C   UNK N   1      27.951  14.920   4.987  0.00  0.00     0.014 A 
ENDBRANCH   1   4
BRANCH   1  18
HETATM   18  C   UNK N   1      24.662  14.584   6.446  0.00  0.00    -0.006 A 
HETATM   19  C   UNK N   1      25.244  13.461   7.062  0.00  0.00     0.014 A 
HETATM   20  C   UNK N   1      24.595  12.760   8.064  0.00  0.00     0.013 A 
HETATM   21  C   UNK N   1      23.345  13.177   8.488  0.00  0.00    -0.025 A 
HETATM   22  C   UNK N   1      22.740  12.526   9.557  0.00  0.00     0.030 A 
HETATM   23  C   UNK N   1      22.709  14.274   7.863  0.00  0.00    -0.025 A 
HETATM   24  C   UNK N   1      21.500  12.953  10.031  0.00  0.00     0.038 A 
HETATM   25  C   UNK N   1      20.853  14.032   9.405  0.00  0.00     0.019 A 
HETATM   26  C   UNK N   1      21.454  14.689   8.320  0.00  0.00     0.013 A 
HETATM   27  C   UNK N   1      23.363  14.965   6.829  0.00  0.00     0.026 A 
BRANCH  24  28
HETATM   28  C   UNK N   1      20.908  12.282  11.204  0.00  0.00     0.176 C 
HETATM   29  O   UNK N   1      19.699  12.266  11.362  0.00  0.00    -0.646 OA
BRANCH  28  30
HETATM   30  O   UNK N   1      21.705  11.703  12.125  0.00  0.00    -0.773 OA
HETATM   31  H   UNK N   1      22.591  11.941  12.316  0.00  0.00     0.167 HD
ENDBRANCH  28  30
ENDBRANCH  24  28
ENDBRANCH   1  18
BRANCH   2  32
HETATM   32  O   UNK N   1      25.467  16.766   3.642  0.00  0.00    -0.289 OA
HETATM   33  H   UNK N   1      25.310  16.675   2.723  0.00  0.00     0.244 HD
ENDBRANCH   2  32
TORSDOF 5
ENDMDL
MODEL 9
REMARK VINA RESULT:      -8.3      5.347      7.552
REMARK  5 active torsions:
REMARK  status: ('A' for Active; 'I' for Inactive)
REMARK    1  A    between atoms: C_11  and  C_15 
REMARK    2  A    between atoms: C_15  and  C_19 
REMARK    3  A    between atoms: N_16  and  O_18 
REMARK    4  A    between atoms: C_24  and  C_29 
REMARK    5  A    between atoms: C_29  and  O_30 
ROOT
HETATM    1  C   UNK N   1      22.552  15.674   4.956  0.00  0.00     0.074 C 
HETATM    2  N   UNK N   1      21.908  15.155   3.953  0.00  0.00    -0.268 N 
ATOM      3  HN  UNK N   1      21.228  14.417   4.139  1.00  0.00     0.194 HD
ENDROOT
BRANCH   1   4
HETATM    4  C   UNK N   1      23.544  16.803   4.778  0.00  0.00    -0.006 A 
HETATM    5  C   UNK N   1      24.896  16.473   4.658  0.00  0.00     0.022 A 
HETATM    6  C   UNK N   1      25.903  17.417   4.520  0.00  0.00    -0.042 A 
HETATM    7  C   UNK N   1      27.329  16.926   4.330  0.00  0.00    -0.020 C 
HETATM    8  C   UNK N   1      25.560  18.788   4.541  0.00  0.00    -0.043 A 
HETATM    9  C   UNK N   1      28.270  18.043   3.890  0.00  0.00     0.015 C 
HETATM   10  C   UNK N   1      27.826  16.287   5.617  0.00  0.00     0.020 C 
HETATM   11  C   UNK N   1      27.378  15.876   3.230  0.00  0.00     0.020 C 
HETATM   12  C   UNK N   1      28.037  19.299   4.702  0.00  0.00     0.015 C 
HETATM   13  C   UNK N   1      26.632  19.863   4.468  0.00  0.00    -0.020 C 
HETATM   14  C   UNK N   1      26.566  20.562   3.121  0.00  0.00     0.020 C 
HETATM   15  C   UNK N   1      26.416  20.895   5.561  0.00  0.00     0.020 C 
HETATM   16  C   UNK N   1      24.199  19.146   4.654  0.00  0.00     0.009 A 
HETATM   17  C   UNK N   1      23.202  18.163   4.779  0.00  0.00     0.014 A 
ENDBRANCH   1   4
BRANCH   1  18
HETATM   18  C   UNK N   1      22.230  15.199   6.338  0.00  0.00    -0.006 A 
HETATM   19  C   UNK N   1      20.984  15.519   6.909  0.00  0.00     0.014 A 
HETATM   20  C   UNK N   1      20.581  14.988   8.122  0.00  0.00     0.013 A 
HETATM   21  C   UNK N   1      21.412  14.107   8.792  0.00  0.00    -0.025 A 
HETATM   22  C   UNK N   1      20.962  13.506   9.962  0.00  0.00     0.030 A 
HETATM   23  C   UNK N   1      22.690  13.796   8.271  0.00  0.00    -0.025 A 
HETATM   24  C   UNK N   1      21.763  12.583  10.633  0.00  0.00     0.038 A 
HETATM   25  C   UNK N   1      23.041  12.281  10.131  0.00  0.00     0.019 A 
HETATM   26  C   UNK N   1      23.505  12.889   8.955  0.00  0.00     0.013 A 
HETATM   27  C   UNK N   1      23.104  14.358   7.052  0.00  0.00     0.026 A 
BRANCH  24  28
HETATM   28  C   UNK N   1      21.238  11.916  11.840  0.00  0.00     0.176 C 
HETATM   29  O   UNK N   1      20.035  11.847  12.033  0.00  0.00    -0.646 OA
BRANCH  28  30
HETATM   30  O   UNK N   1      22.088  11.400  12.751  0.00  0.00    -0.773 OA
HETATM   31  H   UNK N   1      21.853  11.057  13.590  0.00  0.00     0.167 HD
ENDBRANCH  28  30
ENDBRANCH  24  28
ENDBRANCH   1  18
BRANCH   2  32
HETATM   32  O   UNK N   1      22.096  15.541   2.714  0.00  0.00    -0.289 OA
HETATM   33  H   UNK N   1      21.609  15.154   2.012  0.00  0.00     0.244 HD
ENDBRANCH   2  32
TORSDOF 5
ENDMDL
