MODEL 1
REMARK VINA RESULT:      -5.0      0.000      0.000
REMARK  3 active torsions:
REMARK  status: ('A' for Active; 'I' for Inactive)
REMARK       I    between atoms: N_1  and  C_2 
REMARK    1  A    between atoms: C_5  and  O_6 
REMARK    2  A    between atoms: C_7  and  N_8 
REMARK    3  A    between atoms: C_9  and  O_10 
ROOT
HETATM    1  N   UNK N   1      19.685  16.268   1.591  0.00  0.00    -0.234 N 
HETATM    2  C   UNK N   1      20.049  17.607   1.821  0.00  0.00     0.679 A 
HETATM    3  N   UNK N   1      20.182  18.463   0.773  0.00  0.00    -0.168 N 
ATOM      4  HN  UNK N   1      20.016  18.128  -0.176  1.00  0.00     0.186 HD
HETATM    5  C   UNK N   1      20.533  19.760   0.975  0.00  0.00     0.186 A 
HETATM    6  C   UNK N   1      20.761  20.222   2.273  0.00  0.00     0.129 A 
HETATM    7  C   UNK N   1      20.620  19.329   3.334  0.00  0.00     0.186 A 
HETATM    8  N   UNK N   1      20.268  18.040   3.090  0.00  0.00    -0.168 N 
ATOM      9  HN  UNK N   1      20.165  17.389   3.868  1.00  0.00     0.186 HD
HETATM   10  H   UNK N   1      19.527  15.953   0.672  0.00  0.00     0.174 HD
HETATM   11  H   UNK N   1      19.589  15.647   2.348  0.00  0.00     0.174 HD
ENDROOT
BRANCH   5  12
HETATM   12  O   UNK N   1      20.658  20.588  -0.075  0.00  0.00    -0.344 OA
HETATM   13  H   UNK N   1      21.241  21.319  -0.027  0.00  0.00     0.219 HD
ENDBRANCH   5  12
BRANCH   7  14
HETATM   14  O   UNK N   1      20.831  19.734   4.597  0.00  0.00    -0.344 OA
HETATM   15  H   UNK N   1      20.114  20.041   5.117  0.00  0.00     0.219 HD
ENDBRANCH   7  14
BRANCH   6  16
HETATM   16  N   UNK N   1      21.126  21.564   2.507  0.00  0.00    -0.392 N 
HETATM   17  H   UNK N   1      20.758  22.047   3.282  0.00  0.00     0.156 HD
HETATM   18  H   UNK N   1      21.751  22.018   1.895  0.00  0.00     0.156 HD
ENDBRANCH   6  16
TORSDOF 3
ENDMDL
MODEL 2
REMARK VINA RESULT:      -4.9      0.044      2.604
REMARK  3 active torsions:
REMARK  status: ('A' for Active; 'I' for Inactive)
REMARK       I    between atoms: N_1  and  C_2 
REMARK    1  A    between atoms: C_5  and  O_6 
REMARK    2  A    between atoms: C_7  and  N_8 
REMARK    3  A    between atoms: C_9  and  O_10 
ROOT
HETATM    1  N   UNK N   1      19.673  16.242   1.652  0.00  0.00    -0.234 N 
HETATM    2  C   UNK N   1      20.037  17.584   1.866  0.00  0.00     0.679 A 
HETATM    3  N   UNK N   1      20.255  18.033   3.131  0.00  0.00    -0.168 N 
ATOM      4  HN  UNK N   1      20.152  17.392   3.918  1.00  0.00     0.186 HD
HETATM    5  C   UNK N   1      20.607  19.325   3.358  0.00  0.00     0.186 A 
HETATM    6  C   UNK N   1      20.748  20.204   2.283  0.00  0.00     0.129 A 
HETATM    7  C   UNK N   1      20.520  19.724   0.994  0.00  0.00     0.186 A 
HETATM    8  N   UNK N   1      20.169  18.426   0.809  0.00  0.00    -0.168 N 
ATOM      9  HN  UNK N   1      20.003  18.078  -0.135  1.00  0.00     0.186 HD
HETATM   10  H   UNK N   1      19.576  15.630   2.417  0.00  0.00     0.174 HD
HETATM   11  H   UNK N   1      19.514  15.914   0.737  0.00  0.00     0.174 HD
ENDROOT
BRANCH   5  12
HETATM   12  O   UNK N   1      20.817  19.747   4.616  0.00  0.00    -0.344 OA
HETATM   13  H   UNK N   1      21.677  20.005   4.885  0.00  0.00     0.219 HD
ENDBRANCH   5  12
BRANCH   7  14
HETATM   14  O   UNK N   1      20.645  20.539  -0.067  0.00  0.00    -0.344 OA
HETATM   15  H   UNK N   1      21.110  20.250  -0.828  0.00  0.00     0.219 HD
ENDBRANCH   7  14
BRANCH   6  16
HETATM   16  N   UNK N   1      21.113  21.550   2.494  0.00  0.00    -0.392 N 
HETATM   17  H   UNK N   1      20.464  22.182   2.880  0.00  0.00     0.156 HD
HETATM   18  H   UNK N   1      22.017  21.858   2.254  0.00  0.00     0.156 HD
ENDBRANCH   6  16
TORSDOF 3
ENDMDL
MODEL 3
REMARK VINA RESULT:      -4.7      1.792      2.296
REMARK  3 active torsions:
REMARK  status: ('A' for Active; 'I' for Inactive)
REMARK       I    between atoms: N_1  and  C_2 
REMARK    1  A    between atoms: C_5  and  O_6 
REMARK    2  A    between atoms: C_7  and  N_8 
REMARK    3  A    between atoms: C_9  and  O_10 
ROOT
HETATM    1  N   UNK N   1      20.960  17.545   4.941  0.00  0.00    -0.234 N 
HETATM    2  C   UNK N   1      20.879  18.337   3.781  0.00  0.00     0.679 A 
HETATM    3  N   UNK N   1      20.456  17.786   2.613  0.00  0.00    -0.168 N 
ATOM      4  HN  UNK N   1      20.198  16.799   2.585  1.00  0.00     0.186 HD
HETATM    5  C   UNK N   1      20.370  18.534   1.482  0.00  0.00     0.186 A 
HETATM    6  C   UNK N   1      20.722  19.884   1.517  0.00  0.00     0.129 A 
HETATM    7  C   UNK N   1      21.155  20.431   2.724  0.00  0.00     0.186 A 
HETATM    8  N   UNK N   1      21.225  19.649   3.832  0.00  0.00    -0.168 N 
ATOM      9  HN  UNK N   1      21.542  20.052   4.714  1.00  0.00     0.186 HD
HETATM   10  H   UNK N   1      20.710  16.594   4.906  0.00  0.00     0.174 HD
HETATM   11  H   UNK N   1      21.267  17.943   5.788  0.00  0.00     0.174 HD
ENDROOT
BRANCH   5  12
HETATM   12  O   UNK N   1      19.949  17.968   0.339  0.00  0.00    -0.344 OA
HETATM   13  H   UNK N   1      19.085  17.607   0.287  0.00  0.00     0.219 HD
ENDBRANCH   5  12
BRANCH   7  14
HETATM   14  O   UNK N   1      21.502  21.727   2.799  0.00  0.00    -0.344 OA
HETATM   15  H   UNK N   1      21.001  22.316   3.328  0.00  0.00     0.219 HD
ENDBRANCH   7  14
BRANCH   6  16
HETATM   16  N   UNK N   1      20.642  20.681   0.355  0.00  0.00    -0.392 N 
HETATM   17  H   UNK N   1      20.292  20.299  -0.481  0.00  0.00     0.156 HD
HETATM   18  H   UNK N   1      20.937  21.621   0.382  0.00  0.00     0.156 HD
ENDBRANCH   6  16
TORSDOF 3
ENDMDL
MODEL 4
REMARK VINA RESULT:      -4.5     22.734     23.314
REMARK  3 active torsions:
REMARK  status: ('A' for Active; 'I' for Inactive)
REMARK       I    between atoms: N_1  and  C_2 
REMARK    1  A    between atoms: C_5  and  O_6 
REMARK    2  A    between atoms: C_7  and  N_8 
REMARK    3  A    between atoms: C_9  and  O_10 
ROOT
HETATM    1  N   UNK N   1      42.421  19.170   2.936  0.00  0.00    -0.234 N 
HETATM    2  C   UNK N   1      42.909  20.486   3.032  0.00  0.00     0.679 A 
HETATM    3  N   UNK N   1      44.128  20.717   3.588  0.00  0.00    -0.168 N 
ATOM      4  HN  UNK N   1      44.682  19.933   3.933  1.00  0.00     0.186 HD
HETATM    5  C   UNK N   1      44.617  21.981   3.690  0.00  0.00     0.186 A 
HETATM    6  C   UNK N   1      43.862  23.056   3.219  0.00  0.00     0.129 A 
HETATM    7  C   UNK N   1      42.614  22.798   2.652  0.00  0.00     0.186 A 
HETATM    8  N   UNK N   1      42.161  21.521   2.569  0.00  0.00    -0.168 N 
ATOM      9  HN  UNK N   1      41.248  21.335   2.154  1.00  0.00     0.186 HD
HETATM   10  H   UNK N   1      42.961  18.419   3.271  0.00  0.00     0.174 HD
HETATM   11  H   UNK N   1      41.538  19.001   2.534  0.00  0.00     0.174 HD
ENDROOT
BRANCH   5  12
HETATM   12  O   UNK N   1      45.824  22.185   4.243  0.00  0.00    -0.344 OA
HETATM   13  H   UNK N   1      46.106  23.057   4.441  0.00  0.00     0.219 HD
ENDBRANCH   5  12
BRANCH   7  14
HETATM   14  O   UNK N   1      41.857  23.806   2.187  0.00  0.00    -0.344 OA
HETATM   15  H   UNK N   1      42.261  24.598   1.892  0.00  0.00     0.219 HD
ENDBRANCH   7  14
BRANCH   6  16
HETATM   16  N   UNK N   1      44.348  24.376   3.313  0.00  0.00    -0.392 N 
HETATM   17  H   UNK N   1      45.272  24.541   3.611  0.00  0.00     0.156 HD
HETATM   18  H   UNK N   1      43.763  25.134   3.081  0.00  0.00     0.156 HD
ENDBRANCH   6  16
TORSDOF 3
ENDMDL
MODEL 5
REMARK VINA RESULT:      -4.5     22.783     23.288
REMARK  3 active torsions:
REMARK  status: ('A' for Active; 'I' for Inactive)
REMARK       I    between atoms: N_1  and  C_2 
REMARK    1  A    between atoms: C_5  and  O_6 
REMARK    2  A    between atoms: C_7  and  N_8 
REMARK    3  A    between atoms: C_9  and  O_10 
ROOT
HETATM    1  N   UNK N   1      42.475  19.154   2.966  0.00  0.00    -0.234 N 
HETATM    2  C   UNK N   1      42.961  20.472   3.047  0.00  0.00     0.679 A 
HETATM    3  N   UNK N   1      42.202  21.502   2.590  0.00  0.00    -0.168 N 
ATOM      4  HN  UNK N   1      41.283  21.313   2.190  1.00  0.00     0.186 HD
HETATM    5  C   UNK N   1      42.653  22.782   2.658  0.00  0.00     0.186 A 
HETATM    6  C   UNK N   1      43.911  23.044   3.205  0.00  0.00     0.129 A 
HETATM    7  C   UNK N   1      44.674  21.973   3.668  0.00  0.00     0.186 A 
HETATM    8  N   UNK N   1      44.187  20.709   3.581  0.00  0.00    -0.168 N 
ATOM      9  HN  UNK N   1      44.748  19.928   3.921  1.00  0.00     0.186 HD
HETATM   10  H   UNK N   1      41.587  18.980   2.579  0.00  0.00     0.174 HD
HETATM   11  H   UNK N   1      43.023  18.406   3.297  0.00  0.00     0.174 HD
ENDROOT
BRANCH   5  12
HETATM   12  O   UNK N   1      41.886  23.785   2.200  0.00  0.00    -0.344 OA
HETATM   13  H   UNK N   1      41.232  23.614   1.551  0.00  0.00     0.219 HD
ENDBRANCH   5  12
BRANCH   7  14
HETATM   14  O   UNK N   1      45.890  22.185   4.201  0.00  0.00    -0.344 OA
HETATM   15  H   UNK N   1      45.993  22.792   4.907  0.00  0.00     0.219 HD
ENDBRANCH   7  14
BRANCH   6  16
HETATM   16  N   UNK N   1      44.401  24.364   3.287  0.00  0.00    -0.392 N 
HETATM   17  H   UNK N   1      44.360  24.853   4.140  0.00  0.00     0.156 HD
HETATM   18  H   UNK N   1      44.785  24.797   2.489  0.00  0.00     0.156 HD
ENDBRANCH   6  16
TORSDOF 3
ENDMDL
MODEL 6
REMARK VINA RESULT:      -4.5     14.318     14.974
REMARK  3 active torsions:
REMARK  status: ('A' for Active; 'I' for Inactive)
REMARK       I    between atoms: N_1  and  C_2 
REMARK    1  A    between atoms: C_5  and  O_6 
REMARK    2  A    between atoms: C_7  and  N_8 
REMARK    3  A    between atoms: C_9  and  O_10 
ROOT
HETATM    1  N   UNK N   1      32.143  16.940   5.767  0.00  0.00    -0.234 N 
HETATM    2  C   UNK N   1      32.879  17.020   6.964  0.00  0.00     0.679 A 
HETATM    3  N   UNK N   1      33.753  18.044   7.154  0.00  0.00    -0.168 N 
ATOM      4  HN  UNK N   1      33.870  18.749   6.426  1.00  0.00     0.186 HD
HETATM    5  C   UNK N   1      34.473  18.139   8.302  0.00  0.00     0.186 A 
HETATM    6  C   UNK N   1      34.315  17.176   9.300  0.00  0.00     0.129 A 
HETATM    7  C   UNK N   1      33.413  16.134   9.086  0.00  0.00     0.186 A 
HETATM    8  N   UNK N   1      32.713  16.075   7.925  0.00  0.00    -0.168 N 
ATOM      9  HN  UNK N   1      32.054  15.311   7.771  1.00  0.00     0.186 HD
HETATM   10  H   UNK N   1      32.262  17.624   5.070  0.00  0.00     0.174 HD
HETATM   11  H   UNK N   1      31.510  16.200   5.628  0.00  0.00     0.174 HD
ENDROOT
BRANCH   5  12
HETATM   12  O   UNK N   1      35.331  19.159   8.468  0.00  0.00    -0.344 OA
HETATM   13  H   UNK N   1      35.796  19.253   9.276  0.00  0.00     0.219 HD
ENDBRANCH   5  12
BRANCH   7  14
HETATM   14  O   UNK N   1      33.233  15.188  10.023  0.00  0.00    -0.344 OA
HETATM   15  H   UNK N   1      33.926  14.590  10.225  0.00  0.00     0.219 HD
ENDBRANCH   7  14
BRANCH   6  16
HETATM   16  N   UNK N   1      35.051  17.254  10.501  0.00  0.00    -0.392 N 
HETATM   17  H   UNK N   1      34.800  17.908  11.192  0.00  0.00     0.156 HD
HETATM   18  H   UNK N   1      35.818  16.652  10.648  0.00  0.00     0.156 HD
ENDBRANCH   6  16
TORSDOF 3
ENDMDL
MODEL 7
REMARK VINA RESULT:      -4.5     17.317     18.247
REMARK  3 active torsions:
REMARK  status: ('A' for Active; 'I' for Inactive)
REMARK       I    between atoms: N_1  and  C_2 
REMARK    1  A    between atoms: C_5  and  O_6 
REMARK    2  A    between atoms: C_7  and  N_8 
REMARK    3  A    between atoms: C_9  and  O_10 
ROOT
HETATM    1  N   UNK N   1      33.325  16.312   9.404  0.00  0.00    -0.234 N 
HETATM    2  C   UNK N   1      34.296  15.603  10.135  0.00  0.00     0.679 A 
HETATM    3  N   UNK N   1      33.917  14.799  11.163  0.00  0.00    -0.168 N 
ATOM      4  HN  UNK N   1      32.928  14.714  11.399  1.00  0.00     0.186 HD
HETATM    5  C   UNK N   1      34.839  14.106  11.881  0.00  0.00     0.186 A 
HETATM    6  C   UNK N   1      36.193  14.220  11.561  0.00  0.00     0.129 A 
HETATM    7  C   UNK N   1      36.562  15.050  10.503  0.00  0.00     0.186 A 
HETATM    8  N   UNK N   1      35.609  15.725   9.811  0.00  0.00    -0.168 N 
ATOM      9  HN  UNK N   1      35.882  16.332   9.037  1.00  0.00     0.186 HD
HETATM   10  H   UNK N   1      32.373  16.225   9.638  0.00  0.00     0.174 HD
HETATM   11  H   UNK N   1      33.598  16.895   8.660  0.00  0.00     0.174 HD
ENDROOT
BRANCH   5  12
HETATM   12  O   UNK N   1      34.441  13.317  12.892  0.00  0.00    -0.344 OA
HETATM   13  H   UNK N   1      33.546  13.045  12.949  0.00  0.00     0.219 HD
ENDBRANCH   5  12
BRANCH   7  14
HETATM   14  O   UNK N   1      37.855  15.186  10.164  0.00  0.00    -0.344 OA
HETATM   15  H   UNK N   1      38.234  14.616   9.524  0.00  0.00     0.219 HD
ENDBRANCH   7  14
BRANCH   6  16
HETATM   16  N   UNK N   1      37.170  13.510  12.291  0.00  0.00    -0.392 N 
HETATM   17  H   UNK N   1      37.467  12.624  11.984  0.00  0.00     0.156 HD
HETATM   18  H   UNK N   1      37.554  13.903  13.109  0.00  0.00     0.156 HD
ENDBRANCH   6  16
TORSDOF 3
ENDMDL
MODEL 8
REMARK VINA RESULT:      -4.3     22.048     22.792
REMARK  3 active torsions:
REMARK  status: ('A' for Active; 'I' for Inactive)
REMARK       I    between atoms: N_1  and  C_2 
REMARK    1  A    between atoms: C_5  and  O_6 
REMARK    2  A    between atoms: C_7  and  N_8 
REMARK    3  A    between atoms: C_9  and  O_10 
ROOT
HETATM    1  N   UNK N   1      45.586  22.424   4.171  0.00  0.00    -0.234 N 
HETATM    2  C   UNK N   1      44.300  22.180   3.655  0.00  0.00     0.679 A 
HETATM    3  N   UNK N   1      43.757  20.938   3.748  0.00  0.00    -0.168 N 
ATOM      4  HN  UNK N   1      44.287  20.188   4.193  1.00  0.00     0.186 HD
HETATM    5  C   UNK N   1      42.517  20.682   3.256  0.00  0.00     0.186 A 
HETATM    6  C   UNK N   1      41.789  21.706   2.647  0.00  0.00     0.129 A 
HETATM    7  C   UNK N   1      42.363  22.974   2.561  0.00  0.00     0.186 A 
HETATM    8  N   UNK N   1      43.606  23.188   3.066  0.00  0.00    -0.168 N 
ATOM      9  HN  UNK N   1      44.023  24.116   3.001  1.00  0.00     0.186 HD
HETATM   10  H   UNK N   1      46.090  21.695   4.599  0.00  0.00     0.174 HD
HETATM   11  H   UNK N   1      45.981  23.323   4.105  0.00  0.00     0.174 HD
ENDROOT
BRANCH   5  12
HETATM   12  O   UNK N   1      42.001  19.446   3.359  0.00  0.00    -0.344 OA
HETATM   13  H   UNK N   1      42.567  18.699   3.339  0.00  0.00     0.219 HD
ENDBRANCH   5  12
BRANCH   7  14
HETATM   14  O   UNK N   1      41.695  23.985   1.982  0.00  0.00    -0.344 OA
HETATM   15  H   UNK N   1      42.066  24.845   1.969  0.00  0.00     0.219 HD
ENDBRANCH   7  14
BRANCH   6  16
HETATM   16  N   UNK N   1      40.500  21.465   2.128  0.00  0.00    -0.392 N 
HETATM   17  H   UNK N   1      39.708  21.819   2.592  0.00  0.00     0.156 HD
HETATM   18  H   UNK N   1      40.393  20.941   1.300  0.00  0.00     0.156 HD
ENDBRANCH   6  16
TORSDOF 3
ENDMDL
MODEL 9
REMARK VINA RESULT:      -4.3     22.864     23.479
REMARK  3 active torsions:
REMARK  status: ('A' for Active; 'I' for Inactive)
REMARK       I    between atoms: N_1  and  C_2 
REMARK    1  A    between atoms: C_5  and  O_6 
REMARK    2  A    between atoms: C_7  and  N_8 
REMARK    3  A    between atoms: C_9  and  O_10 
ROOT
HETATM    1  N   UNK N   1      41.192  22.445   0.733  0.00  0.00    -0.234 N 
HETATM    2  C   UNK N   1      42.313  22.395   1.581  0.00  0.00     0.679 A 
HETATM    3  N   UNK N   1      43.312  21.508   1.332  0.00  0.00    -0.168 N 
ATOM      4  HN  UNK N   1      43.242  20.882   0.529  1.00  0.00     0.186 HD
HETATM    5  C   UNK N   1      44.403  21.444   2.139  0.00  0.00     0.186 A 
HETATM    6  C   UNK N   1      44.502  22.299   3.238  0.00  0.00     0.129 A 
HETATM    7  C   UNK N   1      43.466  23.203   3.477  0.00  0.00     0.186 A 
HETATM    8  N   UNK N   1      42.393  23.234   2.646  0.00  0.00    -0.168 N 
ATOM      9  HN  UNK N   1      41.637  23.896   2.823  1.00  0.00     0.186 HD
HETATM   10  H   UNK N   1      41.132  21.838  -0.039  0.00  0.00     0.174 HD
HETATM   11  H   UNK N   1      40.467  23.087   0.911  0.00  0.00     0.174 HD
ENDROOT
BRANCH   5  12
HETATM   12  O   UNK N   1      45.378  20.560   1.874  0.00  0.00    -0.344 OA
HETATM   13  H   UNK N   1      45.786  20.089   2.574  0.00  0.00     0.219 HD
ENDBRANCH   5  12
BRANCH   7  14
HETATM   14  O   UNK N   1      43.524  24.042   4.525  0.00  0.00    -0.344 OA
HETATM   15  H   UNK N   1      43.518  23.703   5.398  0.00  0.00     0.219 HD
ENDBRANCH   7  14
BRANCH   6  16
HETATM   16  N   UNK N   1      45.624  22.252   4.091  0.00  0.00    -0.392 N 
HETATM   17  H   UNK N   1      46.447  22.734   3.849  0.00  0.00     0.156 HD
HETATM   18  H   UNK N   1      45.584  21.737   4.930  0.00  0.00     0.156 HD
ENDBRANCH   6  16
TORSDOF 3
ENDMDL
