MODEL 1
REMARK VINA RESULT:      -3.5      0.000      0.000
REMARK  3 active torsions:
REMARK  status: ('A' for Active; 'I' for Inactive)
REMARK    1  A    between atoms: C_2  and  C_4 
REMARK    2  A    between atoms: C_4  and  C_5 
REMARK    3  A    between atoms: C_5  and  O_6 
ROOT
HETATM    1  C   UNK N   1      23.822  11.952  11.711  0.00  0.00     0.030 C 
ENDROOT
BRANCH   1   2
HETATM    2  C   UNK N   1      22.840  11.918  10.545  0.00  0.00    -0.021 C 
HETATM    3  C   UNK N   1      21.423  12.389  10.780  0.00  0.00     0.009 C 
HETATM    4  C   UNK N   1      23.229  11.432   9.158  0.00  0.00     0.009 C 
ENDBRANCH   1   2
BRANCH   1   5
HETATM    5  C   UNK N   1      23.121  11.849  13.053  0.00  0.00     0.164 C 
BRANCH   5   6
HETATM    6  O   UNK N   1      23.855  12.540  14.015  0.00  0.00    -0.401 OA
HETATM    7  H   UNK N   1      24.812  12.653  13.906  0.00  0.00     0.209 HD
ENDBRANCH   5   6
ENDBRANCH   1   5
TORSDOF 3
ENDMDL
MODEL 2
REMARK VINA RESULT:      -3.5      1.667      2.117
REMARK  3 active torsions:
REMARK  status: ('A' for Active; 'I' for Inactive)
REMARK    1  A    between atoms: C_2  and  C_4 
REMARK    2  A    between atoms: C_4  and  C_5 
REMARK    3  A    between atoms: C_5  and  O_6 
ROOT
HETATM    1  C   UNK N   1      23.035  11.920  11.519  0.00  0.00     0.030 C 
ENDROOT
BRANCH   1   2
HETATM    2  C   UNK N   1      21.766  12.553  10.957  0.00  0.00    -0.021 C 
HETATM    3  C   UNK N   1      20.433  12.123  11.525  0.00  0.00     0.009 C 
HETATM    4  C   UNK N   1      21.789  13.596   9.852  0.00  0.00     0.009 C 
ENDBRANCH   1   2
BRANCH   1   5
HETATM    5  C   UNK N   1      24.252  12.223  10.664  0.00  0.00     0.164 C 
BRANCH   5   6
HETATM    6  O   UNK N   1      25.314  12.598  11.483  0.00  0.00    -0.401 OA
HETATM    7  H   UNK N   1      25.176  12.704  12.438  0.00  0.00     0.209 HD
ENDBRANCH   5   6
ENDBRANCH   1   5
TORSDOF 3
ENDMDL
MODEL 3
REMARK VINA RESULT:      -3.4      1.888      2.723
REMARK  3 active torsions:
REMARK  status: ('A' for Active; 'I' for Inactive)
REMARK    1  A    between atoms: C_2  and  C_4 
REMARK    2  A    between atoms: C_4  and  C_5 
REMARK    3  A    between atoms: C_5  and  O_6 
ROOT
HETATM    1  C   UNK N   1      23.931  11.795  10.221  0.00  0.00     0.030 C 
ENDROOT
BRANCH   1   2
HETATM    2  C   UNK N   1      22.841  12.049  11.257  0.00  0.00    -0.021 C 
HETATM    3  C   UNK N   1      21.468  12.459  10.774  0.00  0.00     0.009 C 
HETATM    4  C   UNK N   1      23.080  11.907  12.752  0.00  0.00     0.009 C 
ENDBRANCH   1   2
BRANCH   1   5
HETATM    5  C   UNK N   1      24.660  13.068   9.833  0.00  0.00     0.164 C 
BRANCH   5   6
HETATM    6  O   UNK N   1      25.643  13.348  10.780  0.00  0.00    -0.401 OA
HETATM    7  H   UNK N   1      26.280  14.062  10.623  0.00  0.00     0.209 HD
ENDBRANCH   5   6
ENDBRANCH   1   5
TORSDOF 3
ENDMDL
MODEL 4
REMARK VINA RESULT:      -3.3      2.692      3.703
REMARK  3 active torsions:
REMARK  status: ('A' for Active; 'I' for Inactive)
REMARK    1  A    between atoms: C_2  and  C_4 
REMARK    2  A    between atoms: C_4  and  C_5 
REMARK    3  A    between atoms: C_5  and  O_6 
ROOT
HETATM    1  C   UNK N   1      20.929  12.512  10.873  0.00  0.00     0.030 C 
ENDROOT
BRANCH   1   2
HETATM    2  C   UNK N   1      22.354  11.987  11.014  0.00  0.00    -0.021 C 
HETATM    3  C   UNK N   1      23.068  11.494   9.776  0.00  0.00     0.009 C 
HETATM    4  C   UNK N   1      23.082  11.940  12.348  0.00  0.00     0.009 C 
ENDBRANCH   1   2
BRANCH   1   5
HETATM    5  C   UNK N   1      20.846  13.692   9.921  0.00  0.00     0.164 C 
BRANCH   5   6
HETATM    6  O   UNK N   1      19.517  14.089   9.789  0.00  0.00    -0.401 OA
HETATM    7  H   UNK N   1      18.905  13.992  10.535  0.00  0.00     0.209 HD
ENDBRANCH   5   6
ENDBRANCH   1   5
TORSDOF 3
ENDMDL
MODEL 5
REMARK VINA RESULT:      -3.2     12.222     12.698
REMARK  3 active torsions:
REMARK  status: ('A' for Active; 'I' for Inactive)
REMARK    1  A    between atoms: C_2  and  C_4 
REMARK    2  A    between atoms: C_4  and  C_5 
REMARK    3  A    between atoms: C_5  and  O_6 
ROOT
HETATM    1  C   UNK N   1      33.169  18.209   8.114  0.00  0.00     0.030 C 
ENDROOT
BRANCH   1   2
HETATM    2  C   UNK N   1      32.702  17.476   6.861  0.00  0.00    -0.021 C 
HETATM    3  C   UNK N   1      31.354  16.791   6.885  0.00  0.00     0.009 C 
HETATM    4  C   UNK N   1      33.536  17.407   5.591  0.00  0.00     0.009 C 
ENDBRANCH   1   2
BRANCH   1   5
HETATM    5  C   UNK N   1      34.648  18.001   8.381  0.00  0.00     0.164 C 
BRANCH   5   6
HETATM    6  O   UNK N   1      35.279  19.238   8.494  0.00  0.00    -0.401 OA
HETATM    7  H   UNK N   1      36.144  19.382   8.078  0.00  0.00     0.209 HD
ENDBRANCH   5   6
ENDBRANCH   1   5
TORSDOF 3
ENDMDL
MODEL 6
REMARK VINA RESULT:      -3.2     13.610     14.201
REMARK  3 active torsions:
REMARK  status: ('A' for Active; 'I' for Inactive)
REMARK    1  A    between atoms: C_2  and  C_4 
REMARK    2  A    between atoms: C_4  and  C_5 
REMARK    3  A    between atoms: C_5  and  O_6 
ROOT
HETATM    1  C   UNK N   1      35.455  13.299  15.661  0.00  0.00     0.030 C 
ENDROOT
BRANCH   1   2
HETATM    2  C   UNK N   1      35.360  12.916  17.135  0.00  0.00    -0.021 C 
HETATM    3  C   UNK N   1      35.211  14.018  18.159  0.00  0.00     0.009 C 
HETATM    4  C   UNK N   1      35.410  11.474  17.613  0.00  0.00     0.009 C 
ENDBRANCH   1   2
BRANCH   1   5
HETATM    5  C   UNK N   1      36.875  13.206  15.136  0.00  0.00     0.164 C 
BRANCH   5   6
HETATM    6  O   UNK N   1      37.570  14.367  15.468  0.00  0.00    -0.401 OA
HETATM    7  H   UNK N   1      38.441  14.540  15.076  0.00  0.00     0.209 HD
ENDBRANCH   5   6
ENDBRANCH   1   5
TORSDOF 3
ENDMDL
MODEL 7
REMARK VINA RESULT:      -3.2     12.882     13.842
REMARK  3 active torsions:
REMARK  status: ('A' for Active; 'I' for Inactive)
REMARK    1  A    between atoms: C_2  and  C_4 
REMARK    2  A    between atoms: C_4  and  C_5 
REMARK    3  A    between atoms: C_5  and  O_6 
ROOT
HETATM    1  C   UNK N   1      35.148  13.458  18.359  0.00  0.00     0.030 C 
ENDROOT
BRANCH   1   2
HETATM    2  C   UNK N   1      35.195  12.502  17.171  0.00  0.00    -0.021 C 
HETATM    3  C   UNK N   1      35.668  11.085  17.403  0.00  0.00     0.009 C 
HETATM    4  C   UNK N   1      34.786  12.917  15.766  0.00  0.00     0.009 C 
ENDBRANCH   1   2
BRANCH   1   5
HETATM    5  C   UNK N   1      35.201  12.724  19.686  0.00  0.00     0.164 C 
BRANCH   5   6
HETATM    6  O   UNK N   1      34.544  13.475  20.658  0.00  0.00    -0.401 OA
HETATM    7  H   UNK N   1      35.042  13.845  21.404  0.00  0.00     0.209 HD
ENDBRANCH   5   6
ENDBRANCH   1   5
TORSDOF 3
ENDMDL
MODEL 8
REMARK VINA RESULT:      -3.1     20.629     21.487
REMARK  3 active torsions:
REMARK  status: ('A' for Active; 'I' for Inactive)
REMARK    1  A    between atoms: C_2  and  C_4 
REMARK    2  A    between atoms: C_4  and  C_5 
REMARK    3  A    between atoms: C_5  and  O_6 
ROOT
HETATM    1  C   UNK N   1      26.840  26.024  -4.149  0.00  0.00     0.030 C 
ENDROOT
BRANCH   1   2
HETATM    2  C   UNK N   1      25.834  27.106  -4.527  0.00  0.00    -0.021 C 
HETATM    3  C   UNK N   1      25.836  28.400  -3.744  0.00  0.00     0.009 C 
HETATM    4  C   UNK N   1      24.831  26.936  -5.657  0.00  0.00     0.009 C 
ENDBRANCH   1   2
BRANCH   1   5
HETATM    5  C   UNK N   1      26.220  24.638  -4.160  0.00  0.00     0.164 C 
BRANCH   5   6
HETATM    6  O   UNK N   1      26.497  23.997  -2.954  0.00  0.00    -0.401 OA
HETATM    7  H   UNK N   1      25.778  23.792  -2.337  0.00  0.00     0.209 HD
ENDBRANCH   5   6
ENDBRANCH   1   5
TORSDOF 3
ENDMDL
MODEL 9
REMARK VINA RESULT:      -3.1     18.543     19.506
REMARK  3 active torsions:
REMARK  status: ('A' for Active; 'I' for Inactive)
REMARK    1  A    between atoms: C_2  and  C_4 
REMARK    2  A    between atoms: C_4  and  C_5 
REMARK    3  A    between atoms: C_5  and  O_6 
ROOT
HETATM    1  C   UNK N   1      30.796  21.548  -3.265  0.00  0.00     0.030 C 
ENDROOT
BRANCH   1   2
HETATM    2  C   UNK N   1      30.278  22.920  -2.847  0.00  0.00    -0.021 C 
HETATM    3  C   UNK N   1      29.136  22.991  -1.859  0.00  0.00     0.009 C 
HETATM    4  C   UNK N   1      30.863  24.217  -3.384  0.00  0.00     0.009 C 
ENDBRANCH   1   2
BRANCH   1   5
HETATM    5  C   UNK N   1      32.312  21.478  -3.245  0.00  0.00     0.164 C 
BRANCH   5   6
HETATM    6  O   UNK N   1      32.745  21.171  -1.957  0.00  0.00    -0.401 OA
HETATM    7  H   UNK N   1      32.594  20.285  -1.593  0.00  0.00     0.209 HD
ENDBRANCH   5   6
ENDBRANCH   1   5
TORSDOF 3
ENDMDL
