MODEL 1
REMARK VINA RESULT:      -6.5      0.000      0.000
REMARK  0 active torsions:
REMARK  status: ('A' for Active; 'I' for Inactive)
ROOT
HETATM    1  C   UNK N   1      27.039  15.574   2.320  0.00  0.00     0.049 C 
HETATM    2  C   UNK N   1      28.153  15.969   3.220  0.00  0.00    -0.046 A 
HETATM    3  C   UNK N   1      29.440  16.102   2.715  0.00  0.00     0.095 A 
HETATM    4  N   UNK N   1      30.458  16.463   3.536  0.00  0.00    -0.363 N 
ATOM      5  HN  UNK N   1      31.395  16.554   3.143  1.00  0.00     0.165 HD
HETATM    6  C   UNK N   1      30.280  16.709   4.865  0.00  0.00     0.071 A 
HETATM    7  C   UNK N   1      28.979  16.583   5.416  0.00  0.00    -0.000 A 
HETATM    8  C   UNK N   1      27.921  16.210   4.572  0.00  0.00     0.022 A 
HETATM    9  C   UNK N   1      28.756  16.828   6.782  0.00  0.00    -0.043 A 
HETATM   10  C   UNK N   1      27.374  16.693   7.356  0.00  0.00     0.049 C 
HETATM   11  C   UNK N   1      29.827  17.201   7.611  0.00  0.00    -0.043 A 
HETATM   12  C   UNK N   1      29.583  17.462   9.071  0.00  0.00     0.049 C 
HETATM   13  C   UNK N   1      31.125  17.329   7.075  0.00  0.00     0.000 A 
HETATM   14  C   UNK N   1      31.375  17.085   5.694  0.00  0.00     0.072 A 
HETATM   15  N   UNK N   1      32.668  17.224   5.212  0.00  0.00    -0.358 N 
HETATM   16  C   UNK N   1      33.038  17.000   3.820  0.00  0.00     0.156 C 
HETATM   17  C   UNK N   1      33.687  17.585   6.035  0.00  0.00     0.097 A 
HETATM   18  C   UNK N   1      33.471  17.828   7.382  0.00  0.00    -0.045 A 
HETATM   19  C   UNK N   1      34.606  18.222   8.257  0.00  0.00     0.049 C 
HETATM   20  C   UNK N   1      32.192  17.700   7.903  0.00  0.00     0.022 A 
ENDROOT
TORSDOF 0
ENDMDL
MODEL 2
REMARK VINA RESULT:      -6.4     11.197     13.417
REMARK  0 active torsions:
REMARK  status: ('A' for Active; 'I' for Inactive)
ROOT
HETATM    1  C   UNK N   1      30.207  18.778  -8.574  0.00  0.00     0.049 C 
HETATM    2  C   UNK N   1      29.668  19.932  -7.811  0.00  0.00    -0.046 A 
HETATM    3  C   UNK N   1      28.623  20.682  -8.333  0.00  0.00     0.095 A 
HETATM    4  N   UNK N   1      28.130  21.738  -7.637  0.00  0.00    -0.363 N 
ATOM      5  HN  UNK N   1      27.362  22.275  -8.039  1.00  0.00     0.165 HD
HETATM    6  C   UNK N   1      28.620  22.109  -6.419  0.00  0.00     0.071 A 
HETATM    7  C   UNK N   1      29.687  21.366  -5.856  0.00  0.00    -0.000 A 
HETATM    8  C   UNK N   1      30.202  20.273  -6.571  0.00  0.00     0.022 A 
HETATM    9  C   UNK N   1      30.219  21.718  -4.603  0.00  0.00    -0.043 A 
HETATM   10  C   UNK N   1      31.350  20.925  -4.013  0.00  0.00     0.049 C 
HETATM   11  C   UNK N   1      29.691  22.816  -3.901  0.00  0.00    -0.043 A 
HETATM   12  C   UNK N   1      30.263  23.188  -2.563  0.00  0.00     0.049 C 
HETATM   13  C   UNK N   1      28.630  23.563  -4.452  0.00  0.00     0.000 A 
HETATM   14  C   UNK N   1      28.075  23.224  -5.719  0.00  0.00     0.072 A 
HETATM   15  N   UNK N   1      27.032  23.987  -6.221  0.00  0.00    -0.358 N 
HETATM   16  C   UNK N   1      26.390  23.732  -7.504  0.00  0.00     0.156 C 
HETATM   17  C   UNK N   1      26.539  25.044  -5.523  0.00  0.00     0.097 A 
HETATM   18  C   UNK N   1      27.060  25.395  -4.287  0.00  0.00    -0.045 A 
HETATM   19  C   UNK N   1      26.501  26.555  -3.548  0.00  0.00     0.049 C 
HETATM   20  C   UNK N   1      28.105  24.656  -3.751  0.00  0.00     0.022 A 
ENDROOT
TORSDOF 0
ENDMDL
MODEL 3
REMARK VINA RESULT:      -6.3      1.499      3.381
REMARK  0 active torsions:
REMARK  status: ('A' for Active; 'I' for Inactive)
ROOT
HETATM    1  C   UNK N   1      25.540  15.745   4.935  0.00  0.00     0.049 C 
HETATM    2  C   UNK N   1      26.901  16.123   5.394  0.00  0.00    -0.046 A 
HETATM    3  C   UNK N   1      27.123  16.429   6.730  0.00  0.00     0.095 A 
HETATM    4  N   UNK N   1      28.367  16.774   7.150  0.00  0.00    -0.363 N 
ATOM      5  HN  UNK N   1      28.507  16.995   8.136  1.00  0.00     0.165 HD
HETATM    6  C   UNK N   1      29.437  16.838   6.307  0.00  0.00     0.071 A 
HETATM    7  C   UNK N   1      29.247  16.531   4.936  0.00  0.00    -0.000 A 
HETATM    8  C   UNK N   1      27.963  16.173   4.495  0.00  0.00     0.022 A 
HETATM    9  C   UNK N   1      30.326  16.586   4.036  0.00  0.00    -0.043 A 
HETATM   10  C   UNK N   1      30.116  16.259   2.585  0.00  0.00     0.049 C 
HETATM   11  C   UNK N   1      31.604  16.946   4.496  0.00  0.00    -0.043 A 
HETATM   12  C   UNK N   1      32.754  17.002   3.531  0.00  0.00     0.049 C 
HETATM   13  C   UNK N   1      31.806  17.253   5.858  0.00  0.00     0.000 A 
HETATM   14  C   UNK N   1      30.727  17.204   6.787  0.00  0.00     0.072 A 
HETATM   15  N   UNK N   1      30.973  17.514   8.116  0.00  0.00    -0.358 N 
HETATM   16  C   UNK N   1      29.947  17.497   9.151  0.00  0.00     0.156 C 
HETATM   17  C   UNK N   1      32.218  17.860   8.536  0.00  0.00     0.097 A 
HETATM   18  C   UNK N   1      33.285  17.915   7.653  0.00  0.00    -0.045 A 
HETATM   19  C   UNK N   1      34.635  18.296   8.141  0.00  0.00     0.049 C 
HETATM   20  C   UNK N   1      33.080  17.611   6.314  0.00  0.00     0.022 A 
ENDROOT
TORSDOF 0
ENDMDL
MODEL 4
REMARK VINA RESULT:      -6.3     11.152     13.632
REMARK  0 active torsions:
REMARK  status: ('A' for Active; 'I' for Inactive)
ROOT
HETATM    1  C   UNK N   1      26.562  26.586  -3.660  0.00  0.00     0.049 C 
HETATM    2  C   UNK N   1      27.136  25.420  -4.377  0.00  0.00    -0.046 A 
HETATM    3  C   UNK N   1      26.669  25.082  -5.640  0.00  0.00     0.095 A 
HETATM    4  N   UNK N   1      27.194  24.016  -6.296  0.00  0.00    -0.363 N 
ATOM      5  HN  UNK N   1      26.835  23.786  -7.223  1.00  0.00     0.165 HD
HETATM    6  C   UNK N   1      28.181  23.239  -5.766  0.00  0.00     0.071 A 
HETATM    7  C   UNK N   1      28.682  23.553  -4.478  0.00  0.00    -0.000 A 
HETATM    8  C   UNK N   1      28.144  24.655  -3.794  0.00  0.00     0.022 A 
HETATM    9  C   UNK N   1      29.699  22.775  -3.898  0.00  0.00    -0.043 A 
HETATM   10  C   UNK N   1      30.224  23.117  -2.532  0.00  0.00     0.049 C 
HETATM   11  C   UNK N   1      30.226  21.676  -4.598  0.00  0.00    -0.043 A 
HETATM   12  C   UNK N   1      31.313  20.848  -3.973  0.00  0.00     0.049 C 
HETATM   13  C   UNK N   1      29.735  21.353  -5.880  0.00  0.00     0.000 A 
HETATM   14  C   UNK N   1      28.705  22.127  -6.486  0.00  0.00     0.072 A 
HETATM   15  N   UNK N   1      28.254  21.772  -7.748  0.00  0.00    -0.358 N 
HETATM   16  C   UNK N   1      27.207  22.490  -8.463  0.00  0.00     0.156 C 
HETATM   17  C   UNK N   1      28.779  20.704  -8.405  0.00  0.00     0.097 A 
HETATM   18  C   UNK N   1      29.783  19.934  -7.837  0.00  0.00    -0.045 A 
HETATM   19  C   UNK N   1      30.338  18.773  -8.579  0.00  0.00     0.049 C 
HETATM   20  C   UNK N   1      30.261  20.257  -6.575  0.00  0.00     0.022 A 
ENDROOT
TORSDOF 0
ENDMDL
MODEL 5
REMARK VINA RESULT:      -6.3      6.634      9.410
REMARK  0 active torsions:
REMARK  status: ('A' for Active; 'I' for Inactive)
ROOT
HETATM    1  C   UNK N   1      20.393  12.203  11.446  0.00  0.00     0.049 C 
HETATM    2  C   UNK N   1      21.091  12.844  10.302  0.00  0.00    -0.046 A 
HETATM    3  C   UNK N   1      22.205  12.236   9.739  0.00  0.00     0.095 A 
HETATM    4  N   UNK N   1      22.843  12.821   8.694  0.00  0.00    -0.363 N 
ATOM      5  HN  UNK N   1      23.660  12.356   8.296  1.00  0.00     0.165 HD
HETATM    6  C   UNK N   1      22.438  14.005   8.154  0.00  0.00     0.071 A 
HETATM    7  C   UNK N   1      21.304  14.655   8.704  0.00  0.00    -0.000 A 
HETATM    8  C   UNK N   1      20.639  14.055   9.785  0.00  0.00     0.022 A 
HETATM    9  C   UNK N   1      20.856  15.878   8.174  0.00  0.00    -0.043 A 
HETATM   10  C   UNK N   1      19.653  16.560   8.763  0.00  0.00     0.049 C 
HETATM   11  C   UNK N   1      21.534  16.463   7.092  0.00  0.00    -0.043 A 
HETATM   12  C   UNK N   1      21.051  17.770   6.529  0.00  0.00     0.049 C 
HETATM   13  C   UNK N   1      22.663  15.827   6.536  0.00  0.00     0.000 A 
HETATM   14  C   UNK N   1      23.135  14.588   7.057  0.00  0.00     0.072 A 
HETATM   15  N   UNK N   1      24.249  13.998   6.479  0.00  0.00    -0.358 N 
HETATM   16  C   UNK N   1      24.818  12.734   6.929  0.00  0.00     0.156 C 
HETATM   17  C   UNK N   1      24.889  14.584   5.433  0.00  0.00     0.097 A 
HETATM   18  C   UNK N   1      24.450  15.790   4.907  0.00  0.00    -0.045 A 
HETATM   19  C   UNK N   1      25.169  16.407   3.763  0.00  0.00     0.049 C 
HETATM   20  C   UNK N   1      23.338  16.411   5.458  0.00  0.00     0.022 A 
ENDROOT
TORSDOF 0
ENDMDL
MODEL 6
REMARK VINA RESULT:      -6.3     13.077     15.107
REMARK  0 active torsions:
REMARK  status: ('A' for Active; 'I' for Inactive)
ROOT
HETATM    1  C   UNK N   1      31.149  29.239  -2.313  0.00  0.00     0.049 C 
HETATM    2  C   UNK N   1      30.302  28.246  -3.021  0.00  0.00    -0.046 A 
HETATM    3  C   UNK N   1      30.808  26.986  -3.313  0.00  0.00     0.095 A 
HETATM    4  N   UNK N   1      30.035  26.077  -3.959  0.00  0.00    -0.363 N 
ATOM      5  HN  UNK N   1      30.427  25.157  -4.163  1.00  0.00     0.165 HD
HETATM    6  C   UNK N   1      28.755  26.343  -4.348  0.00  0.00     0.071 A 
HETATM    7  C   UNK N   1      28.206  27.619  -4.067  0.00  0.00    -0.000 A 
HETATM    8  C   UNK N   1      29.000  28.564  -3.398  0.00  0.00     0.022 A 
HETATM    9  C   UNK N   1      26.890  27.931  -4.452  0.00  0.00    -0.043 A 
HETATM   10  C   UNK N   1      26.317  29.286  -4.149  0.00  0.00     0.049 C 
HETATM   11  C   UNK N   1      26.110  26.972  -5.120  0.00  0.00    -0.043 A 
HETATM   12  C   UNK N   1      24.704  27.311  -5.529  0.00  0.00     0.049 C 
HETATM   13  C   UNK N   1      26.645  25.699  -5.406  0.00  0.00     0.000 A 
HETATM   14  C   UNK N   1      27.975  25.362  -5.025  0.00  0.00     0.072 A 
HETATM   15  N   UNK N   1      28.459  24.097  -5.327  0.00  0.00    -0.358 N 
HETATM   16  C   UNK N   1      29.801  23.645  -4.986  0.00  0.00     0.156 C 
HETATM   17  C   UNK N   1      27.685  23.187  -5.974  0.00  0.00     0.097 A 
HETATM   18  C   UNK N   1      26.387  23.491  -6.356  0.00  0.00    -0.045 A 
HETATM   19  C   UNK N   1      25.564  22.476  -7.062  0.00  0.00     0.049 C 
HETATM   20  C   UNK N   1      25.866  24.745  -6.072  0.00  0.00     0.022 A 
ENDROOT
TORSDOF 0
ENDMDL
MODEL 7
REMARK VINA RESULT:      -6.2     12.800     14.590
REMARK  0 active torsions:
REMARK  status: ('A' for Active; 'I' for Inactive)
ROOT
HETATM    1  C   UNK N   1      26.694  31.062  -3.865  0.00  0.00     0.049 C 
HETATM    2  C   UNK N   1      27.229  29.682  -3.988  0.00  0.00    -0.046 A 
HETATM    3  C   UNK N   1      28.528  29.403  -3.584  0.00  0.00     0.095 A 
HETATM    4  N   UNK N   1      29.017  28.142  -3.695  0.00  0.00    -0.363 N 
ATOM      5  HN  UNK N   1      29.974  27.960  -3.392  1.00  0.00     0.165 HD
HETATM    6  C   UNK N   1      28.282  27.109  -4.195  0.00  0.00     0.071 A 
HETATM    7  C   UNK N   1      26.951  27.357  -4.618  0.00  0.00    -0.000 A 
HETATM    8  C   UNK N   1      26.439  28.659  -4.505  0.00  0.00     0.022 A 
HETATM    9  C   UNK N   1      26.162  26.317  -5.139  0.00  0.00    -0.043 A 
HETATM   10  C   UNK N   1      24.753  26.589  -5.584  0.00  0.00     0.049 C 
HETATM   11  C   UNK N   1      26.692  25.020  -5.244  0.00  0.00    -0.043 A 
HETATM   12  C   UNK N   1      25.844  23.912  -5.802  0.00  0.00     0.049 C 
HETATM   13  C   UNK N   1      28.014  24.760  -4.827  0.00  0.00     0.000 A 
HETATM   14  C   UNK N   1      28.832  25.798  -4.296  0.00  0.00     0.072 A 
HETATM   15  N   UNK N   1      30.126  25.496  -3.899  0.00  0.00    -0.358 N 
HETATM   16  C   UNK N   1      31.049  26.477  -3.343  0.00  0.00     0.156 C 
HETATM   17  C   UNK N   1      30.616  24.234  -4.011  0.00  0.00     0.097 A 
HETATM   18  C   UNK N   1      29.841  23.205  -4.524  0.00  0.00    -0.045 A 
HETATM   19  C   UNK N   1      30.404  21.835  -4.634  0.00  0.00     0.049 C 
HETATM   20  C   UNK N   1      28.541  23.467  -4.932  0.00  0.00     0.022 A 
ENDROOT
TORSDOF 0
ENDMDL
MODEL 8
REMARK VINA RESULT:      -6.2     12.345     14.532
REMARK  0 active torsions:
REMARK  status: ('A' for Active; 'I' for Inactive)
ROOT
HETATM    1  C   UNK N   1      31.967  20.180  -5.758  0.00  0.00     0.049 C 
HETATM    2  C   UNK N   1      30.887  21.200  -5.759  0.00  0.00    -0.046 A 
HETATM    3  C   UNK N   1      30.982  22.311  -4.931  0.00  0.00     0.095 A 
HETATM    4  N   UNK N   1      29.996  23.244  -4.931  0.00  0.00    -0.363 N 
ATOM      5  HN  UNK N   1      30.087  24.052  -4.315  1.00  0.00     0.165 HD
HETATM    6  C   UNK N   1      28.889  23.145  -5.721  0.00  0.00     0.071 A 
HETATM    7  C   UNK N   1      28.759  22.023  -6.579  0.00  0.00    -0.000 A 
HETATM    8  C   UNK N   1      29.775  21.055  -6.584  0.00  0.00     0.022 A 
HETATM    9  C   UNK N   1      27.632  21.886  -7.408  0.00  0.00    -0.043 A 
HETATM   10  C   UNK N   1      27.502  20.694  -8.313  0.00  0.00     0.049 C 
HETATM   11  C   UNK N   1      26.625  22.866  -7.389  0.00  0.00    -0.043 A 
HETATM   12  C   UNK N   1      25.422  22.714  -8.277  0.00  0.00     0.049 C 
HETATM   13  C   UNK N   1      26.743  23.986  -6.540  0.00  0.00     0.000 A 
HETATM   14  C   UNK N   1      27.876  24.145  -5.692  0.00  0.00     0.072 A 
HETATM   15  N   UNK N   1      27.949  25.263  -4.874  0.00  0.00    -0.358 N 
HETATM   16  C   UNK N   1      29.059  25.528  -3.968  0.00  0.00     0.156 C 
HETATM   17  C   UNK N   1      26.962  26.197  -4.874  0.00  0.00     0.097 A 
HETATM   18  C   UNK N   1      25.849  26.065  -5.690  0.00  0.00    -0.045 A 
HETATM   19  C   UNK N   1      24.785  27.102  -5.669  0.00  0.00     0.049 C 
HETATM   20  C   UNK N   1      25.738  24.961  -6.523  0.00  0.00     0.022 A 
ENDROOT
TORSDOF 0
ENDMDL
MODEL 9
REMARK VINA RESULT:      -6.2     11.254     13.452
REMARK  0 active torsions:
REMARK  status: ('A' for Active; 'I' for Inactive)
ROOT
HETATM    1  C   UNK N   1      36.063  14.922  12.807  0.00  0.00     0.049 C 
HETATM    2  C   UNK N   1      35.958  13.707  13.654  0.00  0.00    -0.046 A 
HETATM    3  C   UNK N   1      36.070  12.448  13.079  0.00  0.00     0.095 A 
HETATM    4  N   UNK N   1      35.975  11.337  13.852  0.00  0.00    -0.363 N 
ATOM      5  HN  UNK N   1      36.060  10.422  13.408  1.00  0.00     0.165 HD
HETATM    6  C   UNK N   1      35.769  11.393  15.199  0.00  0.00     0.071 A 
HETATM    7  C   UNK N   1      35.650  12.662  15.820  0.00  0.00    -0.000 A 
HETATM    8  C   UNK N   1      35.748  13.815  15.026  0.00  0.00     0.022 A 
HETATM    9  C   UNK N   1      35.438  12.761  17.206  0.00  0.00    -0.043 A 
HETATM   10  C   UNK N   1      35.313  14.109  17.857  0.00  0.00     0.049 C 
HETATM   11  C   UNK N   1      35.342  11.595  17.985  0.00  0.00    -0.043 A 
HETATM   12  C   UNK N   1      35.116  11.706  19.467  0.00  0.00     0.049 C 
HETATM   13  C   UNK N   1      35.459  10.327  17.379  0.00  0.00     0.000 A 
HETATM   14  C   UNK N   1      35.675  10.203  15.977  0.00  0.00     0.072 A 
HETATM   15  N   UNK N   1      35.783   8.936  15.424  0.00  0.00    -0.358 N 
HETATM   16  C   UNK N   1      36.004   8.691  14.005  0.00  0.00     0.156 C 
HETATM   17  C   UNK N   1      35.688   7.824  16.199  0.00  0.00     0.097 A 
HETATM   18  C   UNK N   1      35.478   7.916  17.566  0.00  0.00    -0.045 A 
HETATM   19  C   UNK N   1      35.378   6.683  18.387  0.00  0.00     0.049 C 
HETATM   20  C   UNK N   1      35.364   9.167  18.157  0.00  0.00     0.022 A 
ENDROOT
TORSDOF 0
ENDMDL
