MODEL 1
REMARK VINA RESULT:      -6.4      0.000      0.000
REMARK  9 active torsions:
REMARK  status: ('A' for Active; 'I' for Inactive)
REMARK    1  A    between atoms: C_4  and  C_2 
REMARK    2  A    between atoms: O_25  and  C_2 
REMARK    3  A    between atoms: C_3  and  O_19 
REMARK    4  A    between atoms: C_5  and  N_18 
REMARK    5  A    between atoms: O_20  and  C_8 
REMARK    6  A    between atoms: O_21  and  C_10 
REMARK    7  A    between atoms: P_27  and  O_22 
REMARK    8  A    between atoms: P_27  and  O_23 
REMARK    9  A    between atoms: P_27  and  O_25 
ROOT
HETATM    1  C   UNK N   1      28.650  18.081   7.046  0.00  0.00     0.132 A 
HETATM    2  C   UNK N   1      29.927  17.648   6.908  0.00  0.00     0.160 A 
HETATM    3  C   UNK N   1      27.810  18.140   5.950  0.00  0.00     0.186 A 
HETATM    4  C   UNK N   1      29.609  17.317   4.616  0.00  0.00     0.679 A 
HETATM    5  C   UNK N   1      29.577  18.126   8.954  0.00  0.00     0.228 A 
HETATM    6  N   UNK N   1      30.050  16.959   3.470  0.00  0.00    -0.234 N 
ATOM      7  HN  UNK N   1      29.410  16.879   2.680  1.00  0.00     0.174 HD
HETATM    8  N   UNK N   1      28.402  18.394   8.330  0.00  0.00    -0.315 N 
ATOM      9  HN  UNK N   1      27.537  18.748   8.739  1.00  0.00     0.170 HD
HETATM   10  N   UNK N   1      30.433  17.259   5.711  0.00  0.00    -0.174 N 
HETATM   11  N   UNK N   1      28.310  17.752   4.740  0.00  0.00    -0.168 N 
ATOM     12  HN  UNK N   1      27.711  17.786   3.914  1.00  0.00     0.186 HD
HETATM   13  N   UNK N   1      30.535  17.666   8.107  0.00  0.00    -0.269 N 
HETATM   14  H   UNK N   1      31.007  16.760   3.350  0.00  0.00     0.174 HD
HETATM   15  H   UNK N   1      31.363  16.946   5.632  0.00  0.00     0.186 HD
ENDROOT
BRANCH  13  16
HETATM   16  C   UNK N   1      31.890  17.267   8.500  0.00  0.00     0.236 C 
HETATM   17  C   UNK N   1      32.882  18.390   8.237  0.00  0.00     0.088 C 
HETATM   18  C   UNK N   1      34.151  17.617   8.319  0.00  0.00     0.153 C 
HETATM   19  C   UNK N   1      33.731  16.368   7.553  0.00  0.00     0.177 C 
HETATM   20  O   UNK N   1      32.361  16.119   7.821  0.00  0.00    -0.356 OA
BRANCH  18  21
HETATM   21  O   UNK N   1      34.420  17.332   9.665  0.00  0.00    -0.393 OA
HETATM   22  H   UNK N   1      34.547  17.699  10.553  0.00  0.00     0.210 HD
ENDBRANCH  18  21
BRANCH  19  23
HETATM   23  C   UNK N   1      34.612  15.183   7.943  0.00  0.00     0.215 C 
BRANCH  23  24
HETATM   24  O   UNK N   1      33.850  14.125   8.437  0.00  0.00    -0.294 OA
BRANCH  24  25
HETATM   25  P   UNK N   1      34.270  14.028  10.128  0.00  0.00     0.390 P 
HETATM   26  O   UNK N   1      35.703  14.604  10.274  0.00  0.00    -0.632 OA
BRANCH  25  27
HETATM   27  O   UNK N   1      34.321  12.384  10.681  0.00  0.00    -0.307 OA
HETATM   28  H   UNK N   1      34.547  12.136  11.591  0.00  0.00     0.222 HD
ENDBRANCH  25  27
BRANCH  25  29
HETATM   29  O   UNK N   1      33.233  14.988  11.141  0.00  0.00    -0.307 OA
HETATM   30  H   UNK N   1      32.572  14.590  11.728  0.00  0.00     0.222 HD
ENDBRANCH  25  29
ENDBRANCH  24  25
ENDBRANCH  23  24
ENDBRANCH  19  23
ENDBRANCH  13  16
BRANCH   5  31
HETATM   31  O   UNK N   1      29.765  18.290  10.276  0.00  0.00    -0.332 OA
HETATM   32  H   UNK N   1      30.035  19.121  10.613  0.00  0.00     0.221 HD
ENDBRANCH   5  31
BRANCH   3  33
HETATM   33  O   UNK N   1      26.538  18.557   6.066  0.00  0.00    -0.344 OA
HETATM   34  H   UNK N   1      25.949  18.504   5.339  0.00  0.00     0.219 HD
ENDBRANCH   3  33
TORSDOF 9
ENDMDL
MODEL 2
REMARK VINA RESULT:      -6.4      1.724      3.077
REMARK  9 active torsions:
REMARK  status: ('A' for Active; 'I' for Inactive)
REMARK    1  A    between atoms: C_4  and  C_2 
REMARK    2  A    between atoms: O_25  and  C_2 
REMARK    3  A    between atoms: C_3  and  O_19 
REMARK    4  A    between atoms: C_5  and  N_18 
REMARK    5  A    between atoms: O_20  and  C_8 
REMARK    6  A    between atoms: O_21  and  C_10 
REMARK    7  A    between atoms: P_27  and  O_22 
REMARK    8  A    between atoms: P_27  and  O_23 
REMARK    9  A    between atoms: P_27  and  O_25 
ROOT
HETATM    1  C   UNK N   1      29.539  17.639   5.736  0.00  0.00     0.132 A 
HETATM    2  C   UNK N   1      30.108  17.505   6.958  0.00  0.00     0.160 A 
HETATM    3  C   UNK N   1      28.250  18.123   5.614  0.00  0.00     0.186 A 
HETATM    4  C   UNK N   1      28.171  18.309   7.992  0.00  0.00     0.679 A 
HETATM    5  C   UNK N   1      31.508  16.894   5.475  0.00  0.00     0.228 A 
HETATM    6  N   UNK N   1      27.521  18.627   9.046  0.00  0.00    -0.234 N 
ATOM      7  HN  UNK N   1      26.620  19.099   8.965  1.00  0.00     0.174 HD
HETATM    8  N   UNK N   1      30.402  17.256   4.778  0.00  0.00    -0.315 N 
ATOM      9  HN  UNK N   1      30.259  17.242   3.767  1.00  0.00     0.170 HD
HETATM   10  N   UNK N   1      29.452  17.831   8.100  0.00  0.00    -0.174 N 
HETATM   11  N   UNK N   1      27.581  18.453   6.758  0.00  0.00    -0.168 N 
ATOM     12  HN  UNK N   1      26.627  18.812   6.697  1.00  0.00     0.186 HD
HETATM   13  N   UNK N   1      31.359  17.035   6.818  0.00  0.00    -0.269 N 
HETATM   14  H   UNK N   1      27.889  18.417   9.934  0.00  0.00     0.174 HD
HETATM   15  H   UNK N   1      29.883  17.728   8.979  0.00  0.00     0.186 HD
ENDROOT
BRANCH  13  16
HETATM   16  C   UNK N   1      32.394  16.750   7.817  0.00  0.00     0.236 C 
HETATM   17  C   UNK N   1      33.466  17.828   7.808  0.00  0.00     0.088 C 
HETATM   18  C   UNK N   1      34.534  17.116   8.560  0.00  0.00     0.153 C 
HETATM   19  C   UNK N   1      34.408  15.737   7.925  0.00  0.00     0.177 C 
HETATM   20  O   UNK N   1      33.042  15.508   7.620  0.00  0.00    -0.356 OA
BRANCH  18  21
HETATM   21  O   UNK N   1      34.190  17.092   9.919  0.00  0.00    -0.393 OA
HETATM   22  H   UNK N   1      33.979  17.622  10.703  0.00  0.00     0.210 HD
ENDBRANCH  18  21
BRANCH  19  23
HETATM   23  C   UNK N   1      34.971  14.667   8.857  0.00  0.00     0.215 C 
BRANCH  23  24
HETATM   24  O   UNK N   1      36.332  14.463   8.633  0.00  0.00    -0.294 OA
BRANCH  24  25
HETATM   25  P   UNK N   1      37.060  14.538  10.216  0.00  0.00     0.390 P 
HETATM   26  O   UNK N   1      36.270  13.561  11.127  0.00  0.00    -0.632 OA
BRANCH  25  27
HETATM   27  O   UNK N   1      36.911  16.120  10.914  0.00  0.00    -0.307 OA
HETATM   28  H   UNK N   1      36.189  16.730  10.699  0.00  0.00     0.222 HD
ENDBRANCH  25  27
BRANCH  25  29
HETATM   29  O   UNK N   1      38.717  14.012  10.227  0.00  0.00    -0.307 OA
HETATM   30  H   UNK N   1      39.159  13.679   9.431  0.00  0.00     0.222 HD
ENDBRANCH  25  29
ENDBRANCH  24  25
ENDBRANCH  23  24
ENDBRANCH  19  23
ENDBRANCH  13  16
BRANCH   5  31
HETATM   31  O   UNK N   1      32.636  16.452   4.890  0.00  0.00    -0.332 OA
HETATM   32  H   UNK N   1      33.461  16.561   5.318  0.00  0.00     0.221 HD
ENDBRANCH   5  31
BRANCH   3  33
HETATM   33  O   UNK N   1      27.671  18.273   4.411  0.00  0.00    -0.344 OA
HETATM   34  H   UNK N   1      27.840  19.033   3.890  0.00  0.00     0.219 HD
ENDBRANCH   3  33
TORSDOF 9
ENDMDL
MODEL 3
REMARK VINA RESULT:      -6.4      4.803      7.300
REMARK  9 active torsions:
REMARK  status: ('A' for Active; 'I' for Inactive)
REMARK    1  A    between atoms: C_4  and  C_2 
REMARK    2  A    between atoms: O_25  and  C_2 
REMARK    3  A    between atoms: C_3  and  O_19 
REMARK    4  A    between atoms: C_5  and  N_18 
REMARK    5  A    between atoms: O_20  and  C_8 
REMARK    6  A    between atoms: O_21  and  C_10 
REMARK    7  A    between atoms: P_27  and  O_22 
REMARK    8  A    between atoms: P_27  and  O_23 
REMARK    9  A    between atoms: P_27  and  O_25 
ROOT
HETATM    1  C   UNK N   1      22.908  19.375   3.798  0.00  0.00     0.132 A 
HETATM    2  C   UNK N   1      23.943  18.708   4.363  0.00  0.00     0.160 A 
HETATM    3  C   UNK N   1      21.606  19.080   4.156  0.00  0.00     0.186 A 
HETATM    4  C   UNK N   1      22.467  17.431   5.650  0.00  0.00     0.679 A 
HETATM    5  C   UNK N   1      24.714  20.144   2.993  0.00  0.00     0.228 A 
HETATM    6  N   UNK N   1      22.250  16.519   6.520  0.00  0.00    -0.234 N 
ATOM      7  HN  UNK N   1      21.308  16.376   6.884  1.00  0.00     0.174 HD
HETATM    8  N   UNK N   1      23.367  20.289   2.924  0.00  0.00    -0.315 N 
ATOM      9  HN  UNK N   1      22.831  20.937   2.346  1.00  0.00     0.170 HD
HETATM   10  N   UNK N   1      23.755  17.735   5.290  0.00  0.00    -0.174 N 
HETATM   11  N   UNK N   1      21.406  18.101   5.087  0.00  0.00    -0.168 N 
ATOM     12  HN  UNK N   1      20.455  17.862   5.369  1.00  0.00     0.186 HD
HETATM   13  N   UNK N   1      25.100  19.180   3.869  0.00  0.00    -0.269 N 
HETATM   14  H   UNK N   1      22.992  15.955   6.839  0.00  0.00     0.174 HD
HETATM   15  H   UNK N   1      24.520  17.262   5.690  0.00  0.00     0.186 HD
ENDROOT
BRANCH  13  16
HETATM   16  C   UNK N   1      26.489  18.823   4.175  0.00  0.00     0.236 C 
HETATM   17  C   UNK N   1      26.853  17.483   3.554  0.00  0.00     0.088 C 
HETATM   18  C   UNK N   1      28.089  17.184   4.326  0.00  0.00     0.153 C 
HETATM   19  C   UNK N   1      27.630  17.624   5.710  0.00  0.00     0.177 C 
HETATM   20  O   UNK N   1      26.758  18.733   5.561  0.00  0.00    -0.356 OA
BRANCH  18  21
HETATM   21  O   UNK N   1      29.128  17.992   3.845  0.00  0.00    -0.393 OA
HETATM   22  H   UNK N   1      29.460  18.512   3.096  0.00  0.00     0.210 HD
ENDBRANCH  18  21
BRANCH  19  23
HETATM   23  C   UNK N   1      28.833  17.961   6.589  0.00  0.00     0.215 C 
BRANCH  23  24
HETATM   24  O   UNK N   1      28.990  17.027   7.613  0.00  0.00    -0.294 OA
BRANCH  24  25
HETATM   25  P   UNK N   1      28.430  17.844   9.048  0.00  0.00     0.390 P 
HETATM   26  O   UNK N   1      27.558  16.832   9.837  0.00  0.00    -0.632 OA
BRANCH  25  27
HETATM   27  O   UNK N   1      27.416  19.198   8.659  0.00  0.00    -0.307 OA
HETATM   28  H   UNK N   1      27.682  20.120   8.802  0.00  0.00     0.222 HD
ENDBRANCH  25  27
BRANCH  25  29
HETATM   29  O   UNK N   1      29.724  18.327  10.104  0.00  0.00    -0.307 OA
HETATM   30  H   UNK N   1      30.069  17.744  10.798  0.00  0.00     0.222 HD
ENDBRANCH  25  29
ENDBRANCH  24  25
ENDBRANCH  23  24
ENDBRANCH  19  23
ENDBRANCH  13  16
BRANCH   5  31
HETATM   31  O   UNK N   1      25.574  20.889   2.275  0.00  0.00    -0.332 OA
HETATM   32  H   UNK N   1      25.367  21.779   2.070  0.00  0.00     0.221 HD
ENDBRANCH   5  31
BRANCH   3  33
HETATM   33  O   UNK N   1      20.567  19.736   3.615  0.00  0.00    -0.344 OA
HETATM   34  H   UNK N   1      20.098  19.374   2.888  0.00  0.00     0.219 HD
ENDBRANCH   3  33
TORSDOF 9
ENDMDL
MODEL 4
REMARK VINA RESULT:      -6.3      4.248      7.538
REMARK  9 active torsions:
REMARK  status: ('A' for Active; 'I' for Inactive)
REMARK    1  A    between atoms: C_4  and  C_2 
REMARK    2  A    between atoms: O_25  and  C_2 
REMARK    3  A    between atoms: C_3  and  O_19 
REMARK    4  A    between atoms: C_5  and  N_18 
REMARK    5  A    between atoms: O_20  and  C_8 
REMARK    6  A    between atoms: O_21  and  C_10 
REMARK    7  A    between atoms: P_27  and  O_22 
REMARK    8  A    between atoms: P_27  and  O_23 
REMARK    9  A    between atoms: P_27  and  O_25 
ROOT
HETATM    1  C   UNK N   1      35.755  14.579  11.766  0.00  0.00     0.132 A 
HETATM    2  C   UNK N   1      34.759  14.279  10.898  0.00  0.00     0.160 A 
HETATM    3  C   UNK N   1      36.235  13.621  12.639  0.00  0.00     0.186 A 
HETATM    4  C   UNK N   1      34.660  12.088  11.710  0.00  0.00     0.679 A 
HETATM    5  C   UNK N   1      35.340  16.307  10.606  0.00  0.00     0.228 A 
HETATM    6  N   UNK N   1      34.151  10.915  11.690  0.00  0.00    -0.234 N 
ATOM      7  HN  UNK N   1      34.576  10.167  12.238  1.00  0.00     0.174 HD
HETATM    8  N   UNK N   1      36.140  15.858  11.606  0.00  0.00    -0.315 N 
ATOM      9  HN  UNK N   1      36.862  16.370  12.114  1.00  0.00     0.170 HD
HETATM   10  N   UNK N   1      34.194  13.047  10.846  0.00  0.00    -0.174 N 
HETATM   11  N   UNK N   1      35.672  12.378  12.595  0.00  0.00    -0.168 N 
ATOM     12  HN  UNK N   1      36.006  11.652  13.229  1.00  0.00     0.186 HD
HETATM   13  N   UNK N   1      34.479  15.360  10.150  0.00  0.00    -0.269 N 
HETATM   14  H   UNK N   1      33.351  10.734  11.146  0.00  0.00     0.174 HD
HETATM   15  H   UNK N   1      33.472  12.847  10.207  0.00  0.00     0.186 HD
ENDROOT
BRANCH  13  16
HETATM   16  C   UNK N   1      33.519  15.547   9.058  0.00  0.00     0.236 C 
HETATM   17  C   UNK N   1      34.236  15.687   7.724  0.00  0.00     0.088 C 
HETATM   18  C   UNK N   1      33.128  16.256   6.910  0.00  0.00     0.153 C 
HETATM   19  C   UNK N   1      32.560  17.245   7.921  0.00  0.00     0.177 C 
HETATM   20  O   UNK N   1      32.697  16.688   9.218  0.00  0.00    -0.356 OA
BRANCH  18  21
HETATM   21  O   UNK N   1      32.213  15.236   6.616  0.00  0.00    -0.393 OA
HETATM   22  H   UNK N   1      31.295  15.022   6.386  0.00  0.00     0.210 HD
ENDBRANCH  18  21
BRANCH  19  23
HETATM   23  C   UNK N   1      31.104  17.568   7.591  0.00  0.00     0.215 C 
BRANCH  23  24
HETATM   24  O   UNK N   1      30.228  16.809   8.365  0.00  0.00    -0.294 OA
BRANCH  24  25
HETATM   25  P   UNK N   1      29.103  17.967   9.026  0.00  0.00     0.390 P 
HETATM   26  O   UNK N   1      28.844  19.029   7.925  0.00  0.00    -0.632 OA
BRANCH  25  27
HETATM   27  O   UNK N   1      29.772  18.801  10.393  0.00  0.00    -0.307 OA
HETATM   28  H   UNK N   1      29.476  18.650  11.305  0.00  0.00     0.222 HD
ENDBRANCH  25  27
BRANCH  25  29
HETATM   29  O   UNK N   1      27.562  17.266   9.425  0.00  0.00    -0.307 OA
HETATM   30  H   UNK N   1      27.484  16.400   9.854  0.00  0.00     0.222 HD
ENDBRANCH  25  29
ENDBRANCH  24  25
ENDBRANCH  23  24
ENDBRANCH  19  23
ENDBRANCH  13  16
BRANCH   5  31
HETATM   31  O   UNK N   1      35.404  17.557  10.115  0.00  0.00    -0.332 OA
HETATM   32  H   UNK N   1      34.938  17.781   9.334  0.00  0.00     0.221 HD
ENDBRANCH   5  31
BRANCH   3  33
HETATM   33  O   UNK N   1      37.228  13.895  13.500  0.00  0.00    -0.344 OA
HETATM   34  H   UNK N   1      37.853  14.568  13.311  0.00  0.00     0.219 HD
ENDBRANCH   3  33
TORSDOF 9
ENDMDL
MODEL 5
REMARK VINA RESULT:      -6.3      6.106      9.210
REMARK  9 active torsions:
REMARK  status: ('A' for Active; 'I' for Inactive)
REMARK    1  A    between atoms: C_4  and  C_2 
REMARK    2  A    between atoms: O_25  and  C_2 
REMARK    3  A    between atoms: C_3  and  O_19 
REMARK    4  A    between atoms: C_5  and  N_18 
REMARK    5  A    between atoms: O_20  and  C_8 
REMARK    6  A    between atoms: O_21  and  C_10 
REMARK    7  A    between atoms: P_27  and  O_22 
REMARK    8  A    between atoms: P_27  and  O_23 
REMARK    9  A    between atoms: P_27  and  O_25 
ROOT
HETATM    1  C   UNK N   1      35.360  12.286  14.958  0.00  0.00     0.132 A 
HETATM    2  C   UNK N   1      35.568  13.144  13.930  0.00  0.00     0.160 A 
HETATM    3  C   UNK N   1      35.876  12.559  16.211  0.00  0.00     0.186 A 
HETATM    4  C   UNK N   1      36.800  14.568  15.315  0.00  0.00     0.679 A 
HETATM    5  C   UNK N   1      34.390  11.510  13.238  0.00  0.00     0.228 A 
HETATM    6  N   UNK N   1      37.477  15.638  15.492  0.00  0.00    -0.234 N 
ATOM      7  HN  UNK N   1      37.757  15.913  16.434  1.00  0.00     0.174 HD
HETATM    8  N   UNK N   1      34.619  11.241  14.548  0.00  0.00    -0.315 N 
ATOM      9  HN  UNK N   1      34.305  10.437  15.092  1.00  0.00     0.170 HD
HETATM   10  N   UNK N   1      36.280  14.289  14.077  0.00  0.00    -0.174 N 
HETATM   11  N   UNK N   1      36.595  13.709  16.369  0.00  0.00    -0.168 N 
ATOM     12  HN  UNK N   1      36.988  13.934  17.283  1.00  0.00     0.186 HD
HETATM   13  N   UNK N   1      34.960  12.673  12.828  0.00  0.00    -0.269 N 
HETATM   14  H   UNK N   1      37.728  16.196  14.721  0.00  0.00     0.174 HD
HETATM   15  H   UNK N   1      36.419  14.900  13.318  0.00  0.00     0.186 HD
ENDROOT
BRANCH  13  16
HETATM   16  C   UNK N   1      34.856  13.233  11.477  0.00  0.00     0.236 C 
HETATM   17  C   UNK N   1      36.215  13.256  10.794  0.00  0.00     0.088 C 
HETATM   18  C   UNK N   1      35.914  14.201   9.684  0.00  0.00     0.153 C 
HETATM   19  C   UNK N   1      35.093  15.230  10.450  0.00  0.00     0.177 C 
HETATM   20  O   UNK N   1      34.348  14.554  11.450  0.00  0.00    -0.356 OA
BRANCH  18  21
HETATM   21  O   UNK N   1      35.142  13.536   8.722  0.00  0.00    -0.393 OA
HETATM   22  H   UNK N   1      35.111  12.810   8.079  0.00  0.00     0.210 HD
ENDBRANCH  18  21
BRANCH  19  23
HETATM   23  C   UNK N   1      34.189  16.008   9.496  0.00  0.00     0.215 C 
BRANCH  23  24
HETATM   24  O   UNK N   1      34.870  16.371   8.335  0.00  0.00    -0.294 OA
BRANCH  24  25
HETATM   25  P   UNK N   1      34.225  17.936   7.913  0.00  0.00     0.390 P 
HETATM   26  O   UNK N   1      34.205  18.017   6.364  0.00  0.00    -0.632 OA
BRANCH  25  27
HETATM   27  O   UNK N   1      35.243  19.222   8.480  0.00  0.00    -0.307 OA
HETATM   28  H   UNK N   1      35.582  19.271   9.387  0.00  0.00     0.222 HD
ENDBRANCH  25  27
BRANCH  25  29
HETATM   29  O   UNK N   1      32.588  18.163   8.453  0.00  0.00    -0.307 OA
HETATM   30  H   UNK N   1      31.944  18.684   7.947  0.00  0.00     0.222 HD
ENDBRANCH  25  29
ENDBRANCH  24  25
ENDBRANCH  23  24
ENDBRANCH  19  23
ENDBRANCH  13  16
BRANCH   5  31
HETATM   31  O   UNK N   1      33.663  10.710  12.438  0.00  0.00    -0.332 OA
HETATM   32  H   UNK N   1      33.531   9.811  12.665  0.00  0.00     0.221 HD
ENDBRANCH   5  31
BRANCH   3  33
HETATM   33  O   UNK N   1      35.673  11.727  17.246  0.00  0.00    -0.344 OA
HETATM   34  H   UNK N   1      36.368  11.528  17.843  0.00  0.00     0.219 HD
ENDBRANCH   3  33
TORSDOF 9
ENDMDL
MODEL 6
REMARK VINA RESULT:      -6.2      1.720      2.141
REMARK  9 active torsions:
REMARK  status: ('A' for Active; 'I' for Inactive)
REMARK    1  A    between atoms: C_4  and  C_2 
REMARK    2  A    between atoms: O_25  and  C_2 
REMARK    3  A    between atoms: C_3  and  O_19 
REMARK    4  A    between atoms: C_5  and  N_18 
REMARK    5  A    between atoms: O_20  and  C_8 
REMARK    6  A    between atoms: O_21  and  C_10 
REMARK    7  A    between atoms: P_27  and  O_22 
REMARK    8  A    between atoms: P_27  and  O_23 
REMARK    9  A    between atoms: P_27  and  O_25 
ROOT
HETATM    1  C   UNK N   1      30.171  17.239   5.242  0.00  0.00     0.132 A 
HETATM    2  C   UNK N   1      31.423  16.974   5.687  0.00  0.00     0.160 A 
HETATM    3  C   UNK N   1      29.883  17.187   3.892  0.00  0.00     0.186 A 
HETATM    4  C   UNK N   1      32.162  16.600   3.500  0.00  0.00     0.679 A 
HETATM    5  C   UNK N   1      30.175  17.407   7.357  0.00  0.00     0.228 A 
HETATM    6  N   UNK N   1      33.091  16.300   2.675  0.00  0.00    -0.234 N 
ATOM      7  HN  UNK N   1      32.866  16.137   1.693  1.00  0.00     0.174 HD
HETATM    8  N   UNK N   1      29.360  17.520   6.278  0.00  0.00    -0.315 N 
ATOM      9  HN  UNK N   1      28.369  17.761   6.259  1.00  0.00     0.170 HD
HETATM   10  N   UNK N   1      32.435  16.652   4.844  0.00  0.00    -0.174 N 
HETATM   11  N   UNK N   1      30.896  16.865   3.034  0.00  0.00    -0.168 N 
ATOM     12  HN  UNK N   1      30.710  16.820   2.032  1.00  0.00     0.186 HD
HETATM   13  N   UNK N   1      31.450  17.072   7.027  0.00  0.00    -0.269 N 
HETATM   14  H   UNK N   1      34.022  16.226   2.986  0.00  0.00     0.174 HD
HETATM   15  H   UNK N   1      33.338  16.461   5.186  0.00  0.00     0.186 HD
ENDROOT
BRANCH  13  16
HETATM   16  C   UNK N   1      32.540  16.852   7.982  0.00  0.00     0.236 C 
HETATM   17  C   UNK N   1      33.489  18.041   8.004  0.00  0.00     0.088 C 
HETATM   18  C   UNK N   1      34.651  17.413   8.690  0.00  0.00     0.153 C 
HETATM   19  C   UNK N   1      34.655  16.063   7.984  0.00  0.00     0.177 C 
HETATM   20  O   UNK N   1      33.313  15.700   7.703  0.00  0.00    -0.356 OA
BRANCH  18  21
HETATM   21  O   UNK N   1      34.354  17.282  10.054  0.00  0.00    -0.393 OA
HETATM   22  H   UNK N   1      34.609  17.523  10.958  0.00  0.00     0.210 HD
ENDBRANCH  18  21
BRANCH  19  23
HETATM   23  C   UNK N   1      35.359  15.014   8.844  0.00  0.00     0.215 C 
BRANCH  23  24
HETATM   24  O   UNK N   1      34.475  14.414   9.739  0.00  0.00    -0.294 OA
BRANCH  24  25
HETATM   25  P   UNK N   1      35.422  14.131  11.176  0.00  0.00     0.390 P 
HETATM   26  O   UNK N   1      36.438  13.008  10.837  0.00  0.00    -0.632 OA
BRANCH  25  27
HETATM   27  O   UNK N   1      34.441  13.555  12.486  0.00  0.00    -0.307 OA
HETATM   28  H   UNK N   1      34.631  13.748  13.417  0.00  0.00     0.222 HD
ENDBRANCH  25  27
BRANCH  25  29
HETATM   29  O   UNK N   1      36.348  15.520  11.663  0.00  0.00    -0.307 OA
HETATM   30  H   UNK N   1      37.084  15.863  11.133  0.00  0.00     0.222 HD
ENDBRANCH  25  29
ENDBRANCH  24  25
ENDBRANCH  23  24
ENDBRANCH  19  23
ENDBRANCH  13  16
BRANCH   5  31
HETATM   31  O   UNK N   1      29.756  17.597   8.621  0.00  0.00    -0.332 OA
HETATM   32  H   UNK N   1      29.244  18.350   8.839  0.00  0.00     0.221 HD
ENDBRANCH   5  31
BRANCH   3  33
HETATM   33  O   UNK N   1      28.646  17.437   3.431  0.00  0.00    -0.344 OA
HETATM   34  H   UNK N   1      28.004  17.844   3.980  0.00  0.00     0.219 HD
ENDBRANCH   3  33
TORSDOF 9
ENDMDL
MODEL 7
REMARK VINA RESULT:      -6.2      5.528      8.349
REMARK  9 active torsions:
REMARK  status: ('A' for Active; 'I' for Inactive)
REMARK    1  A    between atoms: C_4  and  C_2 
REMARK    2  A    between atoms: O_25  and  C_2 
REMARK    3  A    between atoms: C_3  and  O_19 
REMARK    4  A    between atoms: C_5  and  N_18 
REMARK    5  A    between atoms: O_20  and  C_8 
REMARK    6  A    between atoms: O_21  and  C_10 
REMARK    7  A    between atoms: P_27  and  O_22 
REMARK    8  A    between atoms: P_27  and  O_23 
REMARK    9  A    between atoms: P_27  and  O_25 
ROOT
HETATM    1  C   UNK N   1      35.930  13.957  13.516  0.00  0.00     0.132 A 
HETATM    2  C   UNK N   1      35.268  13.405  12.470  0.00  0.00     0.160 A 
HETATM    3  C   UNK N   1      35.844  13.391  14.774  0.00  0.00     0.186 A 
HETATM    4  C   UNK N   1      34.409  11.725  13.850  0.00  0.00     0.679 A 
HETATM    5  C   UNK N   1      36.344  15.111  11.784  0.00  0.00     0.228 A 
HETATM    6  N   UNK N   1      33.697  10.676  14.016  0.00  0.00    -0.234 N 
ATOM      7  HN  UNK N   1      33.724  10.178  14.906  1.00  0.00     0.174 HD
HETATM    8  N   UNK N   1      36.616  15.040  13.111  0.00  0.00    -0.315 N 
ATOM      9  HN  UNK N   1      37.203  15.662  13.669  1.00  0.00     0.170 HD
HETATM   10  N   UNK N   1      34.504  12.293  12.605  0.00  0.00    -0.174 N 
HETATM   11  N   UNK N   1      35.076  12.272  14.921  0.00  0.00    -0.168 N 
ATOM     12  HN  UNK N   1      34.995  11.834  15.839  1.00  0.00     0.186 HD
HETATM   13  N   UNK N   1      35.518  14.119  11.359  0.00  0.00    -0.269 N 
HETATM   14  H   UNK N   1      33.124  10.347  13.285  0.00  0.00     0.174 HD
HETATM   15  H   UNK N   1      34.032  11.906  11.832  0.00  0.00     0.186 HD
ENDROOT
BRANCH  13  16
HETATM   16  C   UNK N   1      35.075  13.924   9.975  0.00  0.00     0.236 C 
HETATM   17  C   UNK N   1      35.979  12.937   9.252  0.00  0.00     0.088 C 
HETATM   18  C   UNK N   1      35.588  13.233   7.847  0.00  0.00     0.153 C 
HETATM   19  C   UNK N   1      35.521  14.753   7.923  0.00  0.00     0.177 C 
HETATM   20  O   UNK N   1      35.058  15.117   9.213  0.00  0.00    -0.356 OA
BRANCH  18  21
HETATM   21  O   UNK N   1      34.327  12.672   7.601  0.00  0.00    -0.393 OA
HETATM   22  H   UNK N   1      33.766  11.886   7.694  0.00  0.00     0.210 HD
ENDBRANCH  18  21
BRANCH  19  23
HETATM   23  C   UNK N   1      34.619  15.303   6.819  0.00  0.00     0.215 C 
BRANCH  23  24
HETATM   24  O   UNK N   1      33.333  15.555   7.293  0.00  0.00    -0.294 OA
BRANCH  24  25
HETATM   25  P   UNK N   1      33.024  17.220   6.872  0.00  0.00     0.390 P 
HETATM   26  O   UNK N   1      34.355  17.808   6.334  0.00  0.00    -0.632 OA
BRANCH  25  27
HETATM   27  O   UNK N   1      32.574  18.158   8.261  0.00  0.00    -0.307 OA
HETATM   28  H   UNK N   1      33.201  18.416   8.954  0.00  0.00     0.222 HD
ENDBRANCH  25  27
BRANCH  25  29
HETATM   29  O   UNK N   1      31.846  17.391   5.604  0.00  0.00    -0.307 OA
HETATM   30  H   UNK N   1      31.474  16.627   5.137  0.00  0.00     0.222 HD
ENDBRANCH  25  29
ENDBRANCH  24  25
ENDBRANCH  23  24
ENDBRANCH  19  23
ENDBRANCH  13  16
BRANCH   5  31
HETATM   31  O   UNK N   1      36.851  16.058  10.976  0.00  0.00    -0.332 OA
HETATM   32  H   UNK N   1      37.491  15.833  10.331  0.00  0.00     0.221 HD
ENDBRANCH   5  31
BRANCH   3  33
HETATM   33  O   UNK N   1      36.499  13.917  15.823  0.00  0.00    -0.344 OA
HETATM   34  H   UNK N   1      37.422  13.786  15.924  0.00  0.00     0.219 HD
ENDBRANCH   3  33
TORSDOF 9
ENDMDL
MODEL 8
REMARK VINA RESULT:      -6.1      4.716      7.666
REMARK  9 active torsions:
REMARK  status: ('A' for Active; 'I' for Inactive)
REMARK    1  A    between atoms: C_4  and  C_2 
REMARK    2  A    between atoms: O_25  and  C_2 
REMARK    3  A    between atoms: C_3  and  O_19 
REMARK    4  A    between atoms: C_5  and  N_18 
REMARK    5  A    between atoms: O_20  and  C_8 
REMARK    6  A    between atoms: O_21  and  C_10 
REMARK    7  A    between atoms: P_27  and  O_22 
REMARK    8  A    between atoms: P_27  and  O_23 
REMARK    9  A    between atoms: P_27  and  O_25 
ROOT
HETATM    1  C   UNK N   1      35.932  13.926  11.181  0.00  0.00     0.132 A 
HETATM    2  C   UNK N   1      36.015  14.508   9.960  0.00  0.00     0.160 A 
HETATM    3  C   UNK N   1      37.035  13.305  11.736  0.00  0.00     0.186 A 
HETATM    4  C   UNK N   1      38.264  13.892   9.777  0.00  0.00     0.679 A 
HETATM    5  C   UNK N   1      34.042  14.773  10.717  0.00  0.00     0.228 A 
HETATM    6  N   UNK N   1      39.363  13.872   9.125  0.00  0.00    -0.234 N 
ATOM      7  HN  UNK N   1      40.214  13.529   9.572  1.00  0.00     0.174 HD
HETATM    8  N   UNK N   1      34.693  14.075  11.682  0.00  0.00    -0.315 N 
ATOM      9  HN  UNK N   1      34.328  13.744  12.576  1.00  0.00     0.170 HD
HETATM   10  N   UNK N   1      37.163  14.509   9.237  0.00  0.00    -0.174 N 
HETATM   11  N   UNK N   1      38.195  13.299  11.016  0.00  0.00    -0.168 N 
ATOM     12  HN  UNK N   1      39.024  12.847  11.402  1.00  0.00     0.186 HD
HETATM   13  N   UNK N   1      34.829  15.054   9.645  0.00  0.00    -0.269 N 
HETATM   14  H   UNK N   1      39.390  14.188   8.193  0.00  0.00     0.174 HD
HETATM   15  H   UNK N   1      37.205  14.939   8.353  0.00  0.00     0.186 HD
ENDROOT
BRANCH  13  16
HETATM   16  C   UNK N   1      34.408  15.819   8.467  0.00  0.00     0.236 C 
HETATM   17  C   UNK N   1      34.449  17.313   8.747  0.00  0.00     0.088 C 
HETATM   18  C   UNK N   1      33.622  17.798   7.609  0.00  0.00     0.153 C 
HETATM   19  C   UNK N   1      32.524  16.742   7.633  0.00  0.00     0.177 C 
HETATM   20  O   UNK N   1      33.098  15.507   8.029  0.00  0.00    -0.356 OA
BRANCH  18  21
HETATM   21  O   UNK N   1      34.384  17.725   6.435  0.00  0.00    -0.393 OA
HETATM   22  H   UNK N   1      34.896  17.151   5.844  0.00  0.00     0.210 HD
ENDBRANCH  18  21
BRANCH  19  23
HETATM   23  C   UNK N   1      31.850  16.644   6.265  0.00  0.00     0.215 C 
BRANCH  23  24
HETATM   24  O   UNK N   1      32.591  15.851   5.390  0.00  0.00    -0.294 OA
BRANCH  24  25
HETATM   25  P   UNK N   1      32.110  16.378   3.799  0.00  0.00     0.390 P 
HETATM   26  O   UNK N   1      30.872  15.534   3.394  0.00  0.00    -0.632 OA
BRANCH  25  27
HETATM   27  O   UNK N   1      33.346  16.069   2.621  0.00  0.00    -0.307 OA
HETATM   28  H   UNK N   1      34.263  16.370   2.721  0.00  0.00     0.222 HD
ENDBRANCH  25  27
BRANCH  25  29
HETATM   29  O   UNK N   1      31.620  18.047   3.755  0.00  0.00    -0.307 OA
HETATM   30  H   UNK N   1      30.778  18.328   3.365  0.00  0.00     0.222 HD
ENDBRANCH  25  29
ENDBRANCH  24  25
ENDBRANCH  23  24
ENDBRANCH  19  23
ENDBRANCH  13  16
BRANCH   5  31
HETATM   31  O   UNK N   1      32.757  15.153  10.821  0.00  0.00    -0.332 OA
HETATM   32  H   UNK N   1      32.071  14.567  10.570  0.00  0.00     0.221 HD
ENDBRANCH   5  31
BRANCH   3  33
HETATM   33  O   UNK N   1      36.976  12.730  12.949  0.00  0.00    -0.344 OA
HETATM   34  H   UNK N   1      37.246  11.841  13.071  0.00  0.00     0.219 HD
ENDBRANCH   3  33
TORSDOF 9
ENDMDL
MODEL 9
REMARK VINA RESULT:      -6.1      4.677      7.822
REMARK  9 active torsions:
REMARK  status: ('A' for Active; 'I' for Inactive)
REMARK    1  A    between atoms: C_4  and  C_2 
REMARK    2  A    between atoms: O_25  and  C_2 
REMARK    3  A    between atoms: C_3  and  O_19 
REMARK    4  A    between atoms: C_5  and  N_18 
REMARK    5  A    between atoms: O_20  and  C_8 
REMARK    6  A    between atoms: O_21  and  C_10 
REMARK    7  A    between atoms: P_27  and  O_22 
REMARK    8  A    between atoms: P_27  and  O_23 
REMARK    9  A    between atoms: P_27  and  O_25 
ROOT
HETATM    1  C   UNK N   1      35.950  14.398  12.703  0.00  0.00     0.132 A 
HETATM    2  C   UNK N   1      35.015  14.048  11.786  0.00  0.00     0.160 A 
HETATM    3  C   UNK N   1      36.278  13.535  13.731  0.00  0.00     0.186 A 
HETATM    4  C   UNK N   1      34.684  11.993  12.851  0.00  0.00     0.679 A 
HETATM    5  C   UNK N   1      35.765  15.981  11.302  0.00  0.00     0.228 A 
HETATM    6  N   UNK N   1      34.096  10.861  12.929  0.00  0.00    -0.234 N 
ATOM      7  HN  UNK N   1      34.415  10.166  13.604  1.00  0.00     0.174 HD
HETATM    8  N   UNK N   1      36.439  15.619  12.422  0.00  0.00    -0.315 N 
ATOM      9  HN  UNK N   1      37.149  16.148  12.931  1.00  0.00     0.170 HD
HETATM   10  N   UNK N   1      34.369  12.857  11.833  0.00  0.00    -0.174 N 
HETATM   11  N   UNK N   1      35.632  12.333  13.787  0.00  0.00    -0.168 N 
ATOM     12  HN  UNK N   1      35.856  11.678  14.536  1.00  0.00     0.186 HD
HETATM   13  N   UNK N   1      34.882  15.037  10.886  0.00  0.00    -0.269 N 
HETATM   14  H   UNK N   1      33.336  10.658  12.336  0.00  0.00     0.174 HD
HETATM   15  H   UNK N   1      33.693  12.620  11.157  0.00  0.00     0.186 HD
ENDROOT
BRANCH  13  16
HETATM   16  C   UNK N   1      34.038  15.138   9.691  0.00  0.00     0.236 C 
HETATM   17  C   UNK N   1      34.716  14.490   8.493  0.00  0.00     0.088 C 
HETATM   18  C   UNK N   1      33.891  15.075   7.401  0.00  0.00     0.153 C 
HETATM   19  C   UNK N   1      33.778  16.505   7.913  0.00  0.00     0.177 C 
HETATM   20  O   UNK N   1      33.726  16.470   9.330  0.00  0.00    -0.356 OA
BRANCH  18  21
HETATM   21  O   UNK N   1      32.646  14.433   7.383  0.00  0.00    -0.393 OA
HETATM   22  H   UNK N   1      31.844  14.221   7.886  0.00  0.00     0.210 HD
ENDBRANCH  18  21
BRANCH  19  23
HETATM   23  C   UNK N   1      32.551  17.190   7.315  0.00  0.00     0.215 C 
BRANCH  23  24
HETATM   24  O   UNK N   1      32.088  18.213   8.141  0.00  0.00    -0.294 OA
BRANCH  24  25
HETATM   25  P   UNK N   1      30.535  17.657   8.708  0.00  0.00     0.390 P 
HETATM   26  O   UNK N   1      29.867  18.847   9.447  0.00  0.00    -0.632 OA
BRANCH  25  27
HETATM   27  O   UNK N   1      30.698  16.368   9.858  0.00  0.00    -0.307 OA
HETATM   28  H   UNK N   1      31.395  16.341  10.532  0.00  0.00     0.222 HD
ENDBRANCH  25  27
BRANCH  25  29
HETATM   29  O   UNK N   1      29.465  17.199   7.416  0.00  0.00    -0.307 OA
HETATM   30  H   UNK N   1      28.637  17.671   7.239  0.00  0.00     0.222 HD
ENDBRANCH  25  29
ENDBRANCH  24  25
ENDBRANCH  23  24
ENDBRANCH  19  23
ENDBRANCH  13  16
BRANCH   5  31
HETATM   31  O   UNK N   1      35.964  17.150  10.667  0.00  0.00    -0.332 OA
HETATM   32  H   UNK N   1      36.753  17.295  10.184  0.00  0.00     0.221 HD
ENDBRANCH   5  31
BRANCH   3  33
HETATM   33  O   UNK N   1      37.209  13.859  14.644  0.00  0.00    -0.344 OA
HETATM   34  H   UNK N   1      38.101  13.998  14.390  0.00  0.00     0.219 HD
ENDBRANCH   3  33
TORSDOF 9
ENDMDL
