MODEL 1
REMARK VINA RESULT:      -4.0      0.000      0.000
REMARK  5 active torsions:
REMARK  status: ('A' for Active; 'I' for Inactive)
REMARK    1  A    between atoms: S_2  and  C_3 
REMARK    2  A    between atoms: C_3  and  C_4 
REMARK    3  A    between atoms: C_4  and  N_5 
REMARK    4  A    between atoms: C_4  and  C_6 
REMARK    5  A    between atoms: C_6  and  O_7 
ROOT
HETATM    1  C   UNK N   1      33.928  17.255   8.951  0.00  0.00     0.182 C 
ENDROOT
BRANCH   1   2
HETATM    2  C   UNK N   1      32.635  16.462   8.707  0.00  0.00     0.108 C 
BRANCH   2   3
HETATM    3  S   UNK N   1      31.158  17.487   8.403  0.00  0.00    -0.171 SA
HETATM    4  C   UNK N   1      31.035  16.986   6.666  0.00  0.00     0.089 C 
ENDBRANCH   2   3
ENDBRANCH   1   2
BRANCH   1   5
HETATM    5  N   UNK N   1      34.594  17.005  10.217  0.00  0.00    -0.417 N 
HETATM    6  H   UNK N   1      35.592  16.794  10.237  0.00  0.00     0.150 HD
HETATM    7  H   UNK N   1      34.062  17.040  11.087  0.00  0.00     0.150 HD
ENDBRANCH   1   5
BRANCH   1   8
HETATM    8  C   UNK N   1      34.585  18.257   8.033  0.00  0.00     0.163 C 
HETATM    9  O   UNK N   1      34.467  18.178   6.826  0.00  0.00    -0.648 OA
BRANCH   8  10
HETATM   10  O   UNK N   1      35.318  19.261   8.560  0.00  0.00    -0.775 OA
HETATM   11  H   UNK N   1      36.007  19.651   8.059  0.00  0.00     0.167 HD
ENDBRANCH   8  10
ENDBRANCH   1   8
TORSDOF 5
ENDMDL
MODEL 2
REMARK VINA RESULT:      -3.8      2.521      3.253
REMARK  5 active torsions:
REMARK  status: ('A' for Active; 'I' for Inactive)
REMARK    1  A    between atoms: S_2  and  C_3 
REMARK    2  A    between atoms: C_3  and  C_4 
REMARK    3  A    between atoms: C_4  and  N_5 
REMARK    4  A    between atoms: C_4  and  C_6 
REMARK    5  A    between atoms: C_6  and  O_7 
ROOT
HETATM    1  C   UNK N   1      33.809  17.173   8.814  0.00  0.00     0.182 C 
ENDROOT
BRANCH   1   2
HETATM    2  C   UNK N   1      34.417  15.941   9.499  0.00  0.00     0.108 C 
BRANCH   2   3
HETATM    3  S   UNK N   1      35.477  16.312  10.936  0.00  0.00    -0.171 SA
HETATM    4  C   UNK N   1      35.130  14.725  11.739  0.00  0.00     0.089 C 
ENDBRANCH   2   3
ENDBRANCH   1   2
BRANCH   1   5
HETATM    5  N   UNK N   1      32.387  17.377   9.025  0.00  0.00    -0.417 N 
HETATM    6  H   UNK N   1      32.062  17.924   9.823  0.00  0.00     0.150 HD
HETATM    7  H   UNK N   1      31.712  16.973   8.376  0.00  0.00     0.150 HD
ENDBRANCH   1   5
BRANCH   1   8
HETATM    8  C   UNK N   1      34.513  18.193   7.951  0.00  0.00     0.163 C 
HETATM    9  O   UNK N   1      34.433  18.153   6.738  0.00  0.00    -0.648 OA
BRANCH   8  10
HETATM   10  O   UNK N   1      35.244  19.166   8.533  0.00  0.00    -0.775 OA
HETATM   11  H   UNK N   1      35.829  18.957   9.234  0.00  0.00     0.167 HD
ENDBRANCH   8  10
ENDBRANCH   1   8
TORSDOF 5
ENDMDL
MODEL 3
REMARK VINA RESULT:      -3.7     12.921     14.250
REMARK  5 active torsions:
REMARK  status: ('A' for Active; 'I' for Inactive)
REMARK    1  A    between atoms: S_2  and  C_3 
REMARK    2  A    between atoms: C_3  and  C_4 
REMARK    3  A    between atoms: C_4  and  N_5 
REMARK    4  A    between atoms: C_4  and  C_6 
REMARK    5  A    between atoms: C_6  and  O_7 
ROOT
HETATM    1  C   UNK N   1      20.249  18.991   2.235  0.00  0.00     0.182 C 
ENDROOT
BRANCH   1   2
HETATM    2  C   UNK N   1      21.041  17.929   3.012  0.00  0.00     0.108 C 
BRANCH   2   3
HETATM    3  S   UNK N   1      21.660  18.476   4.638  0.00  0.00    -0.171 SA
HETATM    4  C   UNK N   1      23.316  18.849   4.002  0.00  0.00     0.089 C 
ENDBRANCH   2   3
ENDBRANCH   1   2
BRANCH   1   5
HETATM    5  N   UNK N   1      18.803  18.869   2.293  0.00  0.00    -0.417 N 
HETATM    6  H   UNK N   1      18.224  19.701   2.406  0.00  0.00     0.150 HD
HETATM    7  H   UNK N   1      18.366  17.950   2.222  0.00  0.00     0.150 HD
ENDBRANCH   1   5
BRANCH   1   8
HETATM    8  C   UNK N   1      20.794  20.141   1.423  0.00  0.00     0.163 C 
HETATM    9  O   UNK N   1      21.343  21.084   1.956  0.00  0.00    -0.648 OA
BRANCH   8  10
HETATM   10  O   UNK N   1      20.670  20.123   0.079  0.00  0.00    -0.775 OA
HETATM   11  H   UNK N   1      20.823  20.903  -0.416  0.00  0.00     0.167 HD
ENDBRANCH   8  10
ENDBRANCH   1   8
TORSDOF 5
ENDMDL
MODEL 4
REMARK VINA RESULT:      -3.7      4.895      5.610
REMARK  5 active torsions:
REMARK  status: ('A' for Active; 'I' for Inactive)
REMARK    1  A    between atoms: S_2  and  C_3 
REMARK    2  A    between atoms: C_3  and  C_4 
REMARK    3  A    between atoms: C_4  and  N_5 
REMARK    4  A    between atoms: C_4  and  C_6 
REMARK    5  A    between atoms: C_6  and  O_7 
ROOT
HETATM    1  C   UNK N   1      34.823  15.022  11.292  0.00  0.00     0.182 C 
ENDROOT
BRANCH   1   2
HETATM    2  C   UNK N   1      35.221  13.783  12.109  0.00  0.00     0.108 C 
BRANCH   2   3
HETATM    3  S   UNK N   1      36.140  14.143  13.642  0.00  0.00    -0.171 SA
HETATM    4  C   UNK N   1      35.264  12.873  14.593  0.00  0.00     0.089 C 
ENDBRANCH   2   3
ENDBRANCH   1   2
BRANCH   1   5
HETATM    5  N   UNK N   1      33.448  15.059  10.828  0.00  0.00    -0.417 N 
HETATM    6  H   UNK N   1      33.129  14.396  10.121  0.00  0.00     0.150 HD
HETATM    7  H   UNK N   1      32.800  15.748  11.210  0.00  0.00     0.150 HD
ENDBRANCH   1   5
BRANCH   1   8
HETATM    8  C   UNK N   1      35.691  16.200  10.917  0.00  0.00     0.163 C 
HETATM    9  O   UNK N   1      35.206  17.291  10.689  0.00  0.00    -0.648 OA
BRANCH   8  10
HETATM   10  O   UNK N   1      37.028  16.041  10.833  0.00  0.00    -0.775 OA
HETATM   11  H   UNK N   1      37.399  15.554  10.124  0.00  0.00     0.167 HD
ENDBRANCH   8  10
ENDBRANCH   1   8
TORSDOF 5
ENDMDL
MODEL 5
REMARK VINA RESULT:      -3.6     11.261     12.020
REMARK  5 active torsions:
REMARK  status: ('A' for Active; 'I' for Inactive)
REMARK    1  A    between atoms: S_2  and  C_3 
REMARK    2  A    between atoms: C_3  and  C_4 
REMARK    3  A    between atoms: C_4  and  N_5 
REMARK    4  A    between atoms: C_4  and  C_6 
REMARK    5  A    between atoms: C_6  and  O_7 
ROOT
HETATM    1  C   UNK N   1      22.724  11.894  11.109  0.00  0.00     0.182 C 
ENDROOT
BRANCH   1   2
HETATM    2  C   UNK N   1      22.888  11.744   9.589  0.00  0.00     0.108 C 
BRANCH   2   3
HETATM    3  S   UNK N   1      22.966  13.319   8.672  0.00  0.00    -0.171 SA
HETATM    4  C   UNK N   1      24.738  13.154   8.328  0.00  0.00     0.089 C 
ENDBRANCH   2   3
ENDBRANCH   1   2
BRANCH   1   5
HETATM    5  N   UNK N   1      21.360  11.850  11.605  0.00  0.00    -0.417 N 
HETATM    6  H   UNK N   1      20.631  11.396  11.055  0.00  0.00     0.150 HD
HETATM    7  H   UNK N   1      21.131  12.275  12.504  0.00  0.00     0.150 HD
ENDBRANCH   1   5
BRANCH   1   8
HETATM    8  C   UNK N   1      23.809  12.079  12.142  0.00  0.00     0.163 C 
HETATM    9  O   UNK N   1      23.563  12.022  13.331  0.00  0.00    -0.648 OA
BRANCH   8  10
HETATM   10  O   UNK N   1      25.077  12.312  11.741  0.00  0.00    -0.775 OA
HETATM   11  H   UNK N   1      25.755  11.701  11.951  0.00  0.00     0.167 HD
ENDBRANCH   8  10
ENDBRANCH   1   8
TORSDOF 5
ENDMDL
MODEL 6
REMARK VINA RESULT:      -3.4     11.151     11.919
REMARK  5 active torsions:
REMARK  status: ('A' for Active; 'I' for Inactive)
REMARK    1  A    between atoms: S_2  and  C_3 
REMARK    2  A    between atoms: C_3  and  C_4 
REMARK    3  A    between atoms: C_4  and  N_5 
REMARK    4  A    between atoms: C_4  and  C_6 
REMARK    5  A    between atoms: C_6  and  O_7 
ROOT
HETATM    1  C   UNK N   1      43.600  22.378   3.436  0.00  0.00     0.182 C 
ENDROOT
BRANCH   1   2
HETATM    2  C   UNK N   1      42.440  21.882   2.560  0.00  0.00     0.108 C 
BRANCH   2   3
HETATM    3  S   UNK N   1      41.602  20.385   3.180  0.00  0.00    -0.171 SA
HETATM    4  C   UNK N   1      40.030  20.805   2.383  0.00  0.00     0.089 C 
ENDBRANCH   2   3
ENDBRANCH   1   2
BRANCH   1   5
HETATM    5  N   UNK N   1      43.434  23.699   4.016  0.00  0.00    -0.417 N 
HETATM    6  H   UNK N   1      42.628  24.271   3.762  0.00  0.00     0.150 HD
HETATM    7  H   UNK N   1      44.123  24.056   4.678  0.00  0.00     0.150 HD
ENDBRANCH   1   5
BRANCH   1   8
HETATM    8  C   UNK N   1      44.886  21.658   3.763  0.00  0.00     0.163 C 
HETATM    9  O   UNK N   1      45.009  20.466   3.559  0.00  0.00    -0.648 OA
BRANCH   8  10
HETATM   10  O   UNK N   1      45.918  22.347   4.292  0.00  0.00    -0.775 OA
HETATM   11  H   UNK N   1      46.173  22.201   5.182  0.00  0.00     0.167 HD
ENDBRANCH   8  10
ENDBRANCH   1   8
TORSDOF 5
ENDMDL
MODEL 7
REMARK VINA RESULT:      -3.4      2.851      3.182
REMARK  5 active torsions:
REMARK  status: ('A' for Active; 'I' for Inactive)
REMARK    1  A    between atoms: S_2  and  C_3 
REMARK    2  A    between atoms: C_3  and  C_4 
REMARK    3  A    between atoms: C_4  and  N_5 
REMARK    4  A    between atoms: C_4  and  C_6 
REMARK    5  A    between atoms: C_6  and  O_7 
ROOT
HETATM    1  C   UNK N   1      34.679  15.406  10.012  0.00  0.00     0.182 C 
ENDROOT
BRANCH   1   2
HETATM    2  C   UNK N   1      34.590  14.674   8.665  0.00  0.00     0.108 C 
BRANCH   2   3
HETATM    3  S   UNK N   1      34.603  15.763   7.202  0.00  0.00    -0.171 SA
HETATM    4  C   UNK N   1      33.062  16.591   7.673  0.00  0.00     0.089 C 
ENDBRANCH   2   3
ENDBRANCH   1   2
BRANCH   1   5
HETATM    5  N   UNK N   1      33.670  15.048  10.994  0.00  0.00    -0.417 N 
HETATM    6  H   UNK N   1      33.785  14.208  11.561  0.00  0.00     0.150 HD
HETATM    7  H   UNK N   1      32.846  15.637  11.116  0.00  0.00     0.150 HD
ENDBRANCH   1   5
BRANCH   1   8
HETATM    8  C   UNK N   1      35.685  16.449  10.433  0.00  0.00     0.163 C 
HETATM    9  O   UNK N   1      35.455  17.635  10.304  0.00  0.00    -0.648 OA
BRANCH   8  10
HETATM   10  O   UNK N   1      36.864  16.060  10.963  0.00  0.00    -0.775 OA
HETATM   11  H   UNK N   1      37.389  16.672  11.440  0.00  0.00     0.167 HD
ENDBRANCH   8  10
ENDBRANCH   1   8
TORSDOF 5
ENDMDL
MODEL 8
REMARK VINA RESULT:      -3.3     12.013     12.525
REMARK  5 active torsions:
REMARK  status: ('A' for Active; 'I' for Inactive)
REMARK    1  A    between atoms: S_2  and  C_3 
REMARK    2  A    between atoms: C_3  and  C_4 
REMARK    3  A    between atoms: C_4  and  N_5 
REMARK    4  A    between atoms: C_4  and  C_6 
REMARK    5  A    between atoms: C_6  and  O_7 
ROOT
HETATM    1  C   UNK N   1      43.547  22.497   3.478  0.00  0.00     0.182 C 
ENDROOT
BRANCH   1   2
HETATM    2  C   UNK N   1      42.295  22.015   2.729  0.00  0.00     0.108 C 
BRANCH   2   3
HETATM    3  S   UNK N   1      41.541  23.257   1.627  0.00  0.00    -0.171 SA
HETATM    4  C   UNK N   1      42.085  22.408   0.121  0.00  0.00     0.089 C 
ENDBRANCH   2   3
ENDBRANCH   1   2
BRANCH   1   5
HETATM    5  N   UNK N   1      43.514  23.871   3.947  0.00  0.00    -0.417 N 
HETATM    6  H   UNK N   1      42.621  24.322   4.144  0.00  0.00     0.150 HD
HETATM    7  H   UNK N   1      44.385  24.385   4.079  0.00  0.00     0.150 HD
ENDBRANCH   1   5
BRANCH   1   8
HETATM    8  C   UNK N   1      44.801  21.713   3.782  0.00  0.00     0.163 C 
HETATM    9  O   UNK N   1      44.853  20.512   3.598  0.00  0.00    -0.648 OA
BRANCH   8  10
HETATM   10  O   UNK N   1      45.885  22.354   4.266  0.00  0.00    -0.775 OA
HETATM   11  H   UNK N   1      46.029  23.256   4.057  0.00  0.00     0.167 HD
ENDBRANCH   8  10
ENDBRANCH   1   8
TORSDOF 5
ENDMDL
MODEL 9
REMARK VINA RESULT:      -3.2     11.396     12.185
REMARK  5 active torsions:
REMARK  status: ('A' for Active; 'I' for Inactive)
REMARK    1  A    between atoms: S_2  and  C_3 
REMARK    2  A    between atoms: C_3  and  C_4 
REMARK    3  A    between atoms: C_4  and  N_5 
REMARK    4  A    between atoms: C_4  and  C_6 
REMARK    5  A    between atoms: C_6  and  O_7 
ROOT
HETATM    1  C   UNK N   1      44.314  21.971   3.686  0.00  0.00     0.182 C 
ENDROOT
BRANCH   1   2
HETATM    2  C   UNK N   1      43.726  20.571   3.455  0.00  0.00     0.108 C 
BRANCH   2   3
HETATM    3  S   UNK N   1      42.803  20.380   1.893  0.00  0.00    -0.171 SA
HETATM    4  C   UNK N   1      41.189  20.484   2.710  0.00  0.00     0.089 C 
ENDBRANCH   2   3
ENDBRANCH   1   2
BRANCH   1   5
HETATM    5  N   UNK N   1      45.695  22.011   4.134  0.00  0.00    -0.417 N 
HETATM    6  H   UNK N   1      46.248  22.859   4.008  0.00  0.00     0.150 HD
HETATM    7  H   UNK N   1      46.112  21.191   4.574  0.00  0.00     0.150 HD
ENDBRANCH   1   5
BRANCH   1   8
HETATM    8  C   UNK N   1      43.628  23.304   3.504  0.00  0.00     0.163 C 
HETATM    9  O   UNK N   1      43.218  23.657   2.416  0.00  0.00    -0.648 OA
BRANCH   8  10
HETATM   10  O   UNK N   1      43.466  24.120   4.566  0.00  0.00    -0.775 OA
HETATM   11  H   UNK N   1      43.879  23.915   5.382  0.00  0.00     0.167 HD
ENDBRANCH   8  10
ENDBRANCH   1   8
TORSDOF 5
ENDMDL
