REMARK  7 active torsions:
REMARK  status: ('A' for Active; 'I' for Inactive)
REMARK    1  A    between atoms: C_2  and  O_1 
REMARK    2  A    between atoms: C_2  and  C_3 
REMARK    3  A    between atoms: C_2  and  C_9 
REMARK    4  A    between atoms: C_3  and  O_4 
REMARK    5  A    between atoms: O_4  and  P_5 
REMARK    6  A    between atoms: P_5  and  O_6 
REMARK    7  A    between atoms: P_5  and  O_7 
ROOT
HETATM    1  O   UNK N   1       2.852   1.656  -0.283  0.00  0.00    -0.294 OA
ENDROOT
BRANCH   1   2
HETATM    2  C   UNK N   1       3.965   1.411   0.530  0.00  0.00     0.219 C 
BRANCH   2   3
HETATM    3  C   UNK N   1       5.232   1.771  -0.219  0.00  0.00     0.203 C 
BRANCH   3   4
HETATM    4  O   UNK N   1       5.512   3.125  -0.034  0.00  0.00    -0.387 OA
HETATM    5  H   UNK N   1       6.424   3.427   0.094  0.00  0.00     0.210 HD
ENDBRANCH   3   4
BRANCH   3   6
HETATM    6  C   UNK N   1       6.359   0.943   0.290  0.00  0.00     0.264 C 
HETATM    7  O   UNK N   1       7.469   1.035  -0.220  0.00  0.00    -0.304 OA
ENDBRANCH   3   6
ENDBRANCH   2   3
ENDBRANCH   1   2
BRANCH   1   8
HETATM    8  P   UNK N   1       1.481   1.124   0.648  0.00  0.00     0.390 P 
HETATM    9  O   UNK N   1       0.873   2.313  -0.144  0.00  0.00    -0.632 OA
BRANCH   8  10
HETATM   10  O   UNK N   1       0.085   0.402  -0.089  0.00  0.00    -0.307 OA
HETATM   11  H   UNK N   1      -0.654   0.876  -0.501  0.00  0.00     0.222 HD
ENDBRANCH   8  10
BRANCH   8  12
HETATM   12  O   UNK N   1       1.904  -0.130  -0.480  0.00  0.00    -0.307 OA
HETATM   13  H   UNK N   1       1.417  -0.684  -1.109  0.00  0.00     0.222 HD
ENDBRANCH   8  12
ENDBRANCH   1   8
TORSDOF 7
