MODEL 1
REMARK VINA RESULT:      -7.1      0.000      0.000
REMARK  4 active torsions:
REMARK  status: ('A' for Active; 'I' for Inactive)
REMARK    1  A    between atoms: C_8  and  C_9 
REMARK    2  A    between atoms: O_20  and  C_9 
REMARK    3  A    between atoms: O_21  and  C_10 
REMARK    4  A    between atoms: O_22  and  C_11 
ROOT
HETATM    1  C   UNK N   1      31.158  16.880   3.678  0.00  0.00     0.045 A 
HETATM    2  C   UNK N   1      30.108  17.064   4.583  0.00  0.00     0.040 A 
HETATM    3  C   UNK N   1      32.757  17.037   5.489  0.00  0.00     0.055 A 
HETATM    4  C   UNK N   1      30.764  17.996   8.628  0.00  0.00     0.086 C 
HETATM    5  C   UNK N   1      32.480  16.858   4.131  0.00  0.00     0.117 A 
HETATM    6  C   UNK N   1      31.712  17.241   6.404  0.00  0.00     0.015 A 
HETATM    7  C   UNK N   1      30.377  17.234   5.944  0.00  0.00     0.079 A 
HETATM    8  C   UNK N   1      29.523  17.222   8.184  0.00  0.00     0.206 C 
HETATM    9  C   UNK N   1      32.611  16.269   8.546  0.00  0.00     0.152 A 
HETATM   10  C   UNK N   1      34.073  17.829   8.646  0.00  0.00     0.220 A 
HETATM   11  C   UNK N   1      32.005  17.484   7.874  0.00  0.00     0.131 A 
HETATM   12  F   UNK N   1      33.493  16.679   3.252  0.00  0.00    -0.206 F 
HETATM   13  N   UNK N   1      33.790  16.502   8.971  0.00  0.00    -0.304 N 
ATOM     14  HN  UNK N   1      34.405  15.847   9.456  1.00  0.00     0.171 HD
HETATM   15  N   UNK N   1      33.109  18.416   8.042  0.00  0.00    -0.335 N 
ATOM     16  HN  UNK N   1      33.114  19.386   7.727  1.00  0.00     0.164 HD
HETATM   17  O   UNK N   1      29.350  17.386   6.818  0.00  0.00    -0.337 OA
ENDROOT
BRANCH   9  18
HETATM   18  O   UNK N   1      32.004  15.076   8.698  0.00  0.00    -0.347 OA
HETATM   19  H   UNK N   1      32.089  14.151   8.821  0.00  0.00     0.219 HD
ENDBRANCH   9  18
BRANCH   8  20
HETATM   20  C   UNK N   1      28.308  17.671   8.946  0.00  0.00     0.139 C 
HETATM   21  N   UNK N   1      27.797  18.830   8.744  0.00  0.00    -0.382 N 
HETATM   22  H   UNK N   1      26.974  19.160   9.171  0.00  0.00     0.158 HD
ATOM     23  HN  UNK N   1      28.277  19.454   8.095  1.00  0.00     0.158 HD
BRANCH  20  24
HETATM   24  O   UNK N   1      27.732  16.838   9.836  0.00  0.00    -0.348 OA
HETATM   25  H   UNK N   1      27.063  17.156  10.409  0.00  0.00     0.219 HD
ENDBRANCH  20  24
ENDBRANCH   8  20
BRANCH  10  26
HETATM   26  O   UNK N   1      35.241  18.433   8.930  0.00  0.00    -0.332 OA
HETATM   27  H   UNK N   1      35.340  19.191   9.472  0.00  0.00     0.220 HD
ENDBRANCH  10  26
TORSDOF 4
ENDMDL
MODEL 2
REMARK VINA RESULT:      -6.7      3.722      5.163
REMARK  4 active torsions:
REMARK  status: ('A' for Active; 'I' for Inactive)
REMARK    1  A    between atoms: C_8  and  C_9 
REMARK    2  A    between atoms: O_20  and  C_9 
REMARK    3  A    between atoms: O_21  and  C_10 
REMARK    4  A    between atoms: O_22  and  C_11 
ROOT
HETATM    1  C   UNK N   1      26.426  21.067   5.643  0.00  0.00     0.045 A 
HETATM    2  C   UNK N   1      27.040  20.636   6.824  0.00  0.00     0.040 A 
HETATM    3  C   UNK N   1      27.536  19.300   4.414  0.00  0.00     0.055 A 
HETATM    4  C   UNK N   1      29.964  17.619   6.867  0.00  0.00     0.086 C 
HETATM    5  C   UNK N   1      26.667  20.394   4.442  0.00  0.00     0.117 A 
HETATM    6  C   UNK N   1      28.171  18.871   5.590  0.00  0.00     0.015 A 
HETATM    7  C   UNK N   1      27.902  19.536   6.806  0.00  0.00     0.079 A 
HETATM    8  C   UNK N   1      29.053  17.855   8.071  0.00  0.00     0.206 C 
HETATM    9  C   UNK N   1      28.482  16.399   5.220  0.00  0.00     0.152 A 
HETATM   10  C   UNK N   1      29.886  16.805   3.657  0.00  0.00     0.220 A 
HETATM   11  C   UNK N   1      29.154  17.713   5.561  0.00  0.00     0.131 A 
HETATM   12  F   UNK N   1      26.071  20.813   3.301  0.00  0.00    -0.206 F 
HETATM   13  N   UNK N   1      28.922  15.912   4.127  0.00  0.00    -0.304 N 
ATOM     14  HN  UNK N   1      28.629  15.041   3.685  1.00  0.00     0.171 HD
HETATM   15  N   UNK N   1      30.053  17.816   4.424  0.00  0.00    -0.335 N 
ATOM     16  HN  UNK N   1      30.715  18.575   4.262  1.00  0.00     0.164 HD
HETATM   17  O   UNK N   1      28.473  19.111   7.961  0.00  0.00    -0.337 OA
ENDROOT
BRANCH   9  18
HETATM   18  O   UNK N   1      27.536  15.789   5.959  0.00  0.00    -0.347 OA
HETATM   19  H   UNK N   1      26.822  15.184   5.994  0.00  0.00     0.219 HD
ENDBRANCH   9  18
BRANCH   8  20
HETATM   20  C   UNK N   1      29.814  17.716   9.359  0.00  0.00     0.139 C 
HETATM   21  N   UNK N   1      30.618  16.734   9.542  0.00  0.00    -0.382 N 
HETATM   22  H   UNK N   1      31.183  16.617  10.340  0.00  0.00     0.158 HD
ATOM     23  HN  UNK N   1      30.678  16.025   8.811  1.00  0.00     0.158 HD
BRANCH  20  24
HETATM   24  O   UNK N   1      29.669  18.644  10.325  0.00  0.00    -0.348 OA
HETATM   25  H   UNK N   1      29.544  18.378  11.214  0.00  0.00     0.219 HD
ENDBRANCH  20  24
ENDBRANCH   8  20
BRANCH  10  26
HETATM   26  O   UNK N   1      30.569  16.628   2.510  0.00  0.00    -0.332 OA
HETATM   27  H   UNK N   1      30.808  15.798   2.146  0.00  0.00     0.220 HD
ENDBRANCH  10  26
TORSDOF 4
ENDMDL
MODEL 3
REMARK VINA RESULT:      -6.7      2.705      4.885
REMARK  4 active torsions:
REMARK  status: ('A' for Active; 'I' for Inactive)
REMARK    1  A    between atoms: C_8  and  C_9 
REMARK    2  A    between atoms: O_20  and  C_9 
REMARK    3  A    between atoms: O_21  and  C_10 
REMARK    4  A    between atoms: O_22  and  C_11 
ROOT
HETATM    1  C   UNK N   1      28.480  17.481   8.231  0.00  0.00     0.045 A 
HETATM    2  C   UNK N   1      29.733  17.717   8.806  0.00  0.00     0.040 A 
HETATM    3  C   UNK N   1      29.540  16.951   6.120  0.00  0.00     0.055 A 
HETATM    4  C   UNK N   1      33.277  17.721   6.548  0.00  0.00     0.086 C 
HETATM    5  C   UNK N   1      28.384  17.090   6.893  0.00  0.00     0.117 A 
HETATM    6  C   UNK N   1      30.802  17.203   6.682  0.00  0.00     0.015 A 
HETATM    7  C   UNK N   1      30.894  17.570   8.042  0.00  0.00     0.079 A 
HETATM    8  C   UNK N   1      33.280  17.329   8.026  0.00  0.00     0.206 C 
HETATM    9  C   UNK N   1      32.335  15.681   5.387  0.00  0.00     0.152 A 
HETATM   10  C   UNK N   1      32.002  16.842   3.620  0.00  0.00     0.220 A 
HETATM   11  C   UNK N   1      32.060  17.100   5.837  0.00  0.00     0.131 A 
HETATM   12  F   UNK N   1      27.170  16.862   6.340  0.00  0.00    -0.206 F 
HETATM   13  N   UNK N   1      32.291  15.570   4.117  0.00  0.00    -0.304 N 
ATOM     14  HN  UNK N   1      32.439  14.720   3.573  1.00  0.00     0.171 HD
HETATM   15  N   UNK N   1      31.872  17.724   4.537  0.00  0.00    -0.335 N 
ATOM     16  HN  UNK N   1      31.669  18.711   4.381  1.00  0.00     0.164 HD
HETATM   17  O   UNK N   1      32.107  17.776   8.616  0.00  0.00    -0.337 OA
ENDROOT
BRANCH   9  18
HETATM   18  O   UNK N   1      32.601  14.640   6.199  0.00  0.00    -0.347 OA
HETATM   19  H   UNK N   1      32.400  14.176   6.988  0.00  0.00     0.219 HD
ENDBRANCH   9  18
BRANCH   8  20
HETATM   20  C   UNK N   1      34.489  17.881   8.727  0.00  0.00     0.139 C 
HETATM   21  N   UNK N   1      35.016  17.255   9.715  0.00  0.00    -0.382 N 
HETATM   22  H   UNK N   1      35.837  17.537  10.180  0.00  0.00     0.158 HD
ATOM     23  HN  UNK N   1      34.554  16.407  10.042  1.00  0.00     0.158 HD
BRANCH  20  24
HETATM   24  O   UNK N   1      35.041  19.034   8.301  0.00  0.00    -0.348 OA
HETATM   25  H   UNK N   1      35.098  19.767   8.881  0.00  0.00     0.219 HD
ENDBRANCH  20  24
ENDBRANCH   8  20
BRANCH  10  26
HETATM   26  O   UNK N   1      31.867  17.115   2.309  0.00  0.00    -0.332 OA
HETATM   27  H   UNK N   1      32.377  17.740   1.832  0.00  0.00     0.220 HD
ENDBRANCH  10  26
TORSDOF 4
ENDMDL
MODEL 4
REMARK VINA RESULT:      -6.5      2.394      4.614
REMARK  4 active torsions:
REMARK  status: ('A' for Active; 'I' for Inactive)
REMARK    1  A    between atoms: C_8  and  C_9 
REMARK    2  A    between atoms: O_20  and  C_9 
REMARK    3  A    between atoms: O_21  and  C_10 
REMARK    4  A    between atoms: O_22  and  C_11 
ROOT
HETATM    1  C   UNK N   1      33.384  17.272   5.329  0.00  0.00     0.045 A 
HETATM    2  C   UNK N   1      32.703  17.418   6.541  0.00  0.00     0.040 A 
HETATM    3  C   UNK N   1      31.274  17.140   4.150  0.00  0.00     0.055 A 
HETATM    4  C   UNK N   1      28.526  17.054   6.831  0.00  0.00     0.086 C 
HETATM    5  C   UNK N   1      32.671  17.141   4.135  0.00  0.00     0.117 A 
HETATM    6  C   UNK N   1      30.579  17.268   5.364  0.00  0.00     0.015 A 
HETATM    7  C   UNK N   1      31.305  17.427   6.564  0.00  0.00     0.079 A 
HETATM    8  C   UNK N   1      29.312  17.946   7.792  0.00  0.00     0.206 C 
HETATM    9  C   UNK N   1      28.434  18.405   4.695  0.00  0.00     0.152 A 
HETATM   10  C   UNK N   1      27.838  16.656   3.615  0.00  0.00     0.220 A 
HETATM   11  C   UNK N   1      29.061  17.219   5.397  0.00  0.00     0.131 A 
HETATM   12  F   UNK N   1      33.334  17.001   2.962  0.00  0.00    -0.206 F 
HETATM   13  N   UNK N   1      27.746  18.047   3.683  0.00  0.00    -0.304 N 
ATOM     14  HN  UNK N   1      27.230  18.657   3.049  1.00  0.00     0.171 HD
HETATM   15  N   UNK N   1      28.552  16.153   4.550  0.00  0.00    -0.335 N 
ATOM     16  HN  UNK N   1      28.735  15.157   4.681  1.00  0.00     0.164 HD
HETATM   17  O   UNK N   1      30.653  17.595   7.742  0.00  0.00    -0.337 OA
ENDROOT
BRANCH   9  18
HETATM   18  O   UNK N   1      28.562  19.693   5.069  0.00  0.00    -0.347 OA
HETATM   19  H   UNK N   1      28.188  20.437   5.498  0.00  0.00     0.219 HD
ENDBRANCH   9  18
BRANCH   8  20
HETATM   20  C   UNK N   1      28.771  17.840   9.190  0.00  0.00     0.139 C 
HETATM   21  N   UNK N   1      29.553  17.606  10.180  0.00  0.00    -0.382 N 
HETATM   22  H   UNK N   1      29.268  17.578  11.122  0.00  0.00     0.158 HD
ATOM     23  HN  UNK N   1      30.538  17.437   9.978  1.00  0.00     0.158 HD
BRANCH  20  24
HETATM   24  O   UNK N   1      27.454  18.016   9.412  0.00  0.00    -0.348 OA
HETATM   25  H   UNK N   1      26.962  17.355   9.858  0.00  0.00     0.219 HD
ENDBRANCH  20  24
ENDBRANCH   8  20
BRANCH  10  26
HETATM   26  O   UNK N   1      27.242  15.916   2.662  0.00  0.00    -0.332 OA
HETATM   27  H   UNK N   1      26.754  16.258   1.938  0.00  0.00     0.220 HD
ENDBRANCH  10  26
TORSDOF 4
ENDMDL
MODEL 5
REMARK VINA RESULT:      -6.3      2.923      4.661
REMARK  4 active torsions:
REMARK  status: ('A' for Active; 'I' for Inactive)
REMARK    1  A    between atoms: C_8  and  C_9 
REMARK    2  A    between atoms: O_20  and  C_9 
REMARK    3  A    between atoms: O_21  and  C_10 
REMARK    4  A    between atoms: O_22  and  C_11 
ROOT
HETATM    1  C   UNK N   1      28.392  18.124   7.004  0.00  0.00     0.045 A 
HETATM    2  C   UNK N   1      29.188  17.750   5.917  0.00  0.00     0.040 A 
HETATM    3  C   UNK N   1      30.110  17.367   8.532  0.00  0.00     0.055 A 
HETATM    4  C   UNK N   1      32.807  15.667   6.392  0.00  0.00     0.086 C 
HETATM    5  C   UNK N   1      28.856  17.940   8.310  0.00  0.00     0.117 A 
HETATM    6  C   UNK N   1      30.910  16.970   7.449  0.00  0.00     0.015 A 
HETATM    7  C   UNK N   1      30.448  17.184   6.132  0.00  0.00     0.079 A 
HETATM    8  C   UNK N   1      32.582  16.604   5.206  0.00  0.00     0.206 C 
HETATM    9  C   UNK N   1      33.257  17.238   8.323  0.00  0.00     0.152 A 
HETATM   10  C   UNK N   1      32.931  15.634   9.702  0.00  0.00     0.220 A 
HETATM   11  C   UNK N   1      32.254  16.301   7.681  0.00  0.00     0.131 A 
HETATM   12  F   UNK N   1      28.083  18.305   9.360  0.00  0.00    -0.206 F 
HETATM   13  N   UNK N   1      33.618  16.827   9.475  0.00  0.00    -0.304 N 
ATOM     14  HN  UNK N   1      34.281  17.281  10.105  1.00  0.00     0.171 HD
HETATM   15  N   UNK N   1      32.168  15.300   8.731  0.00  0.00    -0.335 N 
ATOM     16  HN  UNK N   1      31.588  14.460   8.699  1.00  0.00     0.164 HD
HETATM   17  O   UNK N   1      31.223  16.847   5.070  0.00  0.00    -0.337 OA
ENDROOT
BRANCH   9  18
HETATM   18  O   UNK N   1      33.733  18.370   7.772  0.00  0.00    -0.347 OA
HETATM   19  H   UNK N   1      34.446  18.812   7.354  0.00  0.00     0.219 HD
ENDBRANCH   9  18
BRANCH   8  20
HETATM   20  C   UNK N   1      33.162  16.027   3.945  0.00  0.00     0.139 C 
HETATM   21  N   UNK N   1      32.776  16.443   2.795  0.00  0.00    -0.382 N 
HETATM   22  H   UNK N   1      33.155  16.144   1.937  0.00  0.00     0.158 HD
ATOM     23  HN  UNK N   1      32.025  17.133   2.767  1.00  0.00     0.158 HD
BRANCH  20  24
HETATM   24  O   UNK N   1      34.116  15.079   4.022  0.00  0.00    -0.348 OA
HETATM   25  H   UNK N   1      34.172  14.532   4.781  0.00  0.00     0.219 HD
ENDBRANCH  20  24
ENDBRANCH   8  20
BRANCH  10  26
HETATM   26  O   UNK N   1      33.051  14.908  10.829  0.00  0.00    -0.332 OA
HETATM   27  H   UNK N   1      33.833  14.830  11.341  0.00  0.00     0.220 HD
ENDBRANCH  10  26
TORSDOF 4
ENDMDL
MODEL 6
REMARK VINA RESULT:      -6.3      4.230      6.626
REMARK  4 active torsions:
REMARK  status: ('A' for Active; 'I' for Inactive)
REMARK    1  A    between atoms: C_8  and  C_9 
REMARK    2  A    between atoms: O_20  and  C_9 
REMARK    3  A    between atoms: O_21  and  C_10 
REMARK    4  A    between atoms: O_22  and  C_11 
ROOT
HETATM    1  C   UNK N   1      37.645  13.288   7.581  0.00  0.00     0.045 A 
HETATM    2  C   UNK N   1      37.628  13.199   8.976  0.00  0.00     0.040 A 
HETATM    3  C   UNK N   1      35.699  14.727   7.642  0.00  0.00     0.055 A 
HETATM    4  C   UNK N   1      34.522  14.822  11.296  0.00  0.00     0.086 C 
HETATM    5  C   UNK N   1      36.686  14.058   6.916  0.00  0.00     0.117 A 
HETATM    6  C   UNK N   1      35.661  14.630   9.042  0.00  0.00     0.015 A 
HETATM    7  C   UNK N   1      36.648  13.874   9.711  0.00  0.00     0.079 A 
HETATM    8  C   UNK N   1      35.941  14.696  11.849  0.00  0.00     0.206 C 
HETATM    9  C   UNK N   1      34.652  16.824   9.756  0.00  0.00     0.152 A 
HETATM   10  C   UNK N   1      32.788  16.261   8.867  0.00  0.00     0.220 A 
HETATM   11  C   UNK N   1      34.563  15.315   9.838  0.00  0.00     0.131 A 
HETATM   12  F   UNK N   1      36.706  14.142   5.565  0.00  0.00    -0.206 F 
HETATM   13  N   UNK N   1      33.624  17.329   9.195  0.00  0.00    -0.304 N 
ATOM     14  HN  UNK N   1      33.448  18.319   9.021  1.00  0.00     0.171 HD
HETATM   15  N   UNK N   1      33.265  15.125   9.211  0.00  0.00    -0.335 N 
ATOM     16  HN  UNK N   1      32.805  14.225   9.068  1.00  0.00     0.164 HD
HETATM   17  O   UNK N   1      36.656  13.802  11.066  0.00  0.00    -0.337 OA
ENDROOT
BRANCH   9  18
HETATM   18  O   UNK N   1      35.673  17.573  10.213  0.00  0.00    -0.347 OA
HETATM   19  H   UNK N   1      36.128  17.932  10.950  0.00  0.00     0.219 HD
ENDBRANCH   9  18
BRANCH   8  20
HETATM   20  C   UNK N   1      35.921  14.267  13.289  0.00  0.00     0.139 C 
HETATM   21  N   UNK N   1      36.816  14.681  14.109  0.00  0.00    -0.382 N 
HETATM   22  H   UNK N   1      36.827  14.479  15.073  0.00  0.00     0.158 HD
ATOM     23  HN  UNK N   1      37.569  15.261  13.738  1.00  0.00     0.158 HD
BRANCH  20  24
HETATM   24  O   UNK N   1      34.940  13.456  13.732  0.00  0.00    -0.348 OA
HETATM   25  H   UNK N   1      34.686  12.710  13.225  0.00  0.00     0.219 HD
ENDBRANCH  20  24
ENDBRANCH   8  20
BRANCH  10  26
HETATM   26  O   UNK N   1      31.602  16.407   8.247  0.00  0.00    -0.332 OA
HETATM   27  H   UNK N   1      30.986  15.718   8.091  0.00  0.00     0.220 HD
ENDBRANCH  10  26
TORSDOF 4
ENDMDL
MODEL 7
REMARK VINA RESULT:      -6.2      9.844     12.054
REMARK  4 active torsions:
REMARK  status: ('A' for Active; 'I' for Inactive)
REMARK    1  A    between atoms: C_8  and  C_9 
REMARK    2  A    between atoms: O_20  and  C_9 
REMARK    3  A    between atoms: O_21  and  C_10 
REMARK    4  A    between atoms: O_22  and  C_11 
ROOT
HETATM    1  C   UNK N   1      22.024  13.042   9.309  0.00  0.00     0.045 A 
HETATM    2  C   UNK N   1      22.559  13.776   8.246  0.00  0.00     0.040 A 
HETATM    3  C   UNK N   1      20.202  14.624   9.495  0.00  0.00     0.055 A 
HETATM    4  C   UNK N   1      20.987  17.490   7.064  0.00  0.00     0.086 C 
HETATM    5  C   UNK N   1      20.843  13.461   9.927  0.00  0.00     0.117 A 
HETATM    6  C   UNK N   1      20.739  15.379   8.441  0.00  0.00     0.015 A 
HETATM    7  C   UNK N   1      21.917  14.936   7.801  0.00  0.00     0.079 A 
HETATM    8  C   UNK N   1      21.680  16.568   6.061  0.00  0.00     0.206 C 
HETATM    9  C   UNK N   1      18.711  16.433   7.381  0.00  0.00     0.152 A 
HETATM   10  C   UNK N   1      18.405  17.619   9.136  0.00  0.00     0.220 A 
HETATM   11  C   UNK N   1      20.075  16.671   7.995  0.00  0.00     0.131 A 
HETATM   12  F   UNK N   1      20.329  12.747  10.957  0.00  0.00    -0.206 F 
HETATM   13  N   UNK N   1      17.784  16.985   8.059  0.00  0.00    -0.304 N 
ATOM     14  HN  UNK N   1      16.784  16.969   7.854  1.00  0.00     0.171 HD
HETATM   15  N   UNK N   1      19.677  17.477   9.138  0.00  0.00    -0.335 N 
ATOM     16  HN  UNK N   1      20.313  17.870   9.833  1.00  0.00     0.164 HD
HETATM   17  O   UNK N   1      22.429  15.627   6.752  0.00  0.00    -0.337 OA
ENDROOT
BRANCH   9  18
HETATM   18  O   UNK N   1      18.472  15.732   6.256  0.00  0.00    -0.347 OA
HETATM   19  H   UNK N   1      18.818  15.248   5.532  0.00  0.00     0.219 HD
ENDBRANCH   9  18
BRANCH   8  20
HETATM   20  C   UNK N   1      22.535  17.354   5.107  0.00  0.00     0.139 C 
HETATM   21  N   UNK N   1      22.388  17.229   3.839  0.00  0.00    -0.382 N 
HETATM   22  H   UNK N   1      22.879  17.754   3.166  0.00  0.00     0.158 HD
ATOM     23  HN  UNK N   1      21.716  16.539   3.504  1.00  0.00     0.158 HD
BRANCH  20  24
HETATM   24  O   UNK N   1      23.450  18.218   5.588  0.00  0.00    -0.348 OA
HETATM   25  H   UNK N   1      23.859  18.835   5.012  0.00  0.00     0.219 HD
ENDBRANCH  20  24
ENDBRANCH   8  20
BRANCH  10  26
HETATM   26  O   UNK N   1      17.738  18.306  10.082  0.00  0.00    -0.332 OA
HETATM   27  H   UNK N   1      16.827  18.524  10.051  0.00  0.00     0.220 HD
ENDBRANCH  10  26
TORSDOF 4
ENDMDL
MODEL 8
REMARK VINA RESULT:      -6.2     14.002     15.869
REMARK  4 active torsions:
REMARK  status: ('A' for Active; 'I' for Inactive)
REMARK    1  A    between atoms: C_8  and  C_9 
REMARK    2  A    between atoms: O_20  and  C_9 
REMARK    3  A    between atoms: O_21  and  C_10 
REMARK    4  A    between atoms: O_22  and  C_11 
ROOT
HETATM    1  C   UNK N   1      25.186  28.048  -4.649  0.00  0.00     0.045 A 
HETATM    2  C   UNK N   1      24.848  27.045  -5.562  0.00  0.00     0.040 A 
HETATM    3  C   UNK N   1      27.073  26.733  -3.894  0.00  0.00     0.055 A 
HETATM    4  C   UNK N   1      26.813  23.332  -5.656  0.00  0.00     0.086 C 
HETATM    5  C   UNK N   1      26.302  27.896  -3.821  0.00  0.00     0.117 A 
HETATM    6  C   UNK N   1      26.733  25.713  -4.795  0.00  0.00     0.015 A 
HETATM    7  C   UNK N   1      25.621  25.883  -5.647  0.00  0.00     0.079 A 
HETATM    8  C   UNK N   1      26.196  23.933  -6.918  0.00  0.00     0.206 C 
HETATM    9  C   UNK N   1      28.950  24.651  -5.344  0.00  0.00     0.152 A 
HETATM   10  C   UNK N   1      29.104  23.924  -3.336  0.00  0.00     0.220 A 
HETATM   11  C   UNK N   1      27.537  24.424  -4.847  0.00  0.00     0.131 A 
HETATM   12  F   UNK N   1      26.626  28.869  -2.938  0.00  0.00    -0.206 F 
HETATM   13  N   UNK N   1      29.816  24.358  -4.456  0.00  0.00    -0.304 N 
ATOM     14  HN  UNK N   1      30.830  24.425  -4.547  1.00  0.00     0.171 HD
HETATM   15  N   UNK N   1      27.836  23.938  -3.510  0.00  0.00    -0.335 N 
ATOM     16  HN  UNK N   1      27.143  23.652  -2.818  1.00  0.00     0.164 HD
HETATM   17  O   UNK N   1      25.299  24.927  -6.556  0.00  0.00    -0.337 OA
ENDROOT
BRANCH   9  18
HETATM   18  O   UNK N   1      29.285  25.101  -6.568  0.00  0.00    -0.347 OA
HETATM   19  H   UNK N   1      29.544  24.899  -7.446  0.00  0.00     0.219 HD
ENDBRANCH   9  18
BRANCH   8  20
HETATM   20  C   UNK N   1      25.530  22.873  -7.749  0.00  0.00     0.139 C 
HETATM   21  N   UNK N   1      25.963  21.666  -7.743  0.00  0.00    -0.382 N 
HETATM   22  H   UNK N   1      25.538  20.918  -8.223  0.00  0.00     0.158 HD
ATOM     23  HN  UNK N   1      26.805  21.466  -7.203  1.00  0.00     0.158 HD
BRANCH  20  24
HETATM   24  O   UNK N   1      24.451  23.188  -8.493  0.00  0.00    -0.348 OA
HETATM   25  H   UNK N   1      24.542  23.322  -9.416  0.00  0.00     0.219 HD
ENDBRANCH  20  24
ENDBRANCH   8  20
BRANCH  10  26
HETATM   26  O   UNK N   1      29.687  23.536  -2.187  0.00  0.00    -0.332 OA
HETATM   27  H   UNK N   1      30.531  23.812  -1.889  0.00  0.00     0.220 HD
ENDBRANCH  10  26
TORSDOF 4
ENDMDL
MODEL 9
REMARK VINA RESULT:      -6.2      9.300     11.620
REMARK  4 active torsions:
REMARK  status: ('A' for Active; 'I' for Inactive)
REMARK    1  A    between atoms: C_8  and  C_9 
REMARK    2  A    between atoms: O_20  and  C_9 
REMARK    3  A    between atoms: O_21  and  C_10 
REMARK    4  A    between atoms: O_22  and  C_11 
ROOT
HETATM    1  C   UNK N   1      35.092  12.773  18.337  0.00  0.00     0.045 A 
HETATM    2  C   UNK N   1      34.999  13.545  17.175  0.00  0.00     0.040 A 
HETATM    3  C   UNK N   1      35.825  10.874  17.026  0.00  0.00     0.055 A 
HETATM    4  C   UNK N   1      35.525  11.909  13.340  0.00  0.00     0.086 C 
HETATM    5  C   UNK N   1      35.513  11.442  18.263  0.00  0.00     0.117 A 
HETATM    6  C   UNK N   1      35.717  11.635  15.851  0.00  0.00     0.015 A 
HETATM    7  C   UNK N   1      35.319  12.987  15.934  0.00  0.00     0.079 A 
HETATM    8  C   UNK N   1      35.863  13.370  13.631  0.00  0.00     0.206 C 
HETATM    9  C   UNK N   1      37.466  10.631  14.341  0.00  0.00     0.152 A 
HETATM   10  C   UNK N   1      36.332   8.820  14.225  0.00  0.00     0.220 A 
HETATM   11  C   UNK N   1      36.008  11.013  14.495  0.00  0.00     0.131 A 
HETATM   12  F   UNK N   1      35.602  10.698  19.391  0.00  0.00    -0.206 F 
HETATM   13  N   UNK N   1      37.612   9.374  14.191  0.00  0.00    -0.304 N 
ATOM     14  HN  UNK N   1      38.493   8.872  14.069  1.00  0.00     0.171 HD
HETATM   15  N   UNK N   1      35.410   9.692  14.385  0.00  0.00    -0.335 N 
ATOM     16  HN  UNK N   1      34.410   9.492  14.428  1.00  0.00     0.164 HD
HETATM   17  O   UNK N   1      35.250  13.752  14.815  0.00  0.00    -0.337 OA
ENDROOT
BRANCH   9  18
HETATM   18  O   UNK N   1      38.504  11.490  14.351  0.00  0.00    -0.347 OA
HETATM   19  H   UNK N   1      38.996  12.146  13.899  0.00  0.00     0.219 HD
ENDBRANCH   9  18
BRANCH   8  20
HETATM   20  C   UNK N   1      35.447  14.257  12.491  0.00  0.00     0.139 C 
HETATM   21  N   UNK N   1      36.244  15.151  12.031  0.00  0.00    -0.382 N 
HETATM   22  H   UNK N   1      36.050  15.725  11.254  0.00  0.00     0.158 HD
ATOM     23  HN  UNK N   1      37.139  15.278  12.502  1.00  0.00     0.158 HD
BRANCH  20  24
HETATM   24  O   UNK N   1      34.234  14.096  11.928  0.00  0.00    -0.348 OA
HETATM   25  H   UNK N   1      33.935  13.239  11.696  0.00  0.00     0.219 HD
ENDBRANCH  20  24
ENDBRANCH   8  20
BRANCH  10  26
HETATM   26  O   UNK N   1      36.088   7.501  14.107  0.00  0.00    -0.332 OA
HETATM   27  H   UNK N   1      36.315   6.974  13.366  0.00  0.00     0.220 HD
ENDBRANCH  10  26
TORSDOF 4
ENDMDL
