MODEL 1
REMARK VINA RESULT:      -5.3      0.000      0.000
REMARK  3 active torsions:
REMARK  status: ('A' for Active; 'I' for Inactive)
REMARK    1  A    between atoms: O_1  and  C_2 
REMARK    2  A    between atoms: C_2  and  C_4 
REMARK    3  A    between atoms: C_4  and  C_6 
ROOT
HETATM    1  C   UNK N   1      35.413  12.709  16.646  0.00  0.00     0.021 A 
HETATM    2  C   UNK N   1      35.709  11.361  16.907  0.00  0.00     0.015 A 
HETATM    3  C   UNK N   1      35.718  10.879  18.221  0.00  0.00     0.001 A 
HETATM    4  C   UNK N   1      35.431  11.740  19.284  0.00  0.00     0.000 A 
HETATM    5  C   UNK N   1      35.135  13.080  19.036  0.00  0.00     0.001 A 
HETATM    6  C   UNK N   1      35.127  13.559  17.726  0.00  0.00     0.015 A 
ENDROOT
BRANCH   1   7
HETATM    7  C   UNK N   1      35.405  13.218  15.246  0.00  0.00     0.254 C 
HETATM    8  O   UNK N   1      34.480  12.917  14.506  0.00  0.00    -0.280 OA
BRANCH   7   9
HETATM    9  C   UNK N   1      36.492  14.085  14.710  0.00  0.00     0.218 C 
HETATM   10  O   UNK N   1      36.367  14.668  13.647  0.00  0.00    -0.644 OA
BRANCH   9  11
HETATM   11  O   UNK N   1      37.634  14.232  15.409  0.00  0.00    -0.770 OA
HETATM   12  H   UNK N   1      38.373  14.651  15.015  0.00  0.00     0.168 HD
ENDBRANCH   9  11
ENDBRANCH   7   9
ENDBRANCH   1   7
TORSDOF 3
ENDMDL
MODEL 2
REMARK VINA RESULT:      -5.3      9.655     10.822
REMARK  3 active torsions:
REMARK  status: ('A' for Active; 'I' for Inactive)
REMARK    1  A    between atoms: O_1  and  C_2 
REMARK    2  A    between atoms: C_2  and  C_4 
REMARK    3  A    between atoms: C_4  and  C_6 
ROOT
HETATM    1  C   UNK N   1      32.476  17.671   7.501  0.00  0.00     0.021 A 
HETATM    2  C   UNK N   1      31.810  18.222   8.608  0.00  0.00     0.015 A 
HETATM    3  C   UNK N   1      30.424  18.077   8.744  0.00  0.00     0.001 A 
HETATM    4  C   UNK N   1      29.694  17.383   7.775  0.00  0.00     0.000 A 
HETATM    5  C   UNK N   1      30.346  16.832   6.672  0.00  0.00     0.001 A 
HETATM    6  C   UNK N   1      31.727  16.977   6.538  0.00  0.00     0.015 A 
ENDROOT
BRANCH   1   7
HETATM    7  C   UNK N   1      33.951  17.827   7.360  0.00  0.00     0.254 C 
HETATM    8  O   UNK N   1      34.477  17.591   6.283  0.00  0.00    -0.280 OA
BRANCH   7   9
HETATM    9  C   UNK N   1      34.815  18.262   8.494  0.00  0.00     0.218 C 
HETATM   10  O   UNK N   1      35.314  19.374   8.515  0.00  0.00    -0.644 OA
BRANCH   9  11
HETATM   11  O   UNK N   1      35.051  17.417   9.516  0.00  0.00    -0.770 OA
HETATM   12  H   UNK N   1      34.502  17.434  10.274  0.00  0.00     0.168 HD
ENDBRANCH   9  11
ENDBRANCH   7   9
ENDBRANCH   1   7
TORSDOF 3
ENDMDL
MODEL 3
REMARK VINA RESULT:      -5.2      8.410     10.831
REMARK  3 active torsions:
REMARK  status: ('A' for Active; 'I' for Inactive)
REMARK    1  A    between atoms: O_1  and  C_2 
REMARK    2  A    between atoms: C_2  and  C_4 
REMARK    3  A    between atoms: C_4  and  C_6 
ROOT
HETATM    1  C   UNK N   1      33.314  17.699   7.424  0.00  0.00     0.021 A 
HETATM    2  C   UNK N   1      32.002  17.553   7.906  0.00  0.00     0.015 A 
HETATM    3  C   UNK N   1      30.954  17.265   7.025  0.00  0.00     0.001 A 
HETATM    4  C   UNK N   1      31.207  17.119   5.658  0.00  0.00     0.000 A 
HETATM    5  C   UNK N   1      32.506  17.261   5.170  0.00  0.00     0.001 A 
HETATM    6  C   UNK N   1      33.550  17.549   6.049  0.00  0.00     0.015 A 
ENDROOT
BRANCH   1   7
HETATM    7  C   UNK N   1      34.428  18.006   8.366  0.00  0.00     0.254 C 
HETATM    8  O   UNK N   1      34.965  19.102   8.317  0.00  0.00    -0.280 OA
BRANCH   7   9
HETATM    9  C   UNK N   1      34.913  17.018   9.370  0.00  0.00     0.218 C 
HETATM   10  O   UNK N   1      34.725  15.823   9.221  0.00  0.00    -0.644 OA
BRANCH   9  11
HETATM   11  O   UNK N   1      35.573  17.448  10.463  0.00  0.00    -0.770 OA
HETATM   12  H   UNK N   1      35.832  18.345  10.531  0.00  0.00     0.168 HD
ENDBRANCH   9  11
ENDBRANCH   7   9
ENDBRANCH   1   7
TORSDOF 3
ENDMDL
MODEL 4
REMARK VINA RESULT:      -5.1     14.248     15.411
REMARK  3 active torsions:
REMARK  status: ('A' for Active; 'I' for Inactive)
REMARK    1  A    between atoms: O_1  and  C_2 
REMARK    2  A    between atoms: C_2  and  C_4 
REMARK    3  A    between atoms: C_4  and  C_6 
ROOT
HETATM    1  C   UNK N   1      22.283  12.877   9.816  0.00  0.00     0.021 A 
HETATM    2  C   UNK N   1      22.029  12.333  11.086  0.00  0.00     0.015 A 
HETATM    3  C   UNK N   1      23.087  11.919  11.903  0.00  0.00     0.001 A 
HETATM    4  C   UNK N   1      24.406  12.046  11.458  0.00  0.00     0.000 A 
HETATM    5  C   UNK N   1      24.669  12.585  10.199  0.00  0.00     0.001 A 
HETATM    6  C   UNK N   1      23.613  12.997   9.385  0.00  0.00     0.015 A 
ENDROOT
BRANCH   1   7
HETATM    7  C   UNK N   1      21.153  13.317   8.949  0.00  0.00     0.254 C 
HETATM    8  O   UNK N   1      20.893  12.681   7.939  0.00  0.00    -0.280 OA
BRANCH   7   9
HETATM    9  C   UNK N   1      20.323  14.511   9.273  0.00  0.00     0.218 C 
HETATM   10  O   UNK N   1      19.219  14.394   9.776  0.00  0.00    -0.644 OA
BRANCH   9  11
HETATM   11  O   UNK N   1      20.796  15.744   9.007  0.00  0.00    -0.770 OA
HETATM   12  H   UNK N   1      21.635  15.847   8.605  0.00  0.00     0.168 HD
ENDBRANCH   9  11
ENDBRANCH   7   9
ENDBRANCH   1   7
TORSDOF 3
ENDMDL
MODEL 5
REMARK VINA RESULT:      -5.0      9.600     10.859
REMARK  3 active torsions:
REMARK  status: ('A' for Active; 'I' for Inactive)
REMARK    1  A    between atoms: O_1  and  C_2 
REMARK    2  A    between atoms: C_2  and  C_4 
REMARK    3  A    between atoms: C_4  and  C_6 
ROOT
HETATM    1  C   UNK N   1      31.722  17.580   8.126  0.00  0.00     0.021 A 
HETATM    2  C   UNK N   1      31.146  16.964   7.002  0.00  0.00     0.015 A 
HETATM    3  C   UNK N   1      29.785  17.134   6.722  0.00  0.00     0.001 A 
HETATM    4  C   UNK N   1      28.990  17.919   7.561  0.00  0.00     0.000 A 
HETATM    5  C   UNK N   1      29.552  18.535   8.679  0.00  0.00     0.001 A 
HETATM    6  C   UNK N   1      30.909  18.365   8.957  0.00  0.00     0.015 A 
ENDROOT
BRANCH   1   7
HETATM    7  C   UNK N   1      33.171  17.397   8.421  0.00  0.00     0.254 C 
HETATM    8  O   UNK N   1      33.510  16.587   9.270  0.00  0.00    -0.280 OA
BRANCH   7   9
HETATM    9  C   UNK N   1      34.229  18.172   7.713  0.00  0.00     0.218 C 
HETATM   10  O   UNK N   1      34.462  17.986   6.531  0.00  0.00    -0.644 OA
BRANCH   9  11
HETATM   11  O   UNK N   1      34.943  19.095   8.386  0.00  0.00    -0.770 OA
HETATM   12  H   UNK N   1      34.622  19.971   8.463  0.00  0.00     0.168 HD
ENDBRANCH   9  11
ENDBRANCH   7   9
ENDBRANCH   1   7
TORSDOF 3
ENDMDL
MODEL 6
REMARK VINA RESULT:      -5.0     18.912     20.375
REMARK  3 active torsions:
REMARK  status: ('A' for Active; 'I' for Inactive)
REMARK    1  A    between atoms: O_1  and  C_2 
REMARK    2  A    between atoms: C_2  and  C_4 
REMARK    3  A    between atoms: C_4  and  C_6 
ROOT
HETATM    1  C   UNK N   1      22.768  19.936   3.139  0.00  0.00     0.021 A 
HETATM    2  C   UNK N   1      22.887  18.777   3.924  0.00  0.00     0.015 A 
HETATM    3  C   UNK N   1      24.139  18.370   4.399  0.00  0.00     0.001 A 
HETATM    4  C   UNK N   1      25.280  19.116   4.095  0.00  0.00     0.000 A 
HETATM    5  C   UNK N   1      25.173  20.269   3.316  0.00  0.00     0.001 A 
HETATM    6  C   UNK N   1      23.925  20.673   2.843  0.00  0.00     0.015 A 
ENDROOT
BRANCH   1   7
HETATM    7  C   UNK N   1      21.433  20.366   2.635  0.00  0.00     0.254 C 
HETATM    8  O   UNK N   1      20.668  20.946   3.391  0.00  0.00    -0.280 OA
BRANCH   7   9
HETATM    9  C   UNK N   1      20.995  20.114   1.234  0.00  0.00     0.218 C 
HETATM   10  O   UNK N   1      21.268  20.895   0.338  0.00  0.00    -0.644 OA
BRANCH   9  11
HETATM   11  O   UNK N   1      20.286  19.006   0.945  0.00  0.00    -0.770 OA
HETATM   12  H   UNK N   1      19.692  18.652   1.578  0.00  0.00     0.168 HD
ENDBRANCH   9  11
ENDBRANCH   7   9
ENDBRANCH   1   7
TORSDOF 3
ENDMDL
MODEL 7
REMARK VINA RESULT:      -4.8     12.508     14.316
REMARK  3 active torsions:
REMARK  status: ('A' for Active; 'I' for Inactive)
REMARK    1  A    between atoms: O_1  and  C_2 
REMARK    2  A    between atoms: C_2  and  C_4 
REMARK    3  A    between atoms: C_4  and  C_6 
ROOT
HETATM    1  C   UNK N   1      28.158  19.027   6.457  0.00  0.00     0.021 A 
HETATM    2  C   UNK N   1      28.085  18.595   5.122  0.00  0.00     0.015 A 
HETATM    3  C   UNK N   1      27.438  19.379   4.160  0.00  0.00     0.001 A 
HETATM    4  C   UNK N   1      26.862  20.599   4.523  0.00  0.00     0.000 A 
HETATM    5  C   UNK N   1      26.929  21.037   5.845  0.00  0.00     0.001 A 
HETATM    6  C   UNK N   1      27.574  20.254   6.804  0.00  0.00     0.015 A 
ENDROOT
BRANCH   1   7
HETATM    7  C   UNK N   1      28.847  18.189   7.479  0.00  0.00     0.254 C 
HETATM    8  O   UNK N   1      29.649  17.342   7.115  0.00  0.00    -0.280 OA
BRANCH   7   9
HETATM    9  C   UNK N   1      28.592  18.347   8.938  0.00  0.00     0.218 C 
HETATM   10  O   UNK N   1      29.454  18.774   9.686  0.00  0.00    -0.644 OA
BRANCH   9  11
HETATM   11  O   UNK N   1      27.389  18.014   9.445  0.00  0.00    -0.770 OA
HETATM   12  H   UNK N   1      27.326  17.670  10.314  0.00  0.00     0.168 HD
ENDBRANCH   9  11
ENDBRANCH   7   9
ENDBRANCH   1   7
TORSDOF 3
ENDMDL
MODEL 8
REMARK VINA RESULT:      -4.7     14.591     15.712
REMARK  3 active torsions:
REMARK  status: ('A' for Active; 'I' for Inactive)
REMARK    1  A    between atoms: O_1  and  C_2 
REMARK    2  A    between atoms: C_2  and  C_4 
REMARK    3  A    between atoms: C_4  and  C_6 
ROOT
HETATM    1  C   UNK N   1      21.775  13.197  10.022  0.00  0.00     0.021 A 
HETATM    2  C   UNK N   1      23.043  13.333   9.433  0.00  0.00     0.015 A 
HETATM    3  C   UNK N   1      24.163  12.732  10.019  0.00  0.00     0.001 A 
HETATM    4  C   UNK N   1      24.025  11.991  11.196  0.00  0.00     0.000 A 
HETATM    5  C   UNK N   1      22.770  11.850  11.788  0.00  0.00     0.001 A 
HETATM    6  C   UNK N   1      21.654  12.449  11.203  0.00  0.00     0.015 A 
ENDROOT
BRANCH   1   7
HETATM    7  C   UNK N   1      20.585  13.838   9.395  0.00  0.00     0.254 C 
HETATM    8  O   UNK N   1      19.541  13.908  10.026  0.00  0.00    -0.280 OA
BRANCH   7   9
HETATM    9  C   UNK N   1      20.622  14.402   8.016  0.00  0.00     0.218 C 
HETATM   10  O   UNK N   1      20.266  13.741   7.055  0.00  0.00    -0.644 OA
BRANCH   9  11
HETATM   11  O   UNK N   1      21.055  15.662   7.821  0.00  0.00    -0.770 OA
HETATM   12  H   UNK N   1      21.707  15.839   7.173  0.00  0.00     0.168 HD
ENDBRANCH   9  11
ENDBRANCH   7   9
ENDBRANCH   1   7
TORSDOF 3
ENDMDL
MODEL 9
REMARK VINA RESULT:      -4.7     24.218     25.891
REMARK  3 active torsions:
REMARK  status: ('A' for Active; 'I' for Inactive)
REMARK    1  A    between atoms: O_1  and  C_2 
REMARK    2  A    between atoms: C_2  and  C_4 
REMARK    3  A    between atoms: C_4  and  C_6 
ROOT
HETATM    1  C   UNK N   1      26.544  25.515  -4.003  0.00  0.00     0.021 A 
HETATM    2  C   UNK N   1      25.885  25.300  -5.225  0.00  0.00     0.015 A 
HETATM    3  C   UNK N   1      25.106  26.313  -5.796  0.00  0.00     0.001 A 
HETATM    4  C   UNK N   1      24.980  27.547  -5.152  0.00  0.00     0.000 A 
HETATM    5  C   UNK N   1      25.630  27.770  -3.939  0.00  0.00     0.001 A 
HETATM    6  C   UNK N   1      26.406  26.760  -3.370  0.00  0.00     0.015 A 
ENDROOT
BRANCH   1   7
HETATM    7  C   UNK N   1      27.372  24.434  -3.397  0.00  0.00     0.254 C 
HETATM    8  O   UNK N   1      26.919  23.784  -2.467  0.00  0.00    -0.280 OA
BRANCH   7   9
HETATM    9  C   UNK N   1      28.741  24.114  -3.889  0.00  0.00     0.218 C 
HETATM   10  O   UNK N   1      29.721  24.686  -3.442  0.00  0.00    -0.644 OA
BRANCH   9  11
HETATM   11  O   UNK N   1      28.906  23.177  -4.843  0.00  0.00    -0.770 OA
HETATM   12  H   UNK N   1      29.720  22.719  -4.914  0.00  0.00     0.168 HD
ENDBRANCH   9  11
ENDBRANCH   7   9
ENDBRANCH   1   7
TORSDOF 3
ENDMDL
