MODEL 1
REMARK VINA RESULT:      -5.4      0.000      0.000
REMARK  0 active torsions:
REMARK  status: ('A' for Active; 'I' for Inactive)
ROOT
HETATM    1  O   UNK N   1      20.086  14.340   8.056  0.00  0.00    -0.264 OA
HETATM    2  C   UNK N   1      20.975  13.861   8.739  0.00  0.00     0.297 A 
HETATM    3  N   UNK N   1      22.284  13.885   8.395  0.00  0.00    -0.319 N 
HETATM    4  C   UNK N   1      22.991  13.236   9.435  0.00  0.00     0.049 A 
HETATM    5  C   UNK N   1      24.364  13.021   9.517  0.00  0.00     0.030 A 
HETATM    6  C   UNK N   1      24.856  12.347  10.652  0.00  0.00     0.002 A 
HETATM    7  C   UNK N   1      23.974  11.908  11.667  0.00  0.00     0.001 A 
HETATM    8  C   UNK N   1      22.593  12.137  11.559  0.00  0.00     0.018 A 
HETATM    9  C   UNK N   1      22.137  12.804  10.429  0.00  0.00     0.046 A 
HETATM   10  C   UNK N   1      20.804  13.188  10.023  0.00  0.00     0.251 A 
HETATM   11  O   UNK N   1      19.763  12.989  10.630  0.00  0.00    -0.281 OA
HETATM   12  H   UNK N   1      22.671  14.278   7.579  0.00  0.00     0.169 HD
ENDROOT
TORSDOF 0
ENDMDL
MODEL 2
REMARK VINA RESULT:      -5.2     11.472     12.536
REMARK  0 active torsions:
REMARK  status: ('A' for Active; 'I' for Inactive)
ROOT
HETATM    1  O   UNK N   1      35.121  19.261   8.464  0.00  0.00    -0.264 OA
HETATM    2  C   UNK N   1      34.579  18.174   8.377  0.00  0.00     0.297 A 
HETATM    3  N   UNK N   1      34.327  17.371   9.438  0.00  0.00    -0.319 N 
HETATM    4  C   UNK N   1      33.694  16.211   8.931  0.00  0.00     0.049 A 
HETATM    5  C   UNK N   1      33.250  15.106   9.653  0.00  0.00     0.030 A 
HETATM    6  C   UNK N   1      32.642  14.056   8.938  0.00  0.00     0.002 A 
HETATM    7  C   UNK N   1      32.494  14.133   7.533  0.00  0.00     0.001 A 
HETATM    8  C   UNK N   1      32.950  15.259   6.830  0.00  0.00     0.018 A 
HETATM    9  C   UNK N   1      33.545  16.279   7.561  0.00  0.00     0.046 A 
HETATM   10  C   UNK N   1      34.108  17.544   7.147  0.00  0.00     0.251 A 
HETATM   11  O   UNK N   1      34.173  17.985   6.010  0.00  0.00    -0.281 OA
HETATM   12  H   UNK N   1      34.543  17.557  10.381  0.00  0.00     0.169 HD
ENDROOT
TORSDOF 0
ENDMDL
MODEL 3
REMARK VINA RESULT:      -5.2     11.440     12.830
REMARK  0 active torsions:
REMARK  status: ('A' for Active; 'I' for Inactive)
ROOT
HETATM    1  O   UNK N   1      34.676  14.437  11.957  0.00  0.00    -0.264 OA
HETATM    2  C   UNK N   1      34.350  15.142  11.018  0.00  0.00     0.297 A 
HETATM    3  N   UNK N   1      33.162  15.039  10.376  0.00  0.00    -0.319 N 
HETATM    4  C   UNK N   1      33.164  16.020   9.356  0.00  0.00     0.049 A 
HETATM    5  C   UNK N   1      32.151  16.288   8.439  0.00  0.00     0.030 A 
HETATM    6  C   UNK N   1      32.368  17.318   7.503  0.00  0.00     0.002 A 
HETATM    7  C   UNK N   1      33.579  18.049   7.505  0.00  0.00     0.001 A 
HETATM    8  C   UNK N   1      34.585  17.759   8.442  0.00  0.00     0.018 A 
HETATM    9  C   UNK N   1      34.343  16.738   9.352  0.00  0.00     0.046 A 
HETATM   10  C   UNK N   1      35.156  16.203  10.421  0.00  0.00     0.251 A 
HETATM   11  O   UNK N   1      36.274  16.566  10.748  0.00  0.00    -0.281 OA
HETATM   12  H   UNK N   1      32.437  14.405  10.579  0.00  0.00     0.169 HD
ENDROOT
TORSDOF 0
ENDMDL
MODEL 4
REMARK VINA RESULT:      -5.1     17.817     18.856
REMARK  0 active torsions:
REMARK  status: ('A' for Active; 'I' for Inactive)
ROOT
HETATM    1  O   UNK N   1      30.456  23.186  -1.476  0.00  0.00    -0.264 OA
HETATM    2  C   UNK N   1      30.603  22.573  -2.518  0.00  0.00     0.297 A 
HETATM    3  N   UNK N   1      29.735  22.632  -3.556  0.00  0.00    -0.319 N 
HETATM    4  C   UNK N   1      30.252  21.790  -4.569  0.00  0.00     0.049 A 
HETATM    5  C   UNK N   1      29.698  21.535  -5.821  0.00  0.00     0.030 A 
HETATM    6  C   UNK N   1      30.388  20.656  -6.678  0.00  0.00     0.002 A 
HETATM    7  C   UNK N   1      31.603  20.058  -6.269  0.00  0.00     0.001 A 
HETATM    8  C   UNK N   1      32.140  20.332  -5.000  0.00  0.00     0.018 A 
HETATM    9  C   UNK N   1      31.437  21.202  -4.177  0.00  0.00     0.046 A 
HETATM   10  C   UNK N   1      31.714  21.681  -2.842  0.00  0.00     0.251 A 
HETATM   11  O   UNK N   1      32.672  21.397  -2.140  0.00  0.00    -0.281 OA
HETATM   12  H   UNK N   1      28.904  23.159  -3.598  0.00  0.00     0.169 HD
ENDROOT
TORSDOF 0
ENDMDL
MODEL 5
REMARK VINA RESULT:      -4.9     17.912     18.883
REMARK  0 active torsions:
REMARK  status: ('A' for Active; 'I' for Inactive)
ROOT
HETATM    1  O   UNK N   1      32.567  21.357  -2.181  0.00  0.00    -0.264 OA
HETATM    2  C   UNK N   1      31.668  21.763  -2.895  0.00  0.00     0.297 A 
HETATM    3  N   UNK N   1      31.518  21.407  -4.193  0.00  0.00    -0.319 N 
HETATM    4  C   UNK N   1      30.369  22.082  -4.671  0.00  0.00     0.049 A 
HETATM    5  C   UNK N   1      29.825  22.022  -5.951  0.00  0.00     0.030 A 
HETATM    6  C   UNK N   1      28.668  22.782  -6.209  0.00  0.00     0.002 A 
HETATM    7  C   UNK N   1      28.087  23.577  -5.193  0.00  0.00     0.001 A 
HETATM    8  C   UNK N   1      28.656  23.619  -3.910  0.00  0.00     0.018 A 
HETATM    9  C   UNK N   1      29.797  22.859  -3.684  0.00  0.00     0.046 A 
HETATM   10  C   UNK N   1      30.607  22.687  -2.501  0.00  0.00     0.251 A 
HETATM   11  O   UNK N   1      30.437  23.206  -1.409  0.00  0.00    -0.281 OA
HETATM   12  H   UNK N   1      32.095  20.796  -4.706  0.00  0.00     0.169 HD
ENDROOT
TORSDOF 0
ENDMDL
MODEL 6
REMARK VINA RESULT:      -4.9     22.289     23.615
REMARK  0 active torsions:
REMARK  status: ('A' for Active; 'I' for Inactive)
ROOT
HETATM    1  O   UNK N   1      44.716  24.406   3.071  0.00  0.00    -0.264 OA
HETATM    2  C   UNK N   1      43.890  23.513   3.001  0.00  0.00     0.297 A 
HETATM    3  N   UNK N   1      42.687  23.645   2.394  0.00  0.00    -0.319 N 
HETATM    4  C   UNK N   1      42.026  22.401   2.525  0.00  0.00     0.049 A 
HETATM    5  C   UNK N   1      40.759  22.063   2.054  0.00  0.00     0.030 A 
HETATM    6  C   UNK N   1      40.295  20.756   2.299  0.00  0.00     0.002 A 
HETATM    7  C   UNK N   1      41.098  19.826   3.000  0.00  0.00     0.001 A 
HETATM    8  C   UNK N   1      42.372  20.192   3.464  0.00  0.00     0.018 A 
HETATM    9  C   UNK N   1      42.803  21.488   3.208  0.00  0.00     0.046 A 
HETATM   10  C   UNK N   1      44.036  22.164   3.543  0.00  0.00     0.251 A 
HETATM   11  O   UNK N   1      44.989  21.702   4.150  0.00  0.00    -0.281 OA
HETATM   12  H   UNK N   1      42.339  24.451   1.949  0.00  0.00     0.169 HD
ENDROOT
TORSDOF 0
ENDMDL
MODEL 7
REMARK VINA RESULT:      -4.9     13.518     14.556
REMARK  0 active torsions:
REMARK  status: ('A' for Active; 'I' for Inactive)
ROOT
HETATM    1  O   UNK N   1      37.557  15.023  15.805  0.00  0.00    -0.264 OA
HETATM    2  C   UNK N   1      36.822  14.152  15.374  0.00  0.00     0.297 A 
HETATM    3  N   UNK N   1      36.855  13.701  14.098  0.00  0.00    -0.319 N 
HETATM    4  C   UNK N   1      35.859  12.701  13.992  0.00  0.00     0.049 A 
HETATM    5  C   UNK N   1      35.527  11.955  12.864  0.00  0.00     0.030 A 
HETATM    6  C   UNK N   1      34.494  11.005  12.987  0.00  0.00     0.002 A 
HETATM    7  C   UNK N   1      33.824  10.825  14.219  0.00  0.00     0.001 A 
HETATM    8  C   UNK N   1      34.179  11.591  15.341  0.00  0.00     0.018 A 
HETATM    9  C   UNK N   1      35.201  12.520  15.191  0.00  0.00     0.046 A 
HETATM   10  C   UNK N   1      35.792  13.444  16.131  0.00  0.00     0.251 A 
HETATM   11  O   UNK N   1      35.490  13.597  17.304  0.00  0.00    -0.281 OA
HETATM   12  H   UNK N   1      37.456  14.009  13.381  0.00  0.00     0.169 HD
ENDROOT
TORSDOF 0
ENDMDL
MODEL 8
REMARK VINA RESULT:      -4.7     20.841     21.899
REMARK  0 active torsions:
REMARK  status: ('A' for Active; 'I' for Inactive)
ROOT
HETATM    1  O   UNK N   1      25.336  24.505  -7.455  0.00  0.00    -0.264 OA
HETATM    2  C   UNK N   1      25.645  25.521  -6.859  0.00  0.00     0.297 A 
HETATM    3  N   UNK N   1      25.095  25.900  -5.680  0.00  0.00    -0.319 N 
HETATM    4  C   UNK N   1      25.712  27.120  -5.316  0.00  0.00     0.049 A 
HETATM    5  C   UNK N   1      25.467  27.885  -4.179  0.00  0.00     0.030 A 
HETATM    6  C   UNK N   1      26.202  29.075  -4.016  0.00  0.00     0.002 A 
HETATM    7  C   UNK N   1      27.156  29.469  -4.983  0.00  0.00     0.001 A 
HETATM    8  C   UNK N   1      27.385  28.680  -6.121  0.00  0.00     0.018 A 
HETATM    9  C   UNK N   1      26.645  27.512  -6.255  0.00  0.00     0.046 A 
HETATM   10  C   UNK N   1      26.641  26.500  -7.287  0.00  0.00     0.251 A 
HETATM   11  O   UNK N   1      27.326  26.475  -8.298  0.00  0.00    -0.281 OA
HETATM   12  H   UNK N   1      24.401  25.419  -5.174  0.00  0.00     0.169 HD
ENDROOT
TORSDOF 0
ENDMDL
MODEL 9
REMARK VINA RESULT:      -4.7      8.747     10.033
REMARK  0 active torsions:
REMARK  status: ('A' for Active; 'I' for Inactive)
ROOT
HETATM    1  O   UNK N   1      28.174  17.652   9.734  0.00  0.00    -0.264 OA
HETATM    2  C   UNK N   1      29.176  17.611   9.043  0.00  0.00     0.297 A 
HETATM    3  N   UNK N   1      30.411  17.947   9.488  0.00  0.00    -0.319 N 
HETATM    4  C   UNK N   1      31.299  17.769   8.400  0.00  0.00     0.049 A 
HETATM    5  C   UNK N   1      32.673  17.990   8.386  0.00  0.00     0.030 A 
HETATM    6  C   UNK N   1      33.365  17.746   7.183  0.00  0.00     0.002 A 
HETATM    7  C   UNK N   1      32.675  17.291   6.035  0.00  0.00     0.001 A 
HETATM    8  C   UNK N   1      31.288  17.076   6.077  0.00  0.00     0.018 A 
HETATM    9  C   UNK N   1      30.632  17.325   7.276  0.00  0.00     0.046 A 
HETATM   10  C   UNK N   1      29.239  17.205   7.642  0.00  0.00     0.251 A 
HETATM   11  O   UNK N   1      28.318  16.841   6.928  0.00  0.00    -0.281 OA
HETATM   12  H   UNK N   1      30.646  18.255  10.393  0.00  0.00     0.169 HD
ENDROOT
TORSDOF 0
ENDMDL
