REMARK  15 active torsions:
REMARK  status: ('A' for Active; 'I' for Inactive)
REMARK    1  A    between atoms: C_2  and  C_4 
REMARK    2  A    between atoms: C_4  and  N_5 
REMARK    3  A    between atoms: C_4  and  C_22 
REMARK       I    between atoms: N_5  and  C_6 
REMARK    4  A    between atoms: C_6  and  C_8 
REMARK    5  A    between atoms: C_8  and  C_9 
REMARK    6  A    between atoms: C_8  and  N_11 
REMARK    7  A    between atoms: C_9  and  S_10 
REMARK       I    between atoms: N_11  and  C_12 
REMARK    8  A    between atoms: C_12  and  C_14 
REMARK    9  A    between atoms: C_14  and  C_15 
REMARK   10  A    between atoms: C_15  and  C_16 
REMARK   11  A    between atoms: C_16  and  C_17 
REMARK   12  A    between atoms: C_17  and  N_18 
REMARK   13  A    between atoms: C_17  and  C_19 
REMARK   14  A    between atoms: C_19  and  O_20 
REMARK   15  A    between atoms: C_22  and  O_23 
ROOT
HETATM    1  C   UNK N   1       5.467  -7.948   0.841  0.00  0.00     0.185 C 
ENDROOT
BRANCH   1   2
HETATM    2  C   UNK N   1       6.782  -7.525   0.265  0.00  0.00     0.242 C 
HETATM    3  N   UNK N   1       7.870  -7.496   1.077  0.00  0.00    -0.344 N 
HETATM    4  H   UNK N   1       7.745  -7.731   2.025  0.00  0.00     0.163 HD
HETATM    5  O   UNK N   1       6.875  -7.226  -0.916  0.00  0.00    -0.271 OA
BRANCH   3   6
HETATM    6  C   UNK N   1       9.207  -7.138   0.634  0.00  0.00     0.185 C 
BRANCH   6   7
HETATM    7  C   UNK N   1       9.717  -8.137  -0.422  0.00  0.00     0.010 C 
HETATM    8  C   UNK N   1      11.184  -7.909  -0.737  0.00  0.00     0.012 C 
HETATM    9  C   UNK N   1       9.567  -9.567   0.070  0.00  0.00     0.012 C 
ENDBRANCH   6   7
BRANCH   6  10
HETATM   10  C   UNK N   1       9.276  -5.692   0.179  0.00  0.00     0.163 C 
HETATM   11  O   UNK N   1      10.347  -5.206  -0.146  0.00  0.00    -0.648 OA
BRANCH  10  12
HETATM   12  O   UNK N   1       8.172  -4.918   0.167  0.00  0.00    -0.775 OA
HETATM   13  H   UNK N   1       8.254  -3.985   0.158  0.00  0.00     0.167 HD
ENDBRANCH  10  12
ENDBRANCH   6  10
ENDBRANCH   3   6
ENDBRANCH   1   2
BRANCH   1  14
HETATM   14  C   UNK N   1       4.886  -9.143   0.098  0.00  0.00     0.105 C 
BRANCH  14  15
HETATM   15  S   UNK N   1       3.855 -10.129   1.219  0.00  0.00    -0.180 SA
HETATM   16  H   UNK N   1       2.829  -9.829   2.060  0.00  0.00     0.101 HD
ENDBRANCH  14  15
ENDBRANCH   1  14
BRANCH   1  17
HETATM   17  N   UNK N   1       4.526  -6.847   0.952  0.00  0.00    -0.347 N 
HETATM   18  C   UNK N   1       4.015  -6.150  -0.096  0.00  0.00     0.218 C 
HETATM   19  O   UNK N   1       4.322  -6.424  -1.246  0.00  0.00    -0.274 OA
HETATM   20  H   UNK N   1       4.236  -6.587   1.856  0.00  0.00     0.163 HD
BRANCH  18  21
HETATM   21  C   UNK N   1       3.043  -5.043   0.156  0.00  0.00     0.103 C 
BRANCH  21  22
HETATM   22  C   UNK N   1       1.789  -5.548   0.859  0.00  0.00     0.012 C 
BRANCH  22  23
HETATM   23  C   UNK N   1       1.134  -6.660   0.052  0.00  0.00     0.036 C 
BRANCH  23  24
HETATM   24  C   UNK N   1      -0.374  -6.675   0.232  0.00  0.00     0.173 C 
BRANCH  24  25
HETATM   25  N   UNK N   1      -0.884  -7.942  -0.266  0.00  0.00    -0.418 N 
HETATM   26  H   UNK N   1      -1.833  -8.076  -0.616  0.00  0.00     0.150 HD
HETATM   27  H   UNK N   1      -0.256  -8.745  -0.266  0.00  0.00     0.150 HD
ENDBRANCH  24  25
BRANCH  24  28
HETATM   28  C   UNK N   1      -1.005  -5.526  -0.509  0.00  0.00     0.163 C 
HETATM   29  O   UNK N   1      -0.747  -4.377  -0.188  0.00  0.00    -0.648 OA
BRANCH  28  30
HETATM   30  O   UNK N   1      -1.862  -5.754  -1.524  0.00  0.00    -0.775 OA
HETATM   31  H   UNK N   1      -2.297  -5.318  -2.230  0.00  0.00     0.167 HD
ENDBRANCH  28  30
ENDBRANCH  24  28
ENDBRANCH  23  24
ENDBRANCH  22  23
ENDBRANCH  21  22
ENDBRANCH  18  21
ENDBRANCH   1  17
TORSDOF 15
