MODEL 1
REMARK VINA RESULT:      -7.4      0.000      0.000
REMARK  12 active torsions:
REMARK  status: ('A' for Active; 'I' for Inactive)
REMARK    1  A    between atoms: C_2  and  C_4 
REMARK    2  A    between atoms: C_5  and  C_31 
REMARK    3  A    between atoms: C_8  and  N_9 
REMARK       I    between atoms: N_9  and  C_10 
REMARK    4  A    between atoms: C_10  and  C_12 
REMARK    5  A    between atoms: C_14  and  N_15 
REMARK       I    between atoms: N_15  and  C_16 
REMARK    6  A    between atoms: C_16  and  C_18 
REMARK    7  A    between atoms: C_20  and  N_21 
REMARK    8  A    between atoms: N_21  and  C_22 
REMARK       I    between atoms: C_31  and  N_33 
REMARK    9  A    between atoms: N_33  and  C_34 
REMARK   10  A    between atoms: C_34  and  C_35 
REMARK   11  A    between atoms: C_35  and  C_36 
REMARK   12  A    between atoms: C_36  and  N_37 
ROOT
HETATM    1  N   UNK N   1      31.666  15.460   8.369  0.00  0.00    -0.302 N 
HETATM    2  C   UNK N   1      31.507  16.723   7.888  0.00  0.00     0.274 C 
HETATM    3  O   UNK N   1      32.168  17.654   8.343  0.00  0.00    -0.266 OA
HETATM    4  H   UNK N   1      30.924  14.813   8.343  0.00  0.00     0.171 HD
ENDROOT
BRANCH   2   5
HETATM    5  C   UNK N   1      30.619  16.966   6.774  0.00  0.00     0.105 A 
HETATM    6  C   UNK N   1      29.275  16.976   6.931  0.00  0.00     0.066 A 
HETATM    7  C   UNK N   1      28.767  17.369   5.718  0.00  0.00     0.053 A 
HETATM    8  C   UNK N   1      29.817  17.549   4.840  0.00  0.00     0.120 A 
HETATM    9  N   UNK N   1      30.950  17.263   5.504  0.00  0.00    -0.354 N 
HETATM   10  C   UNK N   1      32.290  17.374   4.946  0.00  0.00     0.156 C 
BRANCH   7  11
HETATM   11  N   UNK N   1      27.561  18.100   5.660  0.00  0.00    -0.320 N 
HETATM   12  C   UNK N   1      26.604  17.652   4.790  0.00  0.00     0.273 C 
HETATM   13  O   UNK N   1      26.731  16.571   4.229  0.00  0.00    -0.266 OA
HETATM   14  H   UNK N   1      27.416  18.897   6.218  0.00  0.00     0.169 HD
BRANCH  12  15
HETATM   15  C   UNK N   1      25.467  18.461   4.412  0.00  0.00     0.105 A 
HETATM   16  C   UNK N   1      24.181  18.046   4.671  0.00  0.00     0.066 A 
HETATM   17  C   UNK N   1      23.385  18.996   4.107  0.00  0.00     0.052 A 
HETATM   18  C   UNK N   1      24.187  19.973   3.535  0.00  0.00     0.120 A 
HETATM   19  N   UNK N   1      25.471  19.623   3.738  0.00  0.00    -0.354 N 
HETATM   20  C   UNK N   1      26.633  20.383   3.304  0.00  0.00     0.156 C 
BRANCH  17  21
HETATM   21  N   UNK N   1      21.979  18.899   4.063  0.00  0.00    -0.333 N 
HETATM   22  H   UNK N   1      21.535  18.163   4.543  0.00  0.00     0.168 HD
BRANCH  21  23
HETATM   23  C   UNK N   1      21.227  19.782   3.384  0.00  0.00     0.353 C 
HETATM   24  O   UNK N   1      20.378  20.428   3.972  0.00  0.00    -0.283 OA
ENDBRANCH  21  23
ENDBRANCH  17  21
ENDBRANCH  12  15
ENDBRANCH   7  11
ENDBRANCH   2   5
BRANCH   1  25
HETATM   25  C   UNK N   1      32.916  15.105   8.903  0.00  0.00     0.152 A 
HETATM   26  N   UNK N   1      33.609  15.739   9.880  0.00  0.00    -0.331 N 
HETATM   27  C   UNK N   1      34.849  15.141  10.076  0.00  0.00     0.116 A 
ATOM     28  HN  UNK N   1      33.266  16.546  10.402  1.00  0.00     0.168 HD
HETATM   29  C   UNK N   1      35.083  13.992   9.239  0.00  0.00     0.022 A 
HETATM   30  S   UNK N   1      33.739  13.816   8.356  0.00  0.00    -0.056 SA
BRANCH  27  31
HETATM   31  C   UNK N   1      35.846  15.715  11.032  0.00  0.00     0.269 C 
HETATM   32  O   UNK N   1      36.508  16.675  10.691  0.00  0.00    -0.266 OA
HETATM   33  N   UNK N   1      36.045  15.223  12.283  0.00  0.00    -0.356 N 
HETATM   34  H   UNK N   1      36.662  15.715  12.872  0.00  0.00     0.162 HD
BRANCH  33  35
HETATM   35  C   UNK N   1      35.422  14.039  12.815  0.00  0.00     0.125 C 
BRANCH  35  36
HETATM   36  C   UNK N   1      36.064  13.660  14.149  0.00  0.00     0.050 C 
BRANCH  36  37
HETATM   37  C   UNK N   1      35.122  12.942  15.128  0.00  0.00     0.273 C 
BRANCH  37  38
HETATM   38  N   UNK N   1      35.725  12.700  16.437  0.00  0.00     0.080 N 
HETATM   39  C   UNK N   1      35.497  11.299  16.747  0.00  0.00     0.309 C 
HETATM   40  C   UNK N   1      35.009  13.461  17.451  0.00  0.00     0.309 C 
ENDBRANCH  37  38
ENDBRANCH  36  37
ENDBRANCH  35  36
ENDBRANCH  33  35
ENDBRANCH  27  31
BRANCH  29  41
HETATM   41  C   UNK N   1      36.186  12.993   9.019  0.00  0.00     0.020 C 
HETATM   42  C   UNK N   1      37.442  13.692   8.519  0.00  0.00     0.015 C 
HETATM   43  C   UNK N   1      36.535  12.058  10.144  0.00  0.00     0.015 C 
ENDBRANCH  29  41
ENDBRANCH   1  25
TORSDOF 12
ENDMDL
MODEL 2
REMARK VINA RESULT:      -7.4      2.510     12.763
REMARK  12 active torsions:
REMARK  status: ('A' for Active; 'I' for Inactive)
REMARK    1  A    between atoms: C_2  and  C_4 
REMARK    2  A    between atoms: C_5  and  C_31 
REMARK    3  A    between atoms: C_8  and  N_9 
REMARK       I    between atoms: N_9  and  C_10 
REMARK    4  A    between atoms: C_10  and  C_12 
REMARK    5  A    between atoms: C_14  and  N_15 
REMARK       I    between atoms: N_15  and  C_16 
REMARK    6  A    between atoms: C_16  and  C_18 
REMARK    7  A    between atoms: C_20  and  N_21 
REMARK    8  A    between atoms: N_21  and  C_22 
REMARK       I    between atoms: C_31  and  N_33 
REMARK    9  A    between atoms: N_33  and  C_34 
REMARK   10  A    between atoms: C_34  and  C_35 
REMARK   11  A    between atoms: C_35  and  C_36 
REMARK   12  A    between atoms: C_36  and  N_37 
ROOT
HETATM    1  N   UNK N   1      32.700  16.762   9.039  0.00  0.00    -0.302 N 
HETATM    2  C   UNK N   1      33.039  15.494   9.397  0.00  0.00     0.274 C 
HETATM    3  O   UNK N   1      32.255  14.563   9.222  0.00  0.00    -0.266 OA
HETATM    4  H   UNK N   1      33.082  17.539   9.509  0.00  0.00     0.171 HD
ENDROOT
BRANCH   2   5
HETATM    5  C   UNK N   1      34.362  15.216   9.910  0.00  0.00     0.105 A 
HETATM    6  C   UNK N   1      34.668  15.405  11.215  0.00  0.00     0.066 A 
HETATM    7  C   UNK N   1      35.942  14.917  11.367  0.00  0.00     0.053 A 
HETATM    8  C   UNK N   1      36.393  14.479  10.138  0.00  0.00     0.120 A 
HETATM    9  N   UNK N   1      35.414  14.704   9.246  0.00  0.00    -0.354 N 
HETATM   10  C   UNK N   1      35.473  14.341   7.837  0.00  0.00     0.156 C 
BRANCH   7  11
HETATM   11  N   UNK N   1      36.339  14.349  12.596  0.00  0.00    -0.320 N 
HETATM   12  C   UNK N   1      35.691  13.213  12.994  0.00  0.00     0.273 C 
HETATM   13  O   UNK N   1      34.931  12.629  12.231  0.00  0.00    -0.266 OA
HETATM   14  H   UNK N   1      37.050  14.754  13.143  0.00  0.00     0.169 HD
BRANCH  12  15
HETATM   15  C   UNK N   1      35.781  12.707  14.346  0.00  0.00     0.105 A 
HETATM   16  C   UNK N   1      35.112  13.319  15.381  0.00  0.00     0.066 A 
HETATM   17  C   UNK N   1      35.496  12.639  16.498  0.00  0.00     0.052 A 
HETATM   18  C   UNK N   1      36.368  11.625  16.129  0.00  0.00     0.120 A 
HETATM   19  N   UNK N   1      36.528  11.684  14.794  0.00  0.00    -0.354 N 
HETATM   20  C   UNK N   1      37.357  10.789  14.002  0.00  0.00     0.156 C 
BRANCH  17  21
HETATM   21  N   UNK N   1      35.106  13.012  17.800  0.00  0.00    -0.333 N 
HETATM   22  H   UNK N   1      34.666  13.882  17.937  0.00  0.00     0.168 HD
BRANCH  21  23
HETATM   23  C   UNK N   1      35.321  12.216  18.861  0.00  0.00     0.353 C 
HETATM   24  O   UNK N   1      35.693  12.703  19.915  0.00  0.00    -0.283 OA
ENDBRANCH  21  23
ENDBRANCH  17  21
ENDBRANCH  12  15
ENDBRANCH   7  11
ENDBRANCH   2   5
BRANCH   1  25
HETATM   25  C   UNK N   1      31.792  16.933   7.982  0.00  0.00     0.152 A 
HETATM   26  N   UNK N   1      30.438  16.935   8.045  0.00  0.00    -0.331 N 
HETATM   27  C   UNK N   1      29.882  17.043   6.775  0.00  0.00     0.116 A 
ATOM     28  HN  UNK N   1      29.899  16.865   8.909  1.00  0.00     0.168 HD
HETATM   29  C   UNK N   1      30.854  17.164   5.720  0.00  0.00     0.022 A 
HETATM   30  S   UNK N   1      32.297  17.142   6.452  0.00  0.00    -0.056 SA
BRANCH  27  31
HETATM   31  C   UNK N   1      28.403  16.967   6.565  0.00  0.00     0.269 C 
HETATM   32  O   UNK N   1      27.906  15.909   6.236  0.00  0.00    -0.266 OA
HETATM   33  N   UNK N   1      27.573  18.029   6.737  0.00  0.00    -0.356 N 
HETATM   34  H   UNK N   1      26.605  17.866   6.657  0.00  0.00     0.162 HD
BRANCH  33  35
HETATM   35  C   UNK N   1      27.998  19.373   7.029  0.00  0.00     0.125 C 
BRANCH  35  36
HETATM   36  C   UNK N   1      27.361  20.353   6.043  0.00  0.00     0.050 C 
BRANCH  36  37
HETATM   37  C   UNK N   1      27.347  19.870   4.585  0.00  0.00     0.273 C 
BRANCH  37  38
HETATM   38  N   UNK N   1      25.999  19.702   4.046  0.00  0.00     0.080 N 
HETATM   39  C   UNK N   1      25.908  18.330   3.575  0.00  0.00     0.309 C 
HETATM   40  C   UNK N   1      25.837  20.545   2.870  0.00  0.00     0.309 C 
ENDBRANCH  37  38
ENDBRANCH  36  37
ENDBRANCH  35  36
ENDBRANCH  33  35
ENDBRANCH  27  31
BRANCH  29  41
HETATM   41  C   UNK N   1      30.847  17.306   4.222  0.00  0.00     0.020 C 
HETATM   42  C   UNK N   1      32.263  17.505   3.701  0.00  0.00     0.015 C 
HETATM   43  C   UNK N   1      30.146  16.252   3.410  0.00  0.00     0.015 C 
ENDBRANCH  29  41
ENDBRANCH   1  25
TORSDOF 12
ENDMDL
MODEL 3
REMARK VINA RESULT:      -7.3      2.601      3.933
REMARK  12 active torsions:
REMARK  status: ('A' for Active; 'I' for Inactive)
REMARK    1  A    between atoms: C_2  and  C_4 
REMARK    2  A    between atoms: C_5  and  C_31 
REMARK    3  A    between atoms: C_8  and  N_9 
REMARK       I    between atoms: N_9  and  C_10 
REMARK    4  A    between atoms: C_10  and  C_12 
REMARK    5  A    between atoms: C_14  and  N_15 
REMARK       I    between atoms: N_15  and  C_16 
REMARK    6  A    between atoms: C_16  and  C_18 
REMARK    7  A    between atoms: C_20  and  N_21 
REMARK    8  A    between atoms: N_21  and  C_22 
REMARK       I    between atoms: C_31  and  N_33 
REMARK    9  A    between atoms: N_33  and  C_34 
REMARK   10  A    between atoms: C_34  and  C_35 
REMARK   11  A    between atoms: C_35  and  C_36 
REMARK   12  A    between atoms: C_36  and  N_37 
ROOT
HETATM    1  N   UNK N   1      29.710  16.952   7.296  0.00  0.00    -0.302 N 
HETATM    2  C   UNK N   1      29.261  17.244   6.045  0.00  0.00     0.274 C 
HETATM    3  O   UNK N   1      29.985  17.826   5.240  0.00  0.00    -0.266 OA
HETATM    4  H   UNK N   1      29.085  16.880   8.053  0.00  0.00     0.171 HD
ENDROOT
BRANCH   2   5
HETATM    5  C   UNK N   1      27.954  16.794   5.622  0.00  0.00     0.105 A 
HETATM    6  C   UNK N   1      26.900  17.641   5.565  0.00  0.00     0.066 A 
HETATM    7  C   UNK N   1      25.879  16.917   5.001  0.00  0.00     0.053 A 
HETATM    8  C   UNK N   1      26.328  15.634   4.766  0.00  0.00     0.120 A 
HETATM    9  N   UNK N   1      27.603  15.570   5.188  0.00  0.00    -0.354 N 
HETATM   10  C   UNK N   1      28.458  14.397   5.075  0.00  0.00     0.156 C 
BRANCH   7  11
HETATM   11  N   UNK N   1      24.907  17.565   4.209  0.00  0.00    -0.320 N 
HETATM   12  C   UNK N   1      23.604  17.458   4.613  0.00  0.00     0.273 C 
HETATM   13  O   UNK N   1      23.329  16.971   5.703  0.00  0.00    -0.266 OA
HETATM   14  H   UNK N   1      25.155  18.071   3.402  0.00  0.00     0.169 HD
BRANCH  12  15
HETATM   15  C   UNK N   1      22.498  17.806   3.749  0.00  0.00     0.105 A 
HETATM   16  C   UNK N   1      22.201  19.120   3.468  0.00  0.00     0.066 A 
HETATM   17  C   UNK N   1      21.068  19.070   2.714  0.00  0.00     0.052 A 
HETATM   18  C   UNK N   1      20.705  17.743   2.535  0.00  0.00     0.120 A 
HETATM   19  N   UNK N   1      21.605  16.979   3.181  0.00  0.00    -0.354 N 
HETATM   20  C   UNK N   1      21.596  15.526   3.235  0.00  0.00     0.156 C 
BRANCH  17  21
HETATM   21  N   UNK N   1      20.371  20.221   2.292  0.00  0.00    -0.333 N 
HETATM   22  H   UNK N   1      19.530  20.464   2.743  0.00  0.00     0.168 HD
BRANCH  21  23
HETATM   23  C   UNK N   1      20.821  20.995   1.290  0.00  0.00     0.353 C 
HETATM   24  O   UNK N   1      21.061  20.496   0.204  0.00  0.00    -0.283 OA
ENDBRANCH  21  23
ENDBRANCH  17  21
ENDBRANCH  12  15
ENDBRANCH   7  11
ENDBRANCH   2   5
BRANCH   1  25
HETATM   25  C   UNK N   1      31.089  16.756   7.477  0.00  0.00     0.152 A 
HETATM   26  N   UNK N   1      31.978  17.604   8.051  0.00  0.00    -0.331 N 
HETATM   27  C   UNK N   1      33.271  17.099   7.968  0.00  0.00     0.116 A 
ATOM     28  HN  UNK N   1      31.731  18.494   8.485  1.00  0.00     0.168 HD
HETATM   29  C   UNK N   1      33.353  15.805   7.340  0.00  0.00     0.022 A 
HETATM   30  S   UNK N   1      31.831  15.405   6.965  0.00  0.00    -0.056 SA
BRANCH  27  31
HETATM   31  C   UNK N   1      34.447  17.893   8.439  0.00  0.00     0.269 C 
HETATM   32  O   UNK N   1      34.837  18.828   7.768  0.00  0.00    -0.266 OA
HETATM   33  N   UNK N   1      35.103  17.631   9.600  0.00  0.00    -0.356 N 
HETATM   34  H   UNK N   1      35.814  18.256   9.870  0.00  0.00     0.162 HD
BRANCH  33  35
HETATM   35  C   UNK N   1      34.839  16.511  10.465  0.00  0.00     0.125 C 
BRANCH  35  36
HETATM   36  C   UNK N   1      36.152  15.850  10.885  0.00  0.00     0.050 C 
BRANCH  36  37
HETATM   37  C   UNK N   1      36.530  14.607  10.064  0.00  0.00     0.273 C 
BRANCH  37  38
HETATM   38  N   UNK N   1      36.515  13.372  10.846  0.00  0.00     0.080 N 
HETATM   39  C   UNK N   1      35.255  12.711  10.554  0.00  0.00     0.309 C 
HETATM   40  C   UNK N   1      36.483  13.695  12.265  0.00  0.00     0.309 C 
ENDBRANCH  37  38
ENDBRANCH  36  37
ENDBRANCH  35  36
ENDBRANCH  33  35
ENDBRANCH  27  31
BRANCH  29  41
HETATM   41  C   UNK N   1      34.430  14.815   6.990  0.00  0.00     0.020 C 
HETATM   42  C   UNK N   1      33.885  13.396   7.052  0.00  0.00     0.015 C 
HETATM   43  C   UNK N   1      35.191  15.014   5.708  0.00  0.00     0.015 C 
ENDBRANCH  29  41
ENDBRANCH   1  25
TORSDOF 12
ENDMDL
MODEL 4
REMARK VINA RESULT:      -7.3      4.228     12.899
REMARK  12 active torsions:
REMARK  status: ('A' for Active; 'I' for Inactive)
REMARK    1  A    between atoms: C_2  and  C_4 
REMARK    2  A    between atoms: C_5  and  C_31 
REMARK    3  A    between atoms: C_8  and  N_9 
REMARK       I    between atoms: N_9  and  C_10 
REMARK    4  A    between atoms: C_10  and  C_12 
REMARK    5  A    between atoms: C_14  and  N_15 
REMARK       I    between atoms: N_15  and  C_16 
REMARK    6  A    between atoms: C_16  and  C_18 
REMARK    7  A    between atoms: C_20  and  N_21 
REMARK    8  A    between atoms: N_21  and  C_22 
REMARK       I    between atoms: C_31  and  N_33 
REMARK    9  A    between atoms: N_33  and  C_34 
REMARK   10  A    between atoms: C_34  and  C_35 
REMARK   11  A    between atoms: C_35  and  C_36 
REMARK   12  A    between atoms: C_36  and  N_37 
ROOT
HETATM    1  N   UNK N   1      36.282  14.286  10.716  0.00  0.00    -0.302 N 
HETATM    2  C   UNK N   1      35.530  13.973  11.806  0.00  0.00     0.274 C 
HETATM    3  O   UNK N   1      34.537  14.638  12.094  0.00  0.00    -0.266 OA
HETATM    4  H   UNK N   1      37.242  14.072  10.686  0.00  0.00     0.171 HD
ENDROOT
BRANCH   2   5
HETATM    5  C   UNK N   1      35.844  12.798  12.588  0.00  0.00     0.105 A 
HETATM    6  C   UNK N   1      36.512  12.889  13.761  0.00  0.00     0.066 A 
HETATM    7  C   UNK N   1      36.510  11.619  14.283  0.00  0.00     0.053 A 
HETATM    8  C   UNK N   1      35.873  10.780  13.392  0.00  0.00     0.120 A 
HETATM    9  N   UNK N   1      35.498  11.522  12.336  0.00  0.00    -0.354 N 
HETATM   10  C   UNK N   1      34.753  11.022  11.190  0.00  0.00     0.156 C 
BRANCH   7  11
HETATM   11  N   UNK N   1      36.502  11.430  15.681  0.00  0.00    -0.320 N 
HETATM   12  C   UNK N   1      35.350  11.750  16.345  0.00  0.00     0.273 C 
HETATM   13  O   UNK N   1      34.328  12.017  15.726  0.00  0.00    -0.266 OA
HETATM   14  H   UNK N   1      37.291  11.084  16.158  0.00  0.00     0.169 HD
BRANCH  12  15
HETATM   15  C   UNK N   1      35.304  11.892  17.784  0.00  0.00     0.105 A 
HETATM   16  C   UNK N   1      35.200  10.793  18.605  0.00  0.00     0.066 A 
HETATM   17  C   UNK N   1      35.094  11.303  19.863  0.00  0.00     0.052 A 
HETATM   18  C   UNK N   1      35.151  12.687  19.793  0.00  0.00     0.120 A 
HETATM   19  N   UNK N   1      35.283  13.029  18.499  0.00  0.00    -0.354 N 
HETATM   20  C   UNK N   1      35.391  14.388  17.990  0.00  0.00     0.156 C 
BRANCH  17  21
HETATM   21  N   UNK N   1      34.871  10.504  21.003  0.00  0.00    -0.333 N 
HETATM   22  H   UNK N   1      35.645  10.169  21.512  0.00  0.00     0.168 HD
BRANCH  21  23
HETATM   23  C   UNK N   1      33.632  10.185  21.415  0.00  0.00     0.353 C 
HETATM   24  O   UNK N   1      33.012  10.963  22.118  0.00  0.00    -0.283 OA
ENDBRANCH  21  23
ENDBRANCH  17  21
ENDBRANCH  12  15
ENDBRANCH   7  11
ENDBRANCH   2   5
BRANCH   1  25
HETATM   25  C   UNK N   1      35.650  14.922   9.635  0.00  0.00     0.152 A 
HETATM   26  N   UNK N   1      35.345  16.237   9.510  0.00  0.00    -0.331 N 
HETATM   27  C   UNK N   1      34.641  16.475   8.335  0.00  0.00     0.116 A 
ATOM     28  HN  UNK N   1      35.597  16.956  10.189  1.00  0.00     0.168 HD
HETATM   29  C   UNK N   1      34.441  15.300   7.526  0.00  0.00     0.022 A 
HETATM   30  S   UNK N   1      35.161  14.092   8.326  0.00  0.00    -0.056 SA
BRANCH  27  31
HETATM   31  C   UNK N   1      34.100  17.832   8.013  0.00  0.00     0.269 C 
HETATM   32  O   UNK N   1      34.856  18.686   7.595  0.00  0.00    -0.266 OA
HETATM   33  N   UNK N   1      32.790  18.161   8.153  0.00  0.00    -0.356 N 
HETATM   34  H   UNK N   1      32.509  19.052   7.839  0.00  0.00     0.162 HD
BRANCH  33  35
HETATM   35  C   UNK N   1      31.778  17.310   8.722  0.00  0.00     0.125 C 
BRANCH  35  36
HETATM   36  C   UNK N   1      30.405  17.969   8.602  0.00  0.00     0.050 C 
BRANCH  36  37
HETATM   37  C   UNK N   1      29.575  17.497   7.398  0.00  0.00     0.273 C 
BRANCH  37  38
HETATM   38  N   UNK N   1      28.134  17.625   7.604  0.00  0.00     0.080 N 
HETATM   39  C   UNK N   1      27.891  17.358   9.011  0.00  0.00     0.309 C 
HETATM   40  C   UNK N   1      27.442  16.577   6.868  0.00  0.00     0.309 C 
ENDBRANCH  37  38
ENDBRANCH  36  37
ENDBRANCH  35  36
ENDBRANCH  33  35
ENDBRANCH  27  31
BRANCH  29  41
HETATM   41  C   UNK N   1      33.785  14.960   6.216  0.00  0.00     0.020 C 
HETATM   42  C   UNK N   1      32.325  14.594   6.434  0.00  0.00     0.015 C 
HETATM   43  C   UNK N   1      33.902  15.944   5.084  0.00  0.00     0.015 C 
ENDBRANCH  29  41
ENDBRANCH   1  25
TORSDOF 12
ENDMDL
MODEL 5
REMARK VINA RESULT:      -7.2      2.845      5.366
REMARK  12 active torsions:
REMARK  status: ('A' for Active; 'I' for Inactive)
REMARK    1  A    between atoms: C_2  and  C_4 
REMARK    2  A    between atoms: C_5  and  C_31 
REMARK    3  A    between atoms: C_8  and  N_9 
REMARK       I    between atoms: N_9  and  C_10 
REMARK    4  A    between atoms: C_10  and  C_12 
REMARK    5  A    between atoms: C_14  and  N_15 
REMARK       I    between atoms: N_15  and  C_16 
REMARK    6  A    between atoms: C_16  and  C_18 
REMARK    7  A    between atoms: C_20  and  N_21 
REMARK    8  A    between atoms: N_21  and  C_22 
REMARK       I    between atoms: C_31  and  N_33 
REMARK    9  A    between atoms: N_33  and  C_34 
REMARK   10  A    between atoms: C_34  and  C_35 
REMARK   11  A    between atoms: C_35  and  C_36 
REMARK   12  A    between atoms: C_36  and  N_37 
ROOT
HETATM    1  N   UNK N   1      29.069  17.558   3.759  0.00  0.00    -0.302 N 
HETATM    2  C   UNK N   1      27.968  17.567   4.559  0.00  0.00     0.274 C 
HETATM    3  O   UNK N   1      27.850  16.750   5.471  0.00  0.00    -0.266 OA
HETATM    4  H   UNK N   1      29.020  17.881   2.830  0.00  0.00     0.171 HD
ENDROOT
BRANCH   2   5
HETATM    5  C   UNK N   1      26.965  18.596   4.398  0.00  0.00     0.105 A 
HETATM    6  C   UNK N   1      25.971  18.476   3.488  0.00  0.00     0.066 A 
HETATM    7  C   UNK N   1      25.143  19.549   3.707  0.00  0.00     0.053 A 
HETATM    8  C   UNK N   1      25.679  20.317   4.721  0.00  0.00     0.120 A 
HETATM    9  N   UNK N   1      26.822  19.728   5.111  0.00  0.00    -0.354 N 
HETATM   10  C   UNK N   1      27.673  20.199   6.195  0.00  0.00     0.156 C 
BRANCH   7  11
HETATM   11  N   UNK N   1      23.759  19.437   3.455  0.00  0.00    -0.320 N 
HETATM   12  C   UNK N   1      23.026  18.692   4.337  0.00  0.00     0.273 C 
HETATM   13  O   UNK N   1      23.525  18.295   5.383  0.00  0.00    -0.266 OA
HETATM   14  H   UNK N   1      23.341  19.875   2.679  0.00  0.00     0.169 HD
BRANCH  12  15
HETATM   15  C   UNK N   1      21.681  18.249   4.040  0.00  0.00     0.105 A 
HETATM   16  C   UNK N   1      21.284  16.957   4.297  0.00  0.00     0.066 A 
HETATM   17  C   UNK N   1      20.012  16.879   3.817  0.00  0.00     0.052 A 
HETATM   18  C   UNK N   1      19.651  18.113   3.296  0.00  0.00     0.120 A 
HETATM   19  N   UNK N   1      20.698  18.946   3.448  0.00  0.00    -0.354 N 
HETATM   20  C   UNK N   1      20.732  20.343   3.043  0.00  0.00     0.156 C 
BRANCH  17  21
HETATM   21  N   UNK N   1      19.267  15.682   3.797  0.00  0.00    -0.333 N 
HETATM   22  H   UNK N   1      19.147  15.208   2.942  0.00  0.00     0.168 HD
BRANCH  21  23
HETATM   23  C   UNK N   1      18.716  15.170   4.910  0.00  0.00     0.353 C 
HETATM   24  O   UNK N   1      17.992  15.868   5.599  0.00  0.00    -0.283 OA
ENDBRANCH  21  23
ENDBRANCH  17  21
ENDBRANCH  12  15
ENDBRANCH   7  11
ENDBRANCH   2   5
BRANCH   1  25
HETATM   25  C   UNK N   1      30.275  17.076   4.294  0.00  0.00     0.152 A 
HETATM   26  N   UNK N   1      30.991  17.595   5.322  0.00  0.00    -0.331 N 
HETATM   27  C   UNK N   1      32.176  16.892   5.505  0.00  0.00     0.116 A 
ATOM     28  HN  UNK N   1      30.698  18.394   5.885  1.00  0.00     0.168 HD
HETATM   29  C   UNK N   1      32.342  15.780   4.605  0.00  0.00     0.022 A 
HETATM   30  S   UNK N   1      31.010  15.762   3.686  0.00  0.00    -0.056 SA
BRANCH  27  31
HETATM   31  C   UNK N   1      33.191  17.329   6.514  0.00  0.00     0.269 C 
HETATM   32  O   UNK N   1      34.135  18.002   6.150  0.00  0.00    -0.266 OA
HETATM   33  N   UNK N   1      33.106  17.022   7.834  0.00  0.00    -0.356 N 
HETATM   34  H   UNK N   1      33.774  17.421   8.437  0.00  0.00     0.162 HD
BRANCH  33  35
HETATM   35  C   UNK N   1      32.114  16.158   8.421  0.00  0.00     0.125 C 
BRANCH  35  36
HETATM   36  C   UNK N   1      32.745  14.823   8.814  0.00  0.00     0.050 C 
BRANCH  36  37
HETATM   37  C   UNK N   1      34.190  14.926   9.326  0.00  0.00     0.273 C 
BRANCH  37  38
HETATM   38  N   UNK N   1      34.278  15.294  10.737  0.00  0.00     0.080 N 
HETATM   39  C   UNK N   1      35.237  16.382  10.824  0.00  0.00     0.309 C 
HETATM   40  C   UNK N   1      34.850  14.189  11.493  0.00  0.00     0.309 C 
ENDBRANCH  37  38
ENDBRANCH  36  37
ENDBRANCH  35  36
ENDBRANCH  33  35
ENDBRANCH  27  31
BRANCH  29  41
HETATM   41  C   UNK N   1      33.370  14.713   4.345  0.00  0.00     0.020 C 
HETATM   42  C   UNK N   1      33.909  14.831   2.927  0.00  0.00     0.015 C 
HETATM   43  C   UNK N   1      34.510  14.572   5.316  0.00  0.00     0.015 C 
ENDBRANCH  29  41
ENDBRANCH   1  25
TORSDOF 12
ENDMDL
MODEL 6
REMARK VINA RESULT:      -7.1      5.874     14.515
REMARK  12 active torsions:
REMARK  status: ('A' for Active; 'I' for Inactive)
REMARK    1  A    between atoms: C_2  and  C_4 
REMARK    2  A    between atoms: C_5  and  C_31 
REMARK    3  A    between atoms: C_8  and  N_9 
REMARK       I    between atoms: N_9  and  C_10 
REMARK    4  A    between atoms: C_10  and  C_12 
REMARK    5  A    between atoms: C_14  and  N_15 
REMARK       I    between atoms: N_15  and  C_16 
REMARK    6  A    between atoms: C_16  and  C_18 
REMARK    7  A    between atoms: C_20  and  N_21 
REMARK    8  A    between atoms: N_21  and  C_22 
REMARK       I    between atoms: C_31  and  N_33 
REMARK    9  A    between atoms: N_33  and  C_34 
REMARK   10  A    between atoms: C_34  and  C_35 
REMARK   11  A    between atoms: C_35  and  C_36 
REMARK   12  A    between atoms: C_36  and  N_37 
ROOT
HETATM    1  N   UNK N   1      36.670  13.703  14.390  0.00  0.00    -0.302 N 
HETATM    2  C   UNK N   1      35.632  13.031  14.956  0.00  0.00     0.274 C 
HETATM    3  O   UNK N   1      34.479  13.219  14.571  0.00  0.00    -0.266 OA
HETATM    4  H   UNK N   1      37.488  13.894  14.903  0.00  0.00     0.171 HD
ENDROOT
BRANCH   2   5
HETATM    5  C   UNK N   1      35.885  12.022  15.960  0.00  0.00     0.105 A 
HETATM    6  C   UNK N   1      35.345  12.107  17.198  0.00  0.00     0.066 A 
HETATM    7  C   UNK N   1      35.679  10.932  17.825  0.00  0.00     0.053 A 
HETATM    8  C   UNK N   1      36.449  10.179  16.963  0.00  0.00     0.120 A 
HETATM    9  N   UNK N   1      36.592  10.885  15.829  0.00  0.00    -0.354 N 
HETATM   10  C   UNK N   1      37.301  10.421  14.644  0.00  0.00     0.156 C 
BRANCH   7  11
HETATM   11  N   UNK N   1      34.815  10.378  18.794  0.00  0.00    -0.320 N 
HETATM   12  C   UNK N   1      34.942  10.840  20.076  0.00  0.00     0.273 C 
HETATM   13  O   UNK N   1      35.648  11.810  20.321  0.00  0.00    -0.266 OA
HETATM   14  H   UNK N   1      34.153   9.689  18.559  0.00  0.00     0.169 HD
BRANCH  12  15
HETATM   15  C   UNK N   1      34.346  10.158  21.203  0.00  0.00     0.105 A 
HETATM   16  C   UNK N   1      33.309  10.722  21.909  0.00  0.00     0.066 A 
HETATM   17  C   UNK N   1      33.069   9.857  22.934  0.00  0.00     0.052 A 
HETATM   18  C   UNK N   1      33.941   8.783  22.828  0.00  0.00     0.120 A 
HETATM   19  N   UNK N   1      34.719   8.989  21.749  0.00  0.00    -0.354 N 
HETATM   20  C   UNK N   1      35.762   8.092  21.276  0.00  0.00     0.156 C 
BRANCH  17  21
HETATM   21  N   UNK N   1      32.135  10.113  23.958  0.00  0.00    -0.333 N 
HETATM   22  H   UNK N   1      31.204   9.816  23.841  0.00  0.00     0.168 HD
BRANCH  21  23
HETATM   23  C   UNK N   1      32.479  10.753  25.089  0.00  0.00     0.353 C 
HETATM   24  O   UNK N   1      33.652  10.810  25.415  0.00  0.00    -0.283 OA
ENDBRANCH  21  23
ENDBRANCH  17  21
ENDBRANCH  12  15
ENDBRANCH   7  11
ENDBRANCH   2   5
BRANCH   1  25
HETATM   25  C   UNK N   1      36.543  14.117  13.053  0.00  0.00     0.152 A 
HETATM   26  N   UNK N   1      36.008  15.273  12.591  0.00  0.00    -0.331 N 
HETATM   27  C   UNK N   1      35.977  15.286  11.201  0.00  0.00     0.116 A 
ATOM     28  HN  UNK N   1      35.673  16.033  13.185  1.00  0.00     0.168 HD
HETATM   29  C   UNK N   1      36.543  14.109  10.594  0.00  0.00     0.022 A 
HETATM   30  S   UNK N   1      37.039  13.180  11.822  0.00  0.00    -0.056 SA
BRANCH  27  31
HETATM   31  C   UNK N   1      35.340  16.410  10.448  0.00  0.00     0.269 C 
HETATM   32  O   UNK N   1      35.901  17.487  10.407  0.00  0.00    -0.266 OA
HETATM   33  N   UNK N   1      34.160  16.287   9.786  0.00  0.00    -0.356 N 
HETATM   34  H   UNK N   1      33.858  17.055   9.249  0.00  0.00     0.162 HD
BRANCH  33  35
HETATM   35  C   UNK N   1      33.318  15.120   9.807  0.00  0.00     0.125 C 
BRANCH  35  36
HETATM   36  C   UNK N   1      33.091  14.607   8.385  0.00  0.00     0.050 C 
BRANCH  36  37
HETATM   37  C   UNK N   1      34.002  15.245   7.325  0.00  0.00     0.273 C 
BRANCH  37  38
HETATM   38  N   UNK N   1      33.263  15.920   6.260  0.00  0.00     0.080 N 
HETATM   39  C   UNK N   1      33.604  17.329   6.348  0.00  0.00     0.309 C 
HETATM   40  C   UNK N   1      31.835  15.831   6.527  0.00  0.00     0.309 C 
ENDBRANCH  37  38
ENDBRANCH  36  37
ENDBRANCH  35  36
ENDBRANCH  33  35
ENDBRANCH  27  31
BRANCH  29  41
HETATM   41  C   UNK N   1      36.774  13.588   9.202  0.00  0.00     0.020 C 
HETATM   42  C   UNK N   1      38.253  13.653   8.850  0.00  0.00     0.015 C 
HETATM   43  C   UNK N   1      36.224  12.233   8.848  0.00  0.00     0.015 C 
ENDBRANCH  29  41
ENDBRANCH   1  25
TORSDOF 12
ENDMDL
MODEL 7
REMARK VINA RESULT:      -7.0      3.002      3.563
REMARK  12 active torsions:
REMARK  status: ('A' for Active; 'I' for Inactive)
REMARK    1  A    between atoms: C_2  and  C_4 
REMARK    2  A    between atoms: C_5  and  C_31 
REMARK    3  A    between atoms: C_8  and  N_9 
REMARK       I    between atoms: N_9  and  C_10 
REMARK    4  A    between atoms: C_10  and  C_12 
REMARK    5  A    between atoms: C_14  and  N_15 
REMARK       I    between atoms: N_15  and  C_16 
REMARK    6  A    between atoms: C_16  and  C_18 
REMARK    7  A    between atoms: C_20  and  N_21 
REMARK    8  A    between atoms: N_21  and  C_22 
REMARK       I    between atoms: C_31  and  N_33 
REMARK    9  A    between atoms: N_33  and  C_34 
REMARK   10  A    between atoms: C_34  and  C_35 
REMARK   11  A    between atoms: C_35  and  C_36 
REMARK   12  A    between atoms: C_36  and  N_37 
ROOT
HETATM    1  N   UNK N   1      31.531  15.720   9.290  0.00  0.00    -0.302 N 
HETATM    2  C   UNK N   1      31.414  16.799   8.469  0.00  0.00     0.274 C 
HETATM    3  O   UNK N   1      32.315  17.633   8.398  0.00  0.00    -0.266 OA
HETATM    4  H   UNK N   1      30.734  15.289   9.675  0.00  0.00     0.171 HD
ENDROOT
BRANCH   2   5
HETATM    5  C   UNK N   1      30.262  16.928   7.605  0.00  0.00     0.105 A 
HETATM    6  C   UNK N   1      30.168  16.237   6.446  0.00  0.00     0.066 A 
HETATM    7  C   UNK N   1      28.907  16.495   5.967  0.00  0.00     0.053 A 
HETATM    8  C   UNK N   1      28.281  17.371   6.830  0.00  0.00     0.120 A 
HETATM    9  N   UNK N   1      29.148  17.652   7.818  0.00  0.00    -0.354 N 
HETATM   10  C   UNK N   1      28.858  18.506   8.961  0.00  0.00     0.156 C 
BRANCH   7  11
HETATM   11  N   UNK N   1      28.226  15.520   5.208  0.00  0.00    -0.320 N 
HETATM   12  C   UNK N   1      28.120  15.742   3.862  0.00  0.00     0.273 C 
HETATM   13  O   UNK N   1      28.742  16.654   3.331  0.00  0.00    -0.266 OA
HETATM   14  H   UNK N   1      27.843  14.716   5.629  0.00  0.00     0.169 HD
BRANCH  12  15
HETATM   15  C   UNK N   1      27.205  14.995   3.028  0.00  0.00     0.105 A 
HETATM   16  C   UNK N   1      26.013  15.543   2.611  0.00  0.00     0.066 A 
HETATM   17  C   UNK N   1      25.385  14.542   1.934  0.00  0.00     0.052 A 
HETATM   18  C   UNK N   1      26.200  13.419   1.933  0.00  0.00     0.120 A 
HETATM   19  N   UNK N   1      27.321  13.723   2.613  0.00  0.00    -0.354 N 
HETATM   20  C   UNK N   1      28.443  12.825   2.837  0.00  0.00     0.156 C 
BRANCH  17  21
HETATM   21  N   UNK N   1      24.077  14.661   1.420  0.00  0.00    -0.333 N 
HETATM   22  H   UNK N   1      23.485  15.363   1.775  0.00  0.00     0.168 HD
BRANCH  21  23
HETATM   23  C   UNK N   1      23.615  13.842   0.460  0.00  0.00     0.353 C 
HETATM   24  O   UNK N   1      22.426  13.580   0.413  0.00  0.00    -0.283 OA
ENDBRANCH  21  23
ENDBRANCH  17  21
ENDBRANCH  12  15
ENDBRANCH   7  11
ENDBRANCH   2   5
BRANCH   1  25
HETATM   25  C   UNK N   1      32.820  15.239   9.573  0.00  0.00     0.152 A 
HETATM   26  N   UNK N   1      33.704  15.721  10.480  0.00  0.00    -0.331 N 
HETATM   27  C   UNK N   1      34.912  15.036  10.409  0.00  0.00     0.116 A 
ATOM     28  HN  UNK N   1      33.510  16.486  11.127  1.00  0.00     0.168 HD
HETATM   29  C   UNK N   1      34.925  13.973   9.438  0.00  0.00     0.022 A 
HETATM   30  S   UNK N   1      33.449  13.971   8.775  0.00  0.00    -0.056 SA
BRANCH  27  31
HETATM   31  C   UNK N   1      36.088  15.445  11.239  0.00  0.00     0.269 C 
HETATM   32  O   UNK N   1      36.854  16.282  10.806  0.00  0.00    -0.266 OA
HETATM   33  N   UNK N   1      36.340  14.934  12.472  0.00  0.00    -0.356 N 
HETATM   34  H   UNK N   1      37.090  15.321  12.979  0.00  0.00     0.162 HD
BRANCH  33  35
HETATM   35  C   UNK N   1      35.597  13.870  13.095  0.00  0.00     0.125 C 
BRANCH  35  36
HETATM   36  C   UNK N   1      36.540  12.745  13.518  0.00  0.00     0.050 C 
BRANCH  36  37
HETATM   37  C   UNK N   1      35.845  11.405  13.808  0.00  0.00     0.273 C 
BRANCH  37  38
HETATM   38  N   UNK N   1      34.418  11.416  13.494  0.00  0.00     0.080 N 
HETATM   39  C   UNK N   1      33.724  10.994  14.698  0.00  0.00     0.309 C 
HETATM   40  C   UNK N   1      34.133  10.404  12.487  0.00  0.00     0.309 C 
ENDBRANCH  37  38
ENDBRANCH  36  37
ENDBRANCH  35  36
ENDBRANCH  33  35
ENDBRANCH  27  31
BRANCH  29  41
HETATM   41  C   UNK N   1      35.901  12.942   8.942  0.00  0.00     0.020 C 
HETATM   42  C   UNK N   1      37.065  13.614   8.228  0.00  0.00     0.015 C 
HETATM   43  C   UNK N   1      36.421  11.924   9.920  0.00  0.00     0.015 C 
ENDBRANCH  29  41
ENDBRANCH   1  25
TORSDOF 12
ENDMDL
MODEL 8
REMARK VINA RESULT:      -7.0      4.775     11.730
REMARK  12 active torsions:
REMARK  status: ('A' for Active; 'I' for Inactive)
REMARK    1  A    between atoms: C_2  and  C_4 
REMARK    2  A    between atoms: C_5  and  C_31 
REMARK    3  A    between atoms: C_8  and  N_9 
REMARK       I    between atoms: N_9  and  C_10 
REMARK    4  A    between atoms: C_10  and  C_12 
REMARK    5  A    between atoms: C_14  and  N_15 
REMARK       I    between atoms: N_15  and  C_16 
REMARK    6  A    between atoms: C_16  and  C_18 
REMARK    7  A    between atoms: C_20  and  N_21 
REMARK    8  A    between atoms: N_21  and  C_22 
REMARK       I    between atoms: C_31  and  N_33 
REMARK    9  A    between atoms: N_33  and  C_34 
REMARK   10  A    between atoms: C_34  and  C_35 
REMARK   11  A    between atoms: C_35  and  C_36 
REMARK   12  A    between atoms: C_36  and  N_37 
ROOT
HETATM    1  N   UNK N   1      24.498  16.609   5.010  0.00  0.00    -0.302 N 
HETATM    2  C   UNK N   1      24.845  17.910   4.814  0.00  0.00     0.274 C 
HETATM    3  O   UNK N   1      23.989  18.754   4.553  0.00  0.00    -0.266 OA
HETATM    4  H   UNK N   1      25.132  15.882   4.814  0.00  0.00     0.171 HD
ENDROOT
BRANCH   2   5
HETATM    5  C   UNK N   1      26.216  18.329   4.997  0.00  0.00     0.105 A 
HETATM    6  C   UNK N   1      27.027  17.721   5.895  0.00  0.00     0.066 A 
HETATM    7  C   UNK N   1      28.268  18.274   5.701  0.00  0.00     0.053 A 
HETATM    8  C   UNK N   1      28.171  19.235   4.715  0.00  0.00     0.120 A 
HETATM    9  N   UNK N   1      26.888  19.275   4.317  0.00  0.00    -0.354 N 
HETATM   10  C   UNK N   1      26.374  20.128   3.254  0.00  0.00     0.156 C 
BRANCH   7  11
HETATM   11  N   UNK N   1      29.428  17.507   5.938  0.00  0.00    -0.320 N 
HETATM   12  C   UNK N   1      30.014  17.630   7.168  0.00  0.00     0.273 C 
HETATM   13  O   UNK N   1      29.451  18.241   8.068  0.00  0.00    -0.266 OA
HETATM   14  H   UNK N   1      29.800  16.911   5.248  0.00  0.00     0.169 HD
BRANCH  12  15
HETATM   15  C   UNK N   1      31.350  17.147   7.437  0.00  0.00     0.105 A 
HETATM   16  C   UNK N   1      31.726  16.758   8.702  0.00  0.00     0.066 A 
HETATM   17  C   UNK N   1      33.049  16.455   8.599  0.00  0.00     0.052 A 
HETATM   18  C   UNK N   1      33.452  16.645   7.285  0.00  0.00     0.120 A 
HETATM   19  N   UNK N   1      32.385  17.070   6.584  0.00  0.00    -0.354 N 
HETATM   20  C   UNK N   1      32.376  17.377   5.162  0.00  0.00     0.156 C 
BRANCH  17  21
HETATM   21  N   UNK N   1      33.849  16.101   9.705  0.00  0.00    -0.333 N 
HETATM   22  H   UNK N   1      33.436  15.623  10.460  0.00  0.00     0.168 HD
BRANCH  21  23
HETATM   23  C   UNK N   1      35.159  16.397   9.757  0.00  0.00     0.353 C 
HETATM   24  O   UNK N   1      35.542  17.310  10.468  0.00  0.00    -0.283 OA
ENDBRANCH  21  23
ENDBRANCH  17  21
ENDBRANCH  12  15
ENDBRANCH   7  11
ENDBRANCH   2   5
BRANCH   1  25
HETATM   25  C   UNK N   1      23.211  16.332   5.501  0.00  0.00     0.152 A 
HETATM   26  N   UNK N   1      22.701  16.650   6.716  0.00  0.00    -0.331 N 
HETATM   27  C   UNK N   1      21.421  16.130   6.869  0.00  0.00     0.116 A 
ATOM     28  HN  UNK N   1      23.192  17.197   7.424  1.00  0.00     0.168 HD
HETATM   29  C   UNK N   1      20.934  15.425   5.711  0.00  0.00     0.022 A 
HETATM   30  S   UNK N   1      22.117  15.525   4.611  0.00  0.00    -0.056 SA
BRANCH  27  31
HETATM   31  C   UNK N   1      20.680  16.256   8.162  0.00  0.00     0.269 C 
HETATM   32  O   UNK N   1      20.262  17.346   8.501  0.00  0.00    -0.266 OA
HETATM   33  N   UNK N   1      20.432  15.202   8.982  0.00  0.00    -0.356 N 
HETATM   34  H   UNK N   1      19.867  15.364   9.772  0.00  0.00     0.162 HD
BRANCH  33  35
HETATM   35  C   UNK N   1      20.933  13.866   8.787  0.00  0.00     0.125 C 
BRANCH  35  36
HETATM   36  C   UNK N   1      21.989  13.539   9.842  0.00  0.00     0.050 C 
BRANCH  36  37
HETATM   37  C   UNK N   1      21.943  12.095  10.364  0.00  0.00     0.273 C 
BRANCH  37  38
HETATM   38  N   UNK N   1      23.218  11.640  10.916  0.00  0.00     0.080 N 
HETATM   39  C   UNK N   1      23.188  11.946  12.335  0.00  0.00     0.309 C 
HETATM   40  C   UNK N   1      24.302  12.431  10.353  0.00  0.00     0.309 C 
ENDBRANCH  37  38
ENDBRANCH  36  37
ENDBRANCH  35  36
ENDBRANCH  33  35
ENDBRANCH  27  31
BRANCH  29  41
HETATM   41  C   UNK N   1      19.685  14.689   5.310  0.00  0.00     0.020 C 
HETATM   42  C   UNK N   1      18.508  15.649   5.227  0.00  0.00     0.015 C 
HETATM   43  C   UNK N   1      19.731  13.827   4.079  0.00  0.00     0.015 C 
ENDBRANCH  29  41
ENDBRANCH   1  25
TORSDOF 12
ENDMDL
MODEL 9
REMARK VINA RESULT:      -7.0      3.640     12.254
REMARK  12 active torsions:
REMARK  status: ('A' for Active; 'I' for Inactive)
REMARK    1  A    between atoms: C_2  and  C_4 
REMARK    2  A    between atoms: C_5  and  C_31 
REMARK    3  A    between atoms: C_8  and  N_9 
REMARK       I    between atoms: N_9  and  C_10 
REMARK    4  A    between atoms: C_10  and  C_12 
REMARK    5  A    between atoms: C_14  and  N_15 
REMARK       I    between atoms: N_15  and  C_16 
REMARK    6  A    between atoms: C_16  and  C_18 
REMARK    7  A    between atoms: C_20  and  N_21 
REMARK    8  A    between atoms: N_21  and  C_22 
REMARK       I    between atoms: C_31  and  N_33 
REMARK    9  A    between atoms: N_33  and  C_34 
REMARK   10  A    between atoms: C_34  and  C_35 
REMARK   11  A    between atoms: C_35  and  C_36 
REMARK   12  A    between atoms: C_36  and  N_37 
ROOT
HETATM    1  N   UNK N   1      32.159  16.331   9.164  0.00  0.00    -0.302 N 
HETATM    2  C   UNK N   1      32.780  15.130   9.315  0.00  0.00     0.274 C 
HETATM    3  O   UNK N   1      32.237  14.092   8.941  0.00  0.00    -0.266 OA
HETATM    4  H   UNK N   1      32.344  17.076   9.779  0.00  0.00     0.171 HD
ENDROOT
BRANCH   2   5
HETATM    5  C   UNK N   1      34.126  15.073   9.839  0.00  0.00     0.105 A 
HETATM    6  C   UNK N   1      34.372  15.178  11.166  0.00  0.00     0.066 A 
HETATM    7  C   UNK N   1      35.717  14.945  11.309  0.00  0.00     0.053 A 
HETATM    8  C   UNK N   1      36.263  14.743  10.057  0.00  0.00     0.120 A 
HETATM    9  N   UNK N   1      35.268  14.859   9.161  0.00  0.00    -0.354 N 
HETATM   10  C   UNK N   1      35.417  14.669   7.725  0.00  0.00     0.156 C 
BRANCH   7  11
HETATM   11  N   UNK N   1      36.209  14.342  12.486  0.00  0.00    -0.320 N 
HETATM   12  C   UNK N   1      35.712  13.108  12.806  0.00  0.00     0.273 C 
HETATM   13  O   UNK N   1      35.012  12.494  12.010  0.00  0.00    -0.266 OA
HETATM   14  H   UNK N   1      36.878  14.790  13.053  0.00  0.00     0.169 HD
BRANCH  12  15
HETATM   15  C   UNK N   1      35.895  12.519  14.114  0.00  0.00     0.105 A 
HETATM   16  C   UNK N   1      35.150  12.936  15.193  0.00  0.00     0.066 A 
HETATM   17  C   UNK N   1      35.646  12.240  16.253  0.00  0.00     0.052 A 
HETATM   18  C   UNK N   1      36.662  11.406  15.807  0.00  0.00     0.120 A 
HETATM   19  N   UNK N   1      36.797  11.594  14.481  0.00  0.00    -0.354 N 
HETATM   20  C   UNK N   1      37.747  10.904  13.623  0.00  0.00     0.156 C 
BRANCH  17  21
HETATM   21  N   UNK N   1      35.217  12.445  17.580  0.00  0.00    -0.333 N 
HETATM   22  H   UNK N   1      34.860  11.683  18.091  0.00  0.00     0.168 HD
BRANCH  21  23
HETATM   23  C   UNK N   1      35.281  13.652  18.168  0.00  0.00     0.353 C 
HETATM   24  O   UNK N   1      35.008  13.762  19.350  0.00  0.00    -0.283 OA
ENDBRANCH  21  23
ENDBRANCH  17  21
ENDBRANCH  12  15
ENDBRANCH   7  11
ENDBRANCH   2   5
BRANCH   1  25
HETATM   25  C   UNK N   1      31.246  16.477   8.106  0.00  0.00     0.152 A 
HETATM   26  N   UNK N   1      31.218  15.794   6.936  0.00  0.00    -0.331 N 
HETATM   27  C   UNK N   1      30.219  16.281   6.100  0.00  0.00     0.116 A 
ATOM     28  HN  UNK N   1      31.846  15.025   6.700  1.00  0.00     0.168 HD
HETATM   29  C   UNK N   1      29.443  17.348   6.678  0.00  0.00     0.022 A 
HETATM   30  S   UNK N   1      30.049  17.574   8.161  0.00  0.00    -0.056 SA
BRANCH  27  31
HETATM   31  C   UNK N   1      30.047  15.761   4.708  0.00  0.00     0.269 C 
HETATM   32  O   UNK N   1      29.267  14.851   4.509  0.00  0.00    -0.266 OA
HETATM   33  N   UNK N   1      30.715  16.266   3.638  0.00  0.00    -0.356 N 
HETATM   34  H   UNK N   1      30.478  15.917   2.749  0.00  0.00     0.162 HD
BRANCH  33  35
HETATM   35  C   UNK N   1      31.742  17.273   3.704  0.00  0.00     0.125 C 
BRANCH  35  36
HETATM   36  C   UNK N   1      33.112  16.618   3.878  0.00  0.00     0.050 C 
BRANCH  36  37
HETATM   37  C   UNK N   1      33.559  15.751   2.690  0.00  0.00     0.273 C 
BRANCH  37  38
HETATM   38  N   UNK N   1      33.486  14.317   2.963  0.00  0.00     0.080 N 
HETATM   39  C   UNK N   1      33.671  14.157   4.395  0.00  0.00     0.309 C 
HETATM   40  C   UNK N   1      34.612  13.644   2.331  0.00  0.00     0.309 C 
ENDBRANCH  37  38
ENDBRANCH  36  37
ENDBRANCH  35  36
ENDBRANCH  33  35
ENDBRANCH  27  31
BRANCH  29  41
HETATM   41  C   UNK N   1      28.289  18.221   6.267  0.00  0.00     0.020 C 
HETATM   42  C   UNK N   1      28.010  19.268   7.336  0.00  0.00     0.015 C 
HETATM   43  C   UNK N   1      28.336  18.874   4.913  0.00  0.00     0.015 C 
ENDBRANCH  29  41
ENDBRANCH   1  25
TORSDOF 12
ENDMDL
