MODEL 1
REMARK VINA RESULT:      -4.6      0.000      0.000
REMARK  3 active torsions:
REMARK  status: ('A' for Active; 'I' for Inactive)
REMARK    1  A    between atoms: N_1  and  C_2 
REMARK    2  A    between atoms: C_5  and  C_8 
REMARK    3  A    between atoms: C_8  and  O_9 
ROOT
HETATM    1  C   UNK N   1      21.187  12.149  11.394  0.00  0.00     0.025 A 
HETATM    2  C   UNK N   1      22.377  11.715  11.984  0.00  0.00     0.030 A 
HETATM    3  C   UNK N   1      23.606  12.093  11.437  0.00  0.00     0.020 A 
HETATM    4  C   UNK N   1      23.647  12.907  10.297  0.00  0.00     0.037 A 
HETATM    5  C   UNK N   1      22.450  13.340   9.710  0.00  0.00     0.020 A 
HETATM    6  C   UNK N   1      21.223  12.961  10.259  0.00  0.00     0.030 A 
ENDROOT
BRANCH   4   7
HETATM    7  C   UNK N   1      24.942  13.304   9.722  0.00  0.00     0.176 C 
HETATM    8  O   UNK N   1      25.127  13.240   8.519  0.00  0.00    -0.646 OA
BRANCH   7   9
HETATM    9  O   UNK N   1      25.930  13.742  10.526  0.00  0.00    -0.773 OA
HETATM   10  H   UNK N   1      26.821  13.518  10.338  0.00  0.00     0.167 HD
ENDBRANCH   7   9
ENDBRANCH   4   7
BRANCH   1  11
HETATM   11  N   UNK N   1      19.951  11.768  11.947  0.00  0.00    -0.399 N 
HETATM   12  H   UNK N   1      19.502  10.950  11.632  0.00  0.00     0.156 HD
HETATM   13  H   UNK N   1      19.534  12.319  12.647  0.00  0.00     0.156 HD
ENDBRANCH   1  11
TORSDOF 3
ENDMDL
MODEL 2
REMARK VINA RESULT:      -4.6     20.006     21.072
REMARK  3 active torsions:
REMARK  status: ('A' for Active; 'I' for Inactive)
REMARK    1  A    between atoms: N_1  and  C_2 
REMARK    2  A    between atoms: C_5  and  C_8 
REMARK    3  A    between atoms: C_8  and  O_9 
ROOT
HETATM    1  C   UNK N   1      25.550  25.199  -5.311  0.00  0.00     0.025 A 
HETATM    2  C   UNK N   1      25.078  26.413  -5.817  0.00  0.00     0.030 A 
HETATM    3  C   UNK N   1      25.367  27.606  -5.152  0.00  0.00     0.020 A 
HETATM    4  C   UNK N   1      26.130  27.589  -3.976  0.00  0.00     0.037 A 
HETATM    5  C   UNK N   1      26.600  26.368  -3.473  0.00  0.00     0.020 A 
HETATM    6  C   UNK N   1      26.310  25.176  -4.140  0.00  0.00     0.030 A 
ENDROOT
BRANCH   4   7
HETATM    7  C   UNK N   1      26.434  28.846  -3.276  0.00  0.00     0.176 C 
HETATM    8  O   UNK N   1      27.138  28.843  -2.281  0.00  0.00    -0.646 OA
BRANCH   7   9
HETATM    9  O   UNK N   1      25.933  30.011  -3.735  0.00  0.00    -0.773 OA
HETATM   10  H   UNK N   1      25.088  30.301  -3.452  0.00  0.00     0.167 HD
ENDBRANCH   7   9
ENDBRANCH   4   7
BRANCH   1  11
HETATM   11  N   UNK N   1      25.258  23.997  -5.982  0.00  0.00    -0.399 N 
HETATM   12  H   UNK N   1      25.413  23.925  -6.952  0.00  0.00     0.156 HD
HETATM   13  H   UNK N   1      24.898  23.230  -5.483  0.00  0.00     0.156 HD
ENDBRANCH   1  11
TORSDOF 3
ENDMDL
MODEL 3
REMARK VINA RESULT:      -4.6     10.608     11.815
REMARK  3 active torsions:
REMARK  status: ('A' for Active; 'I' for Inactive)
REMARK    1  A    between atoms: N_1  and  C_2 
REMARK    2  A    between atoms: C_5  and  C_8 
REMARK    3  A    between atoms: C_8  and  O_9 
ROOT
HETATM    1  C   UNK N   1      31.477  17.025   5.821  0.00  0.00     0.025 A 
HETATM    2  C   UNK N   1      32.793  17.219   5.393  0.00  0.00     0.030 A 
HETATM    3  C   UNK N   1      33.780  17.581   6.313  0.00  0.00     0.020 A 
HETATM    4  C   UNK N   1      33.453  17.750   7.665  0.00  0.00     0.037 A 
HETATM    5  C   UNK N   1      32.131  17.554   8.088  0.00  0.00     0.020 A 
HETATM    6  C   UNK N   1      31.146  17.192   7.168  0.00  0.00     0.030 A 
ENDROOT
BRANCH   4   7
HETATM    7  C   UNK N   1      34.493  18.132   8.633  0.00  0.00     0.176 C 
HETATM    8  O   UNK N   1      35.228  19.077   8.407  0.00  0.00    -0.646 OA
BRANCH   7   9
HETATM    9  O   UNK N   1      34.637  17.435   9.777  0.00  0.00    -0.773 OA
HETATM   10  H   UNK N   1      35.241  16.719   9.817  0.00  0.00     0.167 HD
ENDBRANCH   7   9
ENDBRANCH   4   7
BRANCH   1  11
HETATM   11  N   UNK N   1      30.484  16.660   4.894  0.00  0.00    -0.399 N 
HETATM   12  H   UNK N   1      30.411  17.139   4.037  0.00  0.00     0.156 HD
HETATM   13  H   UNK N   1      29.863  15.926   5.102  0.00  0.00     0.156 HD
ENDBRANCH   1  11
TORSDOF 3
ENDMDL
MODEL 4
REMARK VINA RESULT:      -4.6     20.018     21.036
REMARK  3 active torsions:
REMARK  status: ('A' for Active; 'I' for Inactive)
REMARK    1  A    between atoms: N_1  and  C_2 
REMARK    2  A    between atoms: C_5  and  C_8 
REMARK    3  A    between atoms: C_8  and  O_9 
ROOT
HETATM    1  C   UNK N   1      25.571  25.231  -5.300  0.00  0.00     0.025 A 
HETATM    2  C   UNK N   1      26.313  25.210  -4.116  0.00  0.00     0.030 A 
HETATM    3  C   UNK N   1      26.601  26.405  -3.452  0.00  0.00     0.020 A 
HETATM    4  C   UNK N   1      26.146  27.625  -3.970  0.00  0.00     0.037 A 
HETATM    5  C   UNK N   1      25.401  27.639  -5.158  0.00  0.00     0.020 A 
HETATM    6  C   UNK N   1      25.115  26.444  -5.821  0.00  0.00     0.030 A 
ENDROOT
BRANCH   4   7
HETATM    7  C   UNK N   1      26.449  28.882  -3.269  0.00  0.00     0.176 C 
HETATM    8  O   UNK N   1      27.179  28.883  -2.293  0.00  0.00    -0.646 OA
BRANCH   7   9
HETATM    9  O   UNK N   1      25.919  30.042  -3.706  0.00  0.00    -0.773 OA
HETATM   10  H   UNK N   1      25.254  30.471  -3.205  0.00  0.00     0.167 HD
ENDBRANCH   7   9
ENDBRANCH   4   7
BRANCH   1  11
HETATM   11  N   UNK N   1      25.282  24.027  -5.968  0.00  0.00    -0.399 N 
HETATM   12  H   UNK N   1      25.588  23.893  -6.895  0.00  0.00     0.156 HD
HETATM   13  H   UNK N   1      24.775  23.319  -5.510  0.00  0.00     0.156 HD
ENDBRANCH   1  11
TORSDOF 3
ENDMDL
MODEL 5
REMARK VINA RESULT:      -4.6     13.690     14.305
REMARK  3 active torsions:
REMARK  status: ('A' for Active; 'I' for Inactive)
REMARK    1  A    between atoms: N_1  and  C_2 
REMARK    2  A    between atoms: C_5  and  C_8 
REMARK    3  A    between atoms: C_8  and  O_9 
ROOT
HETATM    1  C   UNK N   1      35.285  11.984  19.168  0.00  0.00     0.025 A 
HETATM    2  C   UNK N   1      35.608  11.062  18.169  0.00  0.00     0.030 A 
HETATM    3  C   UNK N   1      35.776  11.492  16.851  0.00  0.00     0.020 A 
HETATM    4  C   UNK N   1      35.622  12.846  16.528  0.00  0.00     0.037 A 
HETATM    5  C   UNK N   1      35.297  13.766  17.535  0.00  0.00     0.020 A 
HETATM    6  C   UNK N   1      35.130  13.335  18.852  0.00  0.00     0.030 A 
ENDROOT
BRANCH   4   7
HETATM    7  C   UNK N   1      35.799  13.297  15.139  0.00  0.00     0.176 C 
HETATM    8  O   UNK N   1      34.841  13.378  14.390  0.00  0.00    -0.646 OA
BRANCH   7   9
HETATM    9  O   UNK N   1      37.026  13.625  14.689  0.00  0.00    -0.773 OA
HETATM   10  H   UNK N   1      37.478  13.051  14.102  0.00  0.00     0.167 HD
ENDBRANCH   7   9
ENDBRANCH   4   7
BRANCH   1  11
HETATM   11  N   UNK N   1      35.116  11.549  20.496  0.00  0.00    -0.399 N 
HETATM   12  H   UNK N   1      35.236  12.183  21.240  0.00  0.00     0.156 HD
HETATM   13  H   UNK N   1      34.877  10.613  20.680  0.00  0.00     0.156 HD
ENDBRANCH   1  11
TORSDOF 3
ENDMDL
MODEL 6
REMARK VINA RESULT:      -4.6     11.432     12.404
REMARK  3 active torsions:
REMARK  status: ('A' for Active; 'I' for Inactive)
REMARK    1  A    between atoms: N_1  and  C_2 
REMARK    2  A    between atoms: C_5  and  C_8 
REMARK    3  A    between atoms: C_8  and  O_9 
ROOT
HETATM    1  C   UNK N   1      34.448  14.852  10.860  0.00  0.00     0.025 A 
HETATM    2  C   UNK N   1      33.672  14.881   9.699  0.00  0.00     0.030 A 
HETATM    3  C   UNK N   1      33.733  15.985   8.845  0.00  0.00     0.020 A 
HETATM    4  C   UNK N   1      34.572  17.065   9.151  0.00  0.00     0.037 A 
HETATM    5  C   UNK N   1      35.349  17.030  10.318  0.00  0.00     0.020 A 
HETATM    6  C   UNK N   1      35.286  15.926  11.169  0.00  0.00     0.030 A 
ENDROOT
BRANCH   4   7
HETATM    7  C   UNK N   1      34.635  18.227   8.251  0.00  0.00     0.176 C 
HETATM    8  O   UNK N   1      34.039  18.217   7.189  0.00  0.00    -0.646 OA
BRANCH   7   9
HETATM    9  O   UNK N   1      35.356  19.311   8.601  0.00  0.00    -0.773 OA
HETATM   10  H   UNK N   1      35.269  19.674   9.460  0.00  0.00     0.167 HD
ENDBRANCH   7   9
ENDBRANCH   4   7
BRANCH   1  11
HETATM   11  N   UNK N   1      34.386  13.740  11.719  0.00  0.00    -0.399 N 
HETATM   12  H   UNK N   1      35.196  13.435  12.189  0.00  0.00     0.156 HD
HETATM   13  H   UNK N   1      33.533  13.267  11.850  0.00  0.00     0.156 HD
ENDBRANCH   1  11
TORSDOF 3
ENDMDL
MODEL 7
REMARK VINA RESULT:      -4.5      2.573      3.169
REMARK  3 active torsions:
REMARK  status: ('A' for Active; 'I' for Inactive)
REMARK    1  A    between atoms: N_1  and  C_2 
REMARK    2  A    between atoms: C_5  and  C_8 
REMARK    3  A    between atoms: C_8  and  O_9 
ROOT
HETATM    1  C   UNK N   1      21.649  12.477   8.046  0.00  0.00     0.025 A 
HETATM    2  C   UNK N   1      22.778  11.661   8.151  0.00  0.00     0.030 A 
HETATM    3  C   UNK N   1      23.425  11.520   9.382  0.00  0.00     0.020 A 
HETATM    4  C   UNK N   1      22.944  12.195  10.511  0.00  0.00     0.037 A 
HETATM    5  C   UNK N   1      21.810  13.013  10.399  0.00  0.00     0.020 A 
HETATM    6  C   UNK N   1      21.165  13.153   9.169  0.00  0.00     0.030 A 
ENDROOT
BRANCH   4   7
HETATM    7  C   UNK N   1      23.625  12.045  11.805  0.00  0.00     0.176 C 
HETATM    8  O   UNK N   1      22.989  11.780  12.810  0.00  0.00    -0.646 OA
BRANCH   7   9
HETATM    9  O   UNK N   1      24.962  12.201  11.885  0.00  0.00    -0.773 OA
HETATM   10  H   UNK N   1      25.455  12.411  11.117  0.00  0.00     0.167 HD
ENDBRANCH   7   9
ENDBRANCH   4   7
BRANCH   1  11
HETATM   11  N   UNK N   1      20.999  12.619   6.807  0.00  0.00    -0.399 N 
HETATM   12  H   UNK N   1      20.761  11.821   6.282  0.00  0.00     0.156 HD
HETATM   13  H   UNK N   1      20.781  13.516   6.465  0.00  0.00     0.156 HD
ENDBRANCH   1  11
TORSDOF 3
ENDMDL
MODEL 8
REMARK VINA RESULT:      -4.4     19.928     20.676
REMARK  3 active torsions:
REMARK  status: ('A' for Active; 'I' for Inactive)
REMARK    1  A    between atoms: N_1  and  C_2 
REMARK    2  A    between atoms: C_5  and  C_8 
REMARK    3  A    between atoms: C_8  and  O_9 
ROOT
HETATM    1  C   UNK N   1      25.782  27.409  -4.097  0.00  0.00     0.025 A 
HETATM    2  C   UNK N   1      25.228  27.202  -5.363  0.00  0.00     0.030 A 
HETATM    3  C   UNK N   1      25.347  25.955  -5.981  0.00  0.00     0.020 A 
HETATM    4  C   UNK N   1      26.020  24.911  -5.335  0.00  0.00     0.037 A 
HETATM    5  C   UNK N   1      26.574  25.125  -4.064  0.00  0.00     0.020 A 
HETATM    6  C   UNK N   1      26.454  26.372  -3.448  0.00  0.00     0.030 A 
ENDROOT
BRANCH   4   7
HETATM    7  C   UNK N   1      26.145  23.599  -5.987  0.00  0.00     0.176 C 
HETATM    8  O   UNK N   1      27.244  23.138  -6.240  0.00  0.00    -0.646 OA
BRANCH   7   9
HETATM    9  O   UNK N   1      25.039  22.898  -6.308  0.00  0.00    -0.773 OA
HETATM   10  H   UNK N   1      24.851  22.092  -5.869  0.00  0.00     0.167 HD
ENDBRANCH   7   9
ENDBRANCH   4   7
BRANCH   1  11
HETATM   11  N   UNK N   1      25.662  28.666  -3.475  0.00  0.00    -0.399 N 
HETATM   12  H   UNK N   1      26.166  29.437  -3.822  0.00  0.00     0.156 HD
HETATM   13  H   UNK N   1      25.073  28.773  -2.694  0.00  0.00     0.156 HD
ENDBRANCH   1  11
TORSDOF 3
ENDMDL
MODEL 9
REMARK VINA RESULT:      -4.4      9.922     10.924
REMARK  3 active torsions:
REMARK  status: ('A' for Active; 'I' for Inactive)
REMARK    1  A    between atoms: N_1  and  C_2 
REMARK    2  A    between atoms: C_5  and  C_8 
REMARK    3  A    between atoms: C_8  and  O_9 
ROOT
HETATM    1  C   UNK N   1      19.860  16.504   2.602  0.00  0.00     0.025 A 
HETATM    2  C   UNK N   1      20.070  17.527   3.531  0.00  0.00     0.030 A 
HETATM    3  C   UNK N   1      20.425  18.805   3.093  0.00  0.00     0.020 A 
HETATM    4  C   UNK N   1      20.572  19.064   1.724  0.00  0.00     0.037 A 
HETATM    5  C   UNK N   1      20.360  18.033   0.797  0.00  0.00     0.020 A 
HETATM    6  C   UNK N   1      20.005  16.757   1.237  0.00  0.00     0.030 A 
ENDROOT
BRANCH   4   7
HETATM    7  C   UNK N   1      20.946  20.410   1.264  0.00  0.00     0.176 C 
HETATM    8  O   UNK N   1      21.412  21.221   2.046  0.00  0.00    -0.646 OA
BRANCH   7   9
HETATM    9  O   UNK N   1      20.776  20.752  -0.028  0.00  0.00    -0.773 OA
HETATM   10  H   UNK N   1      21.512  21.015  -0.544  0.00  0.00     0.167 HD
ENDBRANCH   7   9
ENDBRANCH   4   7
BRANCH   1  11
HETATM   11  N   UNK N   1      19.502  15.217   3.044  0.00  0.00    -0.399 N 
HETATM   12  H   UNK N   1      18.596  15.051   3.392  0.00  0.00     0.156 HD
HETATM   13  H   UNK N   1      20.157  14.484   3.006  0.00  0.00     0.156 HD
ENDBRANCH   1  11
TORSDOF 3
ENDMDL
