MODEL 1
REMARK VINA RESULT:      -5.0      0.000      0.000
REMARK  4 active torsions:
REMARK  status: ('A' for Active; 'I' for Inactive)
REMARK    1  A    between atoms: C_7  and  C_4 
REMARK    2  A    between atoms: C_5  and  O_9 
REMARK    3  A    between atoms: C_6  and  N_8 
REMARK    4  A    between atoms: O_10  and  C_7 
ROOT
HETATM    1  C   UNK N   1      21.654  18.290   4.529  0.00  0.00    -0.001 C 
HETATM    2  C   UNK N   1      21.399  19.360   3.536  0.00  0.00     0.016 C 
HETATM    3  C   UNK N   1      21.145  17.064   4.354  0.00  0.00     0.007 C 
HETATM    4  C   UNK N   1      20.829  19.089   2.342  0.00  0.00     0.040 C 
HETATM    5  C   UNK N   1      20.145  16.815   3.261  0.00  0.00     0.168 C 
HETATM    6  C   UNK N   1      20.471  17.644   1.997  0.00  0.00     0.147 C 
ENDROOT
BRANCH   4   7
HETATM    7  C   UNK N   1      20.784  20.167   1.315  0.00  0.00     0.174 C 
HETATM    8  O   UNK N   1      20.925  21.335   1.639  0.00  0.00    -0.646 OA
BRANCH   7   9
HETATM    9  O   UNK N   1      20.621  19.862   0.012  0.00  0.00    -0.773 OA
HETATM   10  H   UNK N   1      20.322  19.010  -0.237  0.00  0.00     0.167 HD
ENDBRANCH   7   9
ENDBRANCH   4   7
BRANCH   6  11
HETATM   11  N   UNK N   1      19.335  17.579   1.087  0.00  0.00    -0.420 N 
HETATM   12  H   UNK N   1      18.550  16.927   1.091  0.00  0.00     0.150 HD
HETATM   13  H   UNK N   1      19.323  18.281   0.346  0.00  0.00     0.150 HD
ENDBRANCH   6  11
BRANCH   5  14
HETATM   14  O   UNK N   1      18.886  17.173   3.751  0.00  0.00    -0.389 OA
HETATM   15  H   UNK N   1      18.056  17.245   4.248  0.00  0.00     0.210 HD
ENDBRANCH   5  14
TORSDOF 4
ENDMDL
MODEL 2
REMARK VINA RESULT:      -4.9      7.895      8.999
REMARK  4 active torsions:
REMARK  status: ('A' for Active; 'I' for Inactive)
REMARK    1  A    between atoms: C_7  and  C_4 
REMARK    2  A    between atoms: C_5  and  O_9 
REMARK    3  A    between atoms: C_6  and  N_8 
REMARK    4  A    between atoms: O_10  and  C_7 
ROOT
HETATM    1  C   UNK N   1      28.252  18.829   4.639  0.00  0.00    -0.001 C 
HETATM    2  C   UNK N   1      28.454  18.379   6.036  0.00  0.00     0.016 C 
HETATM    3  C   UNK N   1      27.421  19.842   4.364  0.00  0.00     0.007 C 
HETATM    4  C   UNK N   1      27.978  19.092   7.080  0.00  0.00     0.040 C 
HETATM    5  C   UNK N   1      26.533  20.398   5.440  0.00  0.00     0.168 C 
HETATM    6  C   UNK N   1      27.245  20.405   6.813  0.00  0.00     0.147 C 
ENDROOT
BRANCH   4   7
HETATM    7  C   UNK N   1      28.386  18.695   8.456  0.00  0.00     0.174 C 
HETATM    8  O   UNK N   1      29.548  18.801   8.811  0.00  0.00    -0.646 OA
BRANCH   7   9
HETATM    9  O   UNK N   1      27.469  18.248   9.338  0.00  0.00    -0.773 OA
HETATM   10  H   UNK N   1      27.115  18.829   9.982  0.00  0.00     0.167 HD
ENDBRANCH   7   9
ENDBRANCH   4   7
BRANCH   6  11
HETATM   11  N   UNK N   1      26.261  20.687   7.851  0.00  0.00    -0.420 N 
HETATM   12  H   UNK N   1      25.598  21.460   7.909  0.00  0.00     0.150 HD
HETATM   13  H   UNK N   1      26.233  20.021   8.623  0.00  0.00     0.150 HD
ENDBRANCH   6  11
BRANCH   5  14
HETATM   14  O   UNK N   1      25.392  19.594   5.503  0.00  0.00    -0.389 OA
HETATM   15  H   UNK N   1      24.677  18.961   5.331  0.00  0.00     0.210 HD
ENDBRANCH   5  14
TORSDOF 4
ENDMDL
MODEL 3
REMARK VINA RESULT:      -4.9     12.825     13.635
REMARK  4 active torsions:
REMARK  status: ('A' for Active; 'I' for Inactive)
REMARK    1  A    between atoms: C_7  and  C_4 
REMARK    2  A    between atoms: C_5  and  O_9 
REMARK    3  A    between atoms: C_6  and  N_8 
REMARK    4  A    between atoms: O_10  and  C_7 
ROOT
HETATM    1  C   UNK N   1      32.853  17.360   5.065  0.00  0.00    -0.001 C 
HETATM    2  C   UNK N   1      33.801  17.571   6.183  0.00  0.00     0.016 C 
HETATM    3  C   UNK N   1      31.568  17.069   5.307  0.00  0.00     0.007 C 
HETATM    4  C   UNK N   1      33.371  17.679   7.459  0.00  0.00     0.040 C 
HETATM    5  C   UNK N   1      31.122  16.753   6.706  0.00  0.00     0.168 C 
HETATM    6  C   UNK N   1      31.872  17.615   7.748  0.00  0.00     0.147 C 
ENDROOT
BRANCH   4   7
HETATM    7  C   UNK N   1      34.348  18.088   8.506  0.00  0.00     0.174 C 
HETATM    8  O   UNK N   1      35.052  19.071   8.344  0.00  0.00    -0.646 OA
BRANCH   7   9
HETATM    9  O   UNK N   1      34.439  17.399   9.661  0.00  0.00    -0.773 OA
HETATM   10  H   UNK N   1      33.819  17.549  10.347  0.00  0.00     0.167 HD
ENDBRANCH   7   9
ENDBRANCH   4   7
BRANCH   6  11
HETATM   11  N   UNK N   1      31.609  17.080   9.077  0.00  0.00    -0.420 N 
HETATM   12  H   UNK N   1      30.902  16.403   9.364  0.00  0.00     0.150 HD
HETATM   13  H   UNK N   1      32.212  17.431   9.822  0.00  0.00     0.150 HD
ENDBRANCH   6  11
BRANCH   5  14
HETATM   14  O   UNK N   1      31.381  15.399   6.936  0.00  0.00    -0.389 OA
HETATM   15  H   UNK N   1      31.322  14.445   7.101  0.00  0.00     0.210 HD
ENDBRANCH   5  14
TORSDOF 4
ENDMDL
MODEL 4
REMARK VINA RESULT:      -4.8      8.753     10.100
REMARK  4 active torsions:
REMARK  status: ('A' for Active; 'I' for Inactive)
REMARK    1  A    between atoms: C_7  and  C_4 
REMARK    2  A    between atoms: C_5  and  O_9 
REMARK    3  A    between atoms: C_6  and  N_8 
REMARK    4  A    between atoms: O_10  and  C_7 
ROOT
HETATM    1  C   UNK N   1      24.366  12.976   9.549  0.00  0.00    -0.001 C 
HETATM    2  C   UNK N   1      23.117  13.765   9.447  0.00  0.00     0.016 C 
HETATM    3  C   UNK N   1      24.440  11.920  10.370  0.00  0.00     0.007 C 
HETATM    4  C   UNK N   1      21.966  13.335  10.008  0.00  0.00     0.040 C 
HETATM    5  C   UNK N   1      23.328  11.648  11.343  0.00  0.00     0.168 C 
HETATM    6  C   UNK N   1      21.948  11.992  10.736  0.00  0.00     0.147 C 
ENDROOT
BRANCH   4   7
HETATM    7  C   UNK N   1      20.707  14.068   9.701  0.00  0.00     0.174 C 
HETATM    8  O   UNK N   1      19.623  13.548   9.907  0.00  0.00    -0.646 OA
BRANCH   7   9
HETATM    9  O   UNK N   1      20.750  15.328   9.224  0.00  0.00    -0.773 OA
HETATM   10  H   UNK N   1      21.342  15.951   9.597  0.00  0.00     0.167 HD
ENDBRANCH   7   9
ENDBRANCH   4   7
BRANCH   6  11
HETATM   11  N   UNK N   1      20.951  11.974  11.798  0.00  0.00    -0.420 N 
HETATM   12  H   UNK N   1      20.210  11.293  11.968  0.00  0.00     0.150 HD
HETATM   13  H   UNK N   1      21.000  12.748  12.462  0.00  0.00     0.150 HD
ENDBRANCH   6  11
BRANCH   5  14
HETATM   14  O   UNK N   1      23.557  12.434  12.476  0.00  0.00    -0.389 OA
HETATM   15  H   UNK N   1      23.937  12.995  13.170  0.00  0.00     0.210 HD
ENDBRANCH   5  14
TORSDOF 4
ENDMDL
MODEL 5
REMARK VINA RESULT:      -4.7     21.477     22.196
REMARK  4 active torsions:
REMARK  status: ('A' for Active; 'I' for Inactive)
REMARK    1  A    between atoms: C_7  and  C_4 
REMARK    2  A    between atoms: C_5  and  O_9 
REMARK    3  A    between atoms: C_6  and  N_8 
REMARK    4  A    between atoms: O_10  and  C_7 
ROOT
HETATM    1  C   UNK N   1      42.099  19.489   2.707  0.00  0.00    -0.001 C 
HETATM    2  C   UNK N   1      42.868  20.469   3.509  0.00  0.00     0.016 C 
HETATM    3  C   UNK N   1      41.229  19.903   1.777  0.00  0.00     0.007 C 
HETATM    4  C   UNK N   1      42.874  21.783   3.196  0.00  0.00     0.040 C 
HETATM    5  C   UNK N   1      40.874  21.360   1.678  0.00  0.00     0.168 C 
HETATM    6  C   UNK N   1      42.097  22.261   1.971  0.00  0.00     0.147 C 
ENDROOT
BRANCH   4   7
HETATM    7  C   UNK N   1      43.821  22.681   3.914  0.00  0.00     0.174 C 
HETATM    8  O   UNK N   1      44.948  22.300   4.185  0.00  0.00    -0.646 OA
BRANCH   7   9
HETATM    9  O   UNK N   1      43.456  23.936   4.242  0.00  0.00    -0.773 OA
HETATM   10  H   UNK N   1      43.254  24.556   3.570  0.00  0.00     0.167 HD
ENDBRANCH   7   9
ENDBRANCH   4   7
BRANCH   6  11
HETATM   11  N   UNK N   1      41.639  23.635   2.134  0.00  0.00    -0.420 N 
HETATM   12  H   UNK N   1      40.704  24.017   1.991  0.00  0.00     0.150 HD
HETATM   13  H   UNK N   1      42.349  24.305   2.429  0.00  0.00     0.150 HD
ENDBRANCH   6  11
BRANCH   5  14
HETATM   14  O   UNK N   1      39.864  21.613   2.610  0.00  0.00    -0.389 OA
HETATM   15  H   UNK N   1      39.340  21.748   3.415  0.00  0.00     0.210 HD
ENDBRANCH   5  14
TORSDOF 4
ENDMDL
MODEL 6
REMARK VINA RESULT:      -4.6     19.067     20.193
REMARK  4 active torsions:
REMARK  status: ('A' for Active; 'I' for Inactive)
REMARK    1  A    between atoms: C_7  and  C_4 
REMARK    2  A    between atoms: C_5  and  O_9 
REMARK    3  A    between atoms: C_6  and  N_8 
REMARK    4  A    between atoms: O_10  and  C_7 
ROOT
HETATM    1  C   UNK N   1      33.933  11.296  14.753  0.00  0.00    -0.001 C 
HETATM    2  C   UNK N   1      34.605  12.370  15.521  0.00  0.00     0.016 C 
HETATM    3  C   UNK N   1      34.241  11.084  13.467  0.00  0.00     0.007 C 
HETATM    4  C   UNK N   1      35.676  13.025  15.024  0.00  0.00     0.040 C 
HETATM    5  C   UNK N   1      35.118  12.059  12.735  0.00  0.00     0.168 C 
HETATM    6  C   UNK N   1      36.225  12.626  13.655  0.00  0.00     0.147 C 
ENDROOT
BRANCH   4   7
HETATM    7  C   UNK N   1      36.424  13.949  15.921  0.00  0.00     0.174 C 
HETATM    8  O   UNK N   1      35.972  14.250  17.013  0.00  0.00    -0.646 OA
BRANCH   7   9
HETATM    9  O   UNK N   1      37.626  14.435  15.552  0.00  0.00    -0.773 OA
HETATM   10  H   UNK N   1      37.695  15.000  14.808  0.00  0.00     0.167 HD
ENDBRANCH   7   9
ENDBRANCH   4   7
BRANCH   6  11
HETATM   11  N   UNK N   1      36.859  13.754  12.986  0.00  0.00    -0.420 N 
HETATM   12  H   UNK N   1      36.723  14.090  12.032  0.00  0.00     0.150 HD
HETATM   13  H   UNK N   1      37.531  14.279  13.546  0.00  0.00     0.150 HD
ENDBRANCH   6  11
BRANCH   5  14
HETATM   14  O   UNK N   1      34.303  13.099  12.278  0.00  0.00    -0.389 OA
HETATM   15  H   UNK N   1      33.759  13.704  11.751  0.00  0.00     0.210 HD
ENDBRANCH   5  14
TORSDOF 4
ENDMDL
MODEL 7
REMARK VINA RESULT:      -4.5     22.930     23.657
REMARK  4 active torsions:
REMARK  status: ('A' for Active; 'I' for Inactive)
REMARK    1  A    between atoms: C_7  and  C_4 
REMARK    2  A    between atoms: C_5  and  O_9 
REMARK    3  A    between atoms: C_6  and  N_8 
REMARK    4  A    between atoms: O_10  and  C_7 
ROOT
HETATM    1  C   UNK N   1      44.587  20.428   2.161  0.00  0.00    -0.001 C 
HETATM    2  C   UNK N   1      43.924  21.556   1.467  0.00  0.00     0.016 C 
HETATM    3  C   UNK N   1      44.864  20.501   3.469  0.00  0.00     0.007 C 
HETATM    4  C   UNK N   1      43.397  22.593   2.155  0.00  0.00     0.040 C 
HETATM    5  C   UNK N   1      44.690  21.802   4.201  0.00  0.00     0.168 C 
HETATM    6  C   UNK N   1      43.461  22.583   3.681  0.00  0.00     0.147 C 
ENDROOT
BRANCH   4   7
HETATM    7  C   UNK N   1      42.572  23.589   1.418  0.00  0.00     0.174 C 
HETATM    8  O   UNK N   1      42.901  23.962   0.304  0.00  0.00    -0.646 OA
BRANCH   7   9
HETATM    9  O   UNK N   1      41.432  24.065   1.958  0.00  0.00    -0.773 OA
HETATM   10  H   UNK N   1      40.603  23.817   1.599  0.00  0.00     0.167 HD
ENDBRANCH   7   9
ENDBRANCH   4   7
BRANCH   6  11
HETATM   11  N   UNK N   1      43.502  23.936   4.222  0.00  0.00    -0.420 N 
HETATM   12  H   UNK N   1      43.593  24.821   3.722  0.00  0.00     0.150 HD
HETATM   13  H   UNK N   1      43.431  24.008   5.237  0.00  0.00     0.150 HD
ENDBRANCH   6  11
BRANCH   5  14
HETATM   14  O   UNK N   1      45.850  22.556   4.003  0.00  0.00    -0.389 OA
HETATM   15  H   UNK N   1      46.655  23.087   4.106  0.00  0.00     0.210 HD
ENDBRANCH   5  14
TORSDOF 4
ENDMDL
MODEL 8
REMARK VINA RESULT:      -4.4      1.286      3.709
REMARK  4 active torsions:
REMARK  status: ('A' for Active; 'I' for Inactive)
REMARK    1  A    between atoms: C_7  and  C_4 
REMARK    2  A    between atoms: C_5  and  O_9 
REMARK    3  A    between atoms: C_6  and  N_8 
REMARK    4  A    between atoms: O_10  and  C_7 
ROOT
HETATM    1  C   UNK N   1      22.459  19.130   3.378  0.00  0.00    -0.001 C 
HETATM    2  C   UNK N   1      21.779  17.830   3.581  0.00  0.00     0.016 C 
HETATM    3  C   UNK N   1      21.816  20.152   2.799  0.00  0.00     0.007 C 
HETATM    4  C   UNK N   1      20.450  17.693   3.382  0.00  0.00     0.040 C 
HETATM    5  C   UNK N   1      20.471  19.930   2.166  0.00  0.00     0.168 C 
HETATM    6  C   UNK N   1      19.628  18.913   2.972  0.00  0.00     0.147 C 
ENDROOT
BRANCH   4   7
HETATM    7  C   UNK N   1      19.796  16.420   3.795  0.00  0.00     0.174 C 
HETATM    8  O   UNK N   1      20.302  15.346   3.512  0.00  0.00    -0.646 OA
BRANCH   7   9
HETATM    9  O   UNK N   1      18.657  16.439   4.515  0.00  0.00    -0.773 OA
HETATM   10  H   UNK N   1      18.642  16.848   5.358  0.00  0.00     0.167 HD
ENDBRANCH   7   9
ENDBRANCH   4   7
BRANCH   6  11
HETATM   11  N   UNK N   1      18.468  18.532   2.177  0.00  0.00    -0.420 N 
HETATM   12  H   UNK N   1      18.358  17.736   1.548  0.00  0.00     0.150 HD
HETATM   13  H   UNK N   1      17.656  19.144   2.260  0.00  0.00     0.150 HD
ENDBRANCH   6  11
BRANCH   5  14
HETATM   14  O   UNK N   1      20.687  19.447   0.873  0.00  0.00    -0.389 OA
HETATM   15  H   UNK N   1      20.611  19.035  -0.002  0.00  0.00     0.210 HD
ENDBRANCH   5  14
TORSDOF 4
ENDMDL
MODEL 9
REMARK VINA RESULT:      -4.4     12.339     13.123
REMARK  4 active torsions:
REMARK  status: ('A' for Active; 'I' for Inactive)
REMARK    1  A    between atoms: C_7  and  C_4 
REMARK    2  A    between atoms: C_5  and  O_9 
REMARK    3  A    between atoms: C_6  and  N_8 
REMARK    4  A    between atoms: O_10  and  C_7 
ROOT
HETATM    1  C   UNK N   1      29.631  21.689  -5.966  0.00  0.00    -0.001 C 
HETATM    2  C   UNK N   1      29.818  22.683  -4.884  0.00  0.00     0.016 C 
HETATM    3  C   UNK N   1      30.340  20.554  -5.979  0.00  0.00     0.007 C 
HETATM    4  C   UNK N   1      30.545  22.394  -3.783  0.00  0.00     0.040 C 
HETATM    5  C   UNK N   1      31.476  20.368  -5.013  0.00  0.00     0.168 C 
HETATM    6  C   UNK N   1      31.159  21.002  -3.639  0.00  0.00     0.147 C 
ENDROOT
BRANCH   4   7
HETATM    7  C   UNK N   1      30.529  23.357  -2.647  0.00  0.00     0.174 C 
HETATM    8  O   UNK N   1      30.478  22.955  -1.497  0.00  0.00    -0.646 OA
BRANCH   7   9
HETATM    9  O   UNK N   1      30.608  24.684  -2.876  0.00  0.00    -0.773 OA
HETATM   10  H   UNK N   1      30.187  25.285  -2.293  0.00  0.00     0.167 HD
ENDBRANCH   7   9
ENDBRANCH   4   7
BRANCH   6  11
HETATM   11  N   UNK N   1      32.380  21.038  -2.845  0.00  0.00    -0.420 N 
HETATM   12  H   UNK N   1      33.236  21.567  -3.014  0.00  0.00     0.150 HD
HETATM   13  H   UNK N   1      32.380  20.454  -2.009  0.00  0.00     0.150 HD
ENDBRANCH   6  11
BRANCH   5  14
HETATM   14  O   UNK N   1      32.605  20.978  -5.567  0.00  0.00    -0.389 OA
HETATM   15  H   UNK N   1      33.483  21.354  -5.736  0.00  0.00     0.210 HD
ENDBRANCH   5  14
TORSDOF 4
ENDMDL
