MODEL 1
REMARK VINA RESULT:      -5.9      0.000      0.000
REMARK  11 active torsions:
REMARK  status: ('A' for Active; 'I' for Inactive)
REMARK    1  A    between atoms: N_2  and  C_3 
REMARK    2  A    between atoms: N_2  and  C_26 
REMARK    3  A    between atoms: C_3  and  C_4 
REMARK    4  A    between atoms: C_4  and  C_5 
REMARK    5  A    between atoms: C_5  and  C_6 
REMARK    6  A    between atoms: C_6  and  C_7 
REMARK    7  A    between atoms: C_7  and  C_8 
REMARK    8  A    between atoms: C_8  and  O_9 
REMARK    9  A    between atoms: O_9  and  C_10 
REMARK   10  A    between atoms: C_17  and  C_18 
REMARK   11  A    between atoms: C_26  and  C_27 
ROOT
HETATM    1  C   UNK N   1      35.015  15.270  11.270  0.00  0.00     0.071 A 
HETATM    2  C   UNK N   1      33.916  14.693  10.573  0.00  0.00     0.038 A 
HETATM    3  C   UNK N   1      33.343  15.350   9.467  0.00  0.00     0.018 A 
HETATM    4  C   UNK N   1      33.891  16.571   9.081  0.00  0.00     0.011 A 
HETATM    5  C   UNK N   1      34.938  17.130   9.755  0.00  0.00     0.088 A 
HETATM    6  O   UNK N   1      35.284  18.265   9.200  0.00  0.00    -0.321 OA
HETATM    7  C   UNK N   1      34.500  18.491   8.159  0.00  0.00     0.155 A 
HETATM    8  C   UNK N   1      33.594  17.435   8.044  0.00  0.00     0.009 A 
HETATM    9  C   UNK N   1      35.525  16.514  10.856  0.00  0.00     0.074 A 
ENDROOT
BRANCH   1  10
HETATM   10  O   UNK N   1      35.604  14.639  12.313  0.00  0.00    -0.351 OA
BRANCH  10  11
HETATM   11  C   UNK N   1      35.557  13.275  12.500  0.00  0.00     0.175 C 
BRANCH  11  12
HETATM   12  C   UNK N   1      36.956  12.698  12.426  0.00  0.00     0.027 C 
BRANCH  12  13
HETATM   13  C   UNK N   1      37.276  12.313  10.995  0.00  0.00     0.002 C 
BRANCH  13  14
HETATM   14  C   UNK N   1      38.407  13.176  10.472  0.00  0.00     0.002 C 
BRANCH  14  15
HETATM   15  C   UNK N   1      37.907  14.037   9.331  0.00  0.00     0.030 C 
BRANCH  15  16
HETATM   16  C   UNK N   1      38.454  13.525   8.010  0.00  0.00     0.272 C 
BRANCH  16  17
HETATM   17  N   UNK N   1      37.364  13.212   7.102  0.00  0.00     0.087 N 
HETATM   18  C   UNK N   1      37.078  11.796   7.268  0.00  0.00     0.310 C 
BRANCH  17  19
HETATM   19  C   UNK N   1      36.197  13.957   7.552  0.00  0.00     0.298 C 
BRANCH  19  20
HETATM   20  C   UNK N   1      35.720  14.875   6.476  0.00  0.00    -0.007 C 
HETATM   21  C   UNK N   1      35.524  14.413   5.245  0.00  0.00     0.008 C 
ENDBRANCH  19  20
ENDBRANCH  17  19
ENDBRANCH  16  17
ENDBRANCH  15  16
ENDBRANCH  14  15
ENDBRANCH  13  14
ENDBRANCH  12  13
ENDBRANCH  11  12
ENDBRANCH  10  11
ENDBRANCH   1  10
BRANCH   8  22
HETATM   22  C   UNK N   1      32.558  17.302   6.998  0.00  0.00    -0.023 A 
HETATM   23  C   UNK N   1      32.901  17.289   5.637  0.00  0.00     0.013 A 
HETATM   24  C   UNK N   1      31.908  17.167   4.660  0.00  0.00     0.020 A 
HETATM   25  C   UNK N   1      30.566  17.061   5.035  0.00  0.00     0.011 A 
HETATM   26 Br   UNK N   1      29.212  16.896   3.704  0.00  0.00    -0.051 Br
HETATM   27  C   UNK N   1      30.216  17.076   6.387  0.00  0.00     0.020 A 
HETATM   28  C   UNK N   1      31.208  17.194   7.364  0.00  0.00     0.013 A 
ENDBRANCH   8  22
TORSDOF 11
ENDMDL
MODEL 2
REMARK VINA RESULT:      -5.8     14.058     18.211
REMARK  11 active torsions:
REMARK  status: ('A' for Active; 'I' for Inactive)
REMARK    1  A    between atoms: N_2  and  C_3 
REMARK    2  A    between atoms: N_2  and  C_26 
REMARK    3  A    between atoms: C_3  and  C_4 
REMARK    4  A    between atoms: C_4  and  C_5 
REMARK    5  A    between atoms: C_5  and  C_6 
REMARK    6  A    between atoms: C_6  and  C_7 
REMARK    7  A    between atoms: C_7  and  C_8 
REMARK    8  A    between atoms: C_8  and  O_9 
REMARK    9  A    between atoms: O_9  and  C_10 
REMARK   10  A    between atoms: C_17  and  C_18 
REMARK   11  A    between atoms: C_26  and  C_27 
ROOT
HETATM    1  C   UNK N   1      26.592  24.904  -5.089  0.00  0.00     0.071 A 
HETATM    2  C   UNK N   1      27.563  24.290  -5.930  0.00  0.00     0.038 A 
HETATM    3  C   UNK N   1      28.606  23.522  -5.377  0.00  0.00     0.018 A 
HETATM    4  C   UNK N   1      28.646  23.381  -3.991  0.00  0.00     0.011 A 
HETATM    5  C   UNK N   1      27.721  23.978  -3.185  0.00  0.00     0.088 A 
HETATM    6  O   UNK N   1      27.958  23.692  -1.929  0.00  0.00    -0.321 OA
HETATM    7  C   UNK N   1      29.022  22.908  -1.861  0.00  0.00     0.155 A 
HETATM    8  C   UNK N   1      29.495  22.683  -3.154  0.00  0.00     0.009 A 
HETATM    9  C   UNK N   1      26.682  24.751  -3.694  0.00  0.00     0.074 A 
ENDROOT
BRANCH   1  10
HETATM   10  O   UNK N   1      25.560  25.618  -5.601  0.00  0.00    -0.351 OA
BRANCH  10  11
HETATM   11  C   UNK N   1      25.703  26.537  -6.617  0.00  0.00     0.175 C 
BRANCH  11  12
HETATM   12  C   UNK N   1      26.537  27.708  -6.136  0.00  0.00     0.027 C 
BRANCH  12  13
HETATM   13  C   UNK N   1      27.663  27.970  -7.117  0.00  0.00     0.002 C 
BRANCH  13  14
HETATM   14  C   UNK N   1      28.321  29.299  -6.800  0.00  0.00     0.002 C 
BRANCH  14  15
HETATM   15  C   UNK N   1      28.321  29.523  -5.301  0.00  0.00     0.030 C 
BRANCH  15  16
HETATM   16  C   UNK N   1      29.732  29.396  -4.754  0.00  0.00     0.272 C 
BRANCH  16  17
HETATM   17  N   UNK N   1      29.731  28.595  -3.542  0.00  0.00     0.087 N 
HETATM   18  C   UNK N   1      28.559  28.996  -2.780  0.00  0.00     0.310 C 
BRANCH  17  19
HETATM   19  C   UNK N   1      29.549  27.207  -3.940  0.00  0.00     0.298 C 
BRANCH  19  20
HETATM   20  C   UNK N   1      30.708  26.380  -3.489  0.00  0.00    -0.007 C 
HETATM   21  C   UNK N   1      31.455  25.738  -4.381  0.00  0.00     0.008 C 
ENDBRANCH  19  20
ENDBRANCH  17  19
ENDBRANCH  16  17
ENDBRANCH  15  16
ENDBRANCH  14  15
ENDBRANCH  13  14
ENDBRANCH  12  13
ENDBRANCH  11  12
ENDBRANCH  10  11
ENDBRANCH   1  10
BRANCH   8  22
HETATM   22  C   UNK N   1      30.661  21.845  -3.508  0.00  0.00    -0.023 A 
HETATM   23  C   UNK N   1      30.562  20.848  -4.491  0.00  0.00     0.013 A 
HETATM   24  C   UNK N   1      31.673  20.061  -4.811  0.00  0.00     0.020 A 
HETATM   25  C   UNK N   1      32.888  20.262  -4.149  0.00  0.00     0.011 A 
HETATM   26 Br   UNK N   1      34.402  19.189  -4.584  0.00  0.00    -0.051 Br
HETATM   27  C   UNK N   1      32.992  21.250  -3.168  0.00  0.00     0.020 A 
HETATM   28  C   UNK N   1      31.885  22.040  -2.851  0.00  0.00     0.013 A 
ENDBRANCH   8  22
TORSDOF 11
ENDMDL
MODEL 3
REMARK VINA RESULT:      -5.7      2.652      4.555
REMARK  11 active torsions:
REMARK  status: ('A' for Active; 'I' for Inactive)
REMARK    1  A    between atoms: N_2  and  C_3 
REMARK    2  A    between atoms: N_2  and  C_26 
REMARK    3  A    between atoms: C_3  and  C_4 
REMARK    4  A    between atoms: C_4  and  C_5 
REMARK    5  A    between atoms: C_5  and  C_6 
REMARK    6  A    between atoms: C_6  and  C_7 
REMARK    7  A    between atoms: C_7  and  C_8 
REMARK    8  A    between atoms: C_8  and  O_9 
REMARK    9  A    between atoms: O_9  and  C_10 
REMARK   10  A    between atoms: C_17  and  C_18 
REMARK   11  A    between atoms: C_26  and  C_27 
ROOT
HETATM    1  C   UNK N   1      35.031  14.793  10.838  0.00  0.00     0.071 A 
HETATM    2  C   UNK N   1      33.890  14.287  10.153  0.00  0.00     0.038 A 
HETATM    3  C   UNK N   1      33.227  15.071   9.189  0.00  0.00     0.018 A 
HETATM    4  C   UNK N   1      33.728  16.346   8.931  0.00  0.00     0.011 A 
HETATM    5  C   UNK N   1      34.815  16.835   9.595  0.00  0.00     0.088 A 
HETATM    6  O   UNK N   1      35.103  18.041   9.173  0.00  0.00    -0.321 OA
HETATM    7  C   UNK N   1      34.239  18.384   8.231  0.00  0.00     0.155 A 
HETATM    8  C   UNK N   1      33.341  17.332   8.043  0.00  0.00     0.009 A 
HETATM    9  C   UNK N   1      35.491  16.092  10.558  0.00  0.00     0.074 A 
ENDROOT
BRANCH   1  10
HETATM   10  O   UNK N   1      35.706  14.043  11.742  0.00  0.00    -0.351 OA
BRANCH  10  11
HETATM   11  C   UNK N   1      35.845  14.395  13.067  0.00  0.00     0.175 C 
BRANCH  11  12
HETATM   12  C   UNK N   1      36.612  13.317  13.806  0.00  0.00     0.027 C 
BRANCH  12  13
HETATM   13  C   UNK N   1      37.148  12.301  12.817  0.00  0.00     0.002 C 
BRANCH  13  14
HETATM   14  C   UNK N   1      37.482  11.009  13.537  0.00  0.00     0.002 C 
BRANCH  14  15
HETATM   15  C   UNK N   1      37.535  11.257  15.031  0.00  0.00     0.030 C 
BRANCH  15  16
HETATM   16  C   UNK N   1      36.963  10.065  15.778  0.00  0.00     0.272 C 
BRANCH  16  17
HETATM   17  N   UNK N   1      35.823   9.521  15.060  0.00  0.00     0.087 N 
HETATM   18  C   UNK N   1      35.863   8.080  15.248  0.00  0.00     0.310 C 
BRANCH  17  19
HETATM   19  C   UNK N   1      34.622  10.022  15.713  0.00  0.00     0.298 C 
BRANCH  19  20
HETATM   20  C   UNK N   1      33.800  10.815  14.752  0.00  0.00    -0.007 C 
HETATM   21  C   UNK N   1      33.863  10.556  13.450  0.00  0.00     0.008 C 
ENDBRANCH  19  20
ENDBRANCH  17  19
ENDBRANCH  16  17
ENDBRANCH  15  16
ENDBRANCH  14  15
ENDBRANCH  13  14
ENDBRANCH  12  13
ENDBRANCH  11  12
ENDBRANCH  10  11
ENDBRANCH   1  10
BRANCH   8  22
HETATM   22  C   UNK N   1      32.231  17.314   7.067  0.00  0.00    -0.023 A 
HETATM   23  C   UNK N   1      30.894  17.283   7.493  0.00  0.00     0.013 A 
HETATM   24  C   UNK N   1      29.856  17.262   6.556  0.00  0.00     0.020 A 
HETATM   25  C   UNK N   1      30.146  17.268   5.189  0.00  0.00     0.011 A 
HETATM   26 Br   UNK N   1      28.732  17.237   3.912  0.00  0.00    -0.051 Br
HETATM   27  C   UNK N   1      31.473  17.295   4.758  0.00  0.00     0.020 A 
HETATM   28  C   UNK N   1      32.512  17.321   5.692  0.00  0.00     0.013 A 
ENDBRANCH   8  22
TORSDOF 11
ENDMDL
MODEL 4
REMARK VINA RESULT:      -5.7      2.886      5.256
REMARK  11 active torsions:
REMARK  status: ('A' for Active; 'I' for Inactive)
REMARK    1  A    between atoms: N_2  and  C_3 
REMARK    2  A    between atoms: N_2  and  C_26 
REMARK    3  A    between atoms: C_3  and  C_4 
REMARK    4  A    between atoms: C_4  and  C_5 
REMARK    5  A    between atoms: C_5  and  C_6 
REMARK    6  A    between atoms: C_6  and  C_7 
REMARK    7  A    between atoms: C_7  and  C_8 
REMARK    8  A    between atoms: C_8  and  O_9 
REMARK    9  A    between atoms: O_9  and  C_10 
REMARK   10  A    between atoms: C_17  and  C_18 
REMARK   11  A    between atoms: C_26  and  C_27 
ROOT
HETATM    1  C   UNK N   1      35.131  14.794  10.987  0.00  0.00     0.071 A 
HETATM    2  C   UNK N   1      33.957  14.314  10.342  0.00  0.00     0.038 A 
HETATM    3  C   UNK N   1      33.296  15.099   9.378  0.00  0.00     0.018 A 
HETATM    4  C   UNK N   1      33.834  16.349   9.077  0.00  0.00     0.011 A 
HETATM    5  C   UNK N   1      34.955  16.815   9.703  0.00  0.00     0.088 A 
HETATM    6  O   UNK N   1      35.273  18.000   9.246  0.00  0.00    -0.321 OA
HETATM    7  C   UNK N   1      34.398  18.352   8.319  0.00  0.00     0.155 A 
HETATM    8  C   UNK N   1      33.460  17.328   8.177  0.00  0.00     0.009 A 
HETATM    9  C   UNK N   1      35.629  16.070  10.666  0.00  0.00     0.074 A 
ENDROOT
BRANCH   1  10
HETATM   10  O   UNK N   1      35.803  14.041  11.891  0.00  0.00    -0.351 OA
BRANCH  10  11
HETATM   11  C   UNK N   1      36.981  13.386  11.608  0.00  0.00     0.175 C 
BRANCH  11  12
HETATM   12  C   UNK N   1      36.999  12.038  12.301  0.00  0.00     0.027 C 
BRANCH  12  13
HETATM   13  C   UNK N   1      35.586  11.642  12.683  0.00  0.00     0.002 C 
BRANCH  13  14
HETATM   14  C   UNK N   1      35.626  10.596  13.780  0.00  0.00     0.002 C 
BRANCH  14  15
HETATM   15  C   UNK N   1      34.607  10.939  14.847  0.00  0.00     0.030 C 
BRANCH  15  16
HETATM   16  C   UNK N   1      34.606  12.435  15.109  0.00  0.00     0.272 C 
BRANCH  16  17
HETATM   17  N   UNK N   1      35.597  12.769  16.117  0.00  0.00     0.087 N 
HETATM   18  C   UNK N   1      36.437  13.810  15.545  0.00  0.00     0.310 C 
BRANCH  17  19
HETATM   19  C   UNK N   1      34.886  13.344  17.250  0.00  0.00     0.298 C 
BRANCH  19  20
HETATM   20  C   UNK N   1      35.360  12.734  18.527  0.00  0.00    -0.007 C 
HETATM   21  C   UNK N   1      35.231  11.426  18.728  0.00  0.00     0.008 C 
ENDBRANCH  19  20
ENDBRANCH  17  19
ENDBRANCH  16  17
ENDBRANCH  15  16
ENDBRANCH  14  15
ENDBRANCH  13  14
ENDBRANCH  12  13
ENDBRANCH  11  12
ENDBRANCH  10  11
ENDBRANCH   1  10
BRANCH   8  22
HETATM   22  C   UNK N   1      32.325  17.328   7.230  0.00  0.00    -0.023 A 
HETATM   23  C   UNK N   1      30.999  17.327   7.690  0.00  0.00     0.013 A 
HETATM   24  C   UNK N   1      29.937  17.322   6.780  0.00  0.00     0.020 A 
HETATM   25  C   UNK N   1      30.192  17.315   5.406  0.00  0.00     0.011 A 
HETATM   26 Br   UNK N   1      28.745  17.307   4.165  0.00  0.00    -0.051 Br
HETATM   27  C   UNK N   1      31.508  17.312   4.941  0.00  0.00     0.020 A 
HETATM   28  C   UNK N   1      32.571  17.322   5.848  0.00  0.00     0.013 A 
ENDBRANCH   8  22
TORSDOF 11
ENDMDL
MODEL 5
REMARK VINA RESULT:      -5.6      5.518      9.860
REMARK  11 active torsions:
REMARK  status: ('A' for Active; 'I' for Inactive)
REMARK    1  A    between atoms: N_2  and  C_3 
REMARK    2  A    between atoms: N_2  and  C_26 
REMARK    3  A    between atoms: C_3  and  C_4 
REMARK    4  A    between atoms: C_4  and  C_5 
REMARK    5  A    between atoms: C_5  and  C_6 
REMARK    6  A    between atoms: C_6  and  C_7 
REMARK    7  A    between atoms: C_7  and  C_8 
REMARK    8  A    between atoms: C_8  and  O_9 
REMARK    9  A    between atoms: O_9  and  C_10 
REMARK   10  A    between atoms: C_17  and  C_18 
REMARK   11  A    between atoms: C_26  and  C_27 
ROOT
HETATM    1  C   UNK N   1      36.033  14.451  13.187  0.00  0.00     0.071 A 
HETATM    2  C   UNK N   1      36.713  14.547  14.433  0.00  0.00     0.038 A 
HETATM    3  C   UNK N   1      36.495  13.593  15.445  0.00  0.00     0.018 A 
HETATM    4  C   UNK N   1      35.601  12.557  15.180  0.00  0.00     0.011 A 
HETATM    5  C   UNK N   1      34.940  12.470  13.989  0.00  0.00     0.088 A 
HETATM    6  O   UNK N   1      34.170  11.411  13.971  0.00  0.00    -0.321 OA
HETATM    7  C   UNK N   1      34.294  10.770  15.122  0.00  0.00     0.155 A 
HETATM    8  C   UNK N   1      35.198  11.466  15.926  0.00  0.00     0.009 A 
HETATM    9  C   UNK N   1      35.125  13.398  12.969  0.00  0.00     0.074 A 
ENDROOT
BRANCH   1  10
HETATM   10  O   UNK N   1      36.254  15.337  12.186  0.00  0.00    -0.351 OA
BRANCH  10  11
HETATM   11  C   UNK N   1      35.729  15.200  10.920  0.00  0.00     0.175 C 
BRANCH  11  12
HETATM   12  C   UNK N   1      34.916  16.429  10.566  0.00  0.00     0.027 C 
BRANCH  12  13
HETATM   13  C   UNK N   1      34.606  16.427   9.082  0.00  0.00     0.002 C 
BRANCH  13  14
HETATM   14  C   UNK N   1      34.681  17.840   8.539  0.00  0.00     0.002 C 
BRANCH  14  15
HETATM   15  C   UNK N   1      33.379  18.192   7.850  0.00  0.00     0.030 C 
BRANCH  15  16
HETATM   16  C   UNK N   1      32.560  16.936   7.608  0.00  0.00     0.272 C 
BRANCH  16  17
HETATM   17  N   UNK N   1      31.150  17.268   7.500  0.00  0.00     0.087 N 
HETATM   18  C   UNK N   1      30.549  16.258   6.644  0.00  0.00     0.310 C 
BRANCH  17  19
HETATM   19  C   UNK N   1      30.570  17.129   8.828  0.00  0.00     0.298 C 
BRANCH  19  20
HETATM   20  C   UNK N   1      29.857  18.382   9.218  0.00  0.00    -0.007 C 
HETATM   21  C   UNK N   1      28.531  18.444   9.145  0.00  0.00     0.008 C 
ENDBRANCH  19  20
ENDBRANCH  17  19
ENDBRANCH  16  17
ENDBRANCH  15  16
ENDBRANCH  14  15
ENDBRANCH  13  14
ENDBRANCH  12  13
ENDBRANCH  11  12
ENDBRANCH  10  11
ENDBRANCH   1  10
BRANCH   8  22
HETATM   22  C   UNK N   1      35.622  11.068  17.285  0.00  0.00    -0.023 A 
HETATM   23  C   UNK N   1      36.393   9.913  17.493  0.00  0.00     0.013 A 
HETATM   24  C   UNK N   1      36.782   9.549  18.786  0.00  0.00     0.020 A 
HETATM   25  C   UNK N   1      36.400  10.331  19.879  0.00  0.00     0.011 A 
HETATM   26 Br   UNK N   1      36.928   9.834  21.642  0.00  0.00    -0.051 Br
HETATM   27  C   UNK N   1      35.630  11.479  19.681  0.00  0.00     0.020 A 
HETATM   28  C   UNK N   1      35.245  11.847  18.389  0.00  0.00     0.013 A 
ENDBRANCH   8  22
TORSDOF 11
ENDMDL
MODEL 6
REMARK VINA RESULT:      -5.5      3.424      5.534
REMARK  11 active torsions:
REMARK  status: ('A' for Active; 'I' for Inactive)
REMARK    1  A    between atoms: N_2  and  C_3 
REMARK    2  A    between atoms: N_2  and  C_26 
REMARK    3  A    between atoms: C_3  and  C_4 
REMARK    4  A    between atoms: C_4  and  C_5 
REMARK    5  A    between atoms: C_5  and  C_6 
REMARK    6  A    between atoms: C_6  and  C_7 
REMARK    7  A    between atoms: C_7  and  C_8 
REMARK    8  A    between atoms: C_8  and  O_9 
REMARK    9  A    between atoms: O_9  and  C_10 
REMARK   10  A    between atoms: C_17  and  C_18 
REMARK   11  A    between atoms: C_26  and  C_27 
ROOT
HETATM    1  C   UNK N   1      34.636  14.960  11.380  0.00  0.00     0.071 A 
HETATM    2  C   UNK N   1      33.698  14.404  10.465  0.00  0.00     0.038 A 
HETATM    3  C   UNK N   1      33.345  15.096   9.291  0.00  0.00     0.018 A 
HETATM    4  C   UNK N   1      33.948  16.331   9.058  0.00  0.00     0.011 A 
HETATM    5  C   UNK N   1      34.839  16.870   9.940  0.00  0.00     0.088 A 
HETATM    6  O   UNK N   1      35.277  18.023   9.500  0.00  0.00    -0.321 OA
HETATM    7  C   UNK N   1      34.707  18.281   8.334  0.00  0.00     0.155 A 
HETATM    8  C   UNK N   1      33.850  17.229   8.012  0.00  0.00     0.009 A 
HETATM    9  C   UNK N   1      35.206  16.218  11.114  0.00  0.00     0.074 A 
ENDROOT
BRANCH   1  10
HETATM   10  O   UNK N   1      35.017  14.295  12.497  0.00  0.00    -0.351 OA
BRANCH  10  11
HETATM   11  C   UNK N   1      36.284  14.374  13.032  0.00  0.00     0.175 C 
BRANCH  11  12
HETATM   12  C   UNK N   1      36.595  13.107  13.805  0.00  0.00     0.027 C 
BRANCH  12  13
HETATM   13  C   UNK N   1      36.651  13.415  15.288  0.00  0.00     0.002 C 
BRANCH  13  14
HETATM   14  C   UNK N   1      35.251  13.402  15.869  0.00  0.00     0.002 C 
BRANCH  14  15
HETATM   15  C   UNK N   1      35.242  12.610  17.160  0.00  0.00     0.030 C 
BRANCH  15  16
HETATM   16  C   UNK N   1      35.098  11.128  16.862  0.00  0.00     0.272 C 
BRANCH  16  17
HETATM   17  N   UNK N   1      35.689  10.340  17.931  0.00  0.00     0.087 N 
HETATM   18  C   UNK N   1      34.668   9.400  18.368  0.00  0.00     0.310 C 
BRANCH  17  19
HETATM   19  C   UNK N   1      36.781   9.572  17.349  0.00  0.00     0.298 C 
BRANCH  19  20
HETATM   20  C   UNK N   1      36.700   9.601  15.858  0.00  0.00    -0.007 C 
HETATM   21  C   UNK N   1      37.801   9.782  15.136  0.00  0.00     0.008 C 
ENDBRANCH  19  20
ENDBRANCH  17  19
ENDBRANCH  16  17
ENDBRANCH  15  16
ENDBRANCH  14  15
ENDBRANCH  13  14
ENDBRANCH  12  13
ENDBRANCH  11  12
ENDBRANCH  10  11
ENDBRANCH   1  10
BRANCH   8  22
HETATM   22  C   UNK N   1      33.037  17.129   6.781  0.00  0.00    -0.023 A 
HETATM   23  C   UNK N   1      33.630  17.230   5.512  0.00  0.00     0.013 A 
HETATM   24  C   UNK N   1      32.846  17.137   4.358  0.00  0.00     0.020 A 
HETATM   25  C   UNK N   1      31.466  16.948   4.462  0.00  0.00     0.011 A 
HETATM   26 Br   UNK N   1      30.396  16.823   2.890  0.00  0.00    -0.051 Br
HETATM   27  C   UNK N   1      30.868  16.850   5.720  0.00  0.00     0.020 A 
HETATM   28  C   UNK N   1      31.650  16.937   6.875  0.00  0.00     0.013 A 
ENDBRANCH   8  22
TORSDOF 11
ENDMDL
MODEL 7
REMARK VINA RESULT:      -5.5     17.937     20.164
REMARK  11 active torsions:
REMARK  status: ('A' for Active; 'I' for Inactive)
REMARK    1  A    between atoms: N_2  and  C_3 
REMARK    2  A    between atoms: N_2  and  C_26 
REMARK    3  A    between atoms: C_3  and  C_4 
REMARK    4  A    between atoms: C_4  and  C_5 
REMARK    5  A    between atoms: C_5  and  C_6 
REMARK    6  A    between atoms: C_6  and  C_7 
REMARK    7  A    between atoms: C_7  and  C_8 
REMARK    8  A    between atoms: C_8  and  O_9 
REMARK    9  A    between atoms: O_9  and  C_10 
REMARK   10  A    between atoms: C_17  and  C_18 
REMARK   11  A    between atoms: C_26  and  C_27 
ROOT
HETATM    1  C   UNK N   1      26.645  24.590  -4.382  0.00  0.00     0.071 A 
HETATM    2  C   UNK N   1      27.943  24.180  -4.799  0.00  0.00     0.038 A 
HETATM    3  C   UNK N   1      28.102  23.291  -5.880  0.00  0.00     0.018 A 
HETATM    4  C   UNK N   1      26.952  22.836  -6.522  0.00  0.00     0.011 A 
HETATM    5  C   UNK N   1      25.706  23.220  -6.115  0.00  0.00     0.088 A 
HETATM    6  O   UNK N   1      24.790  22.676  -6.876  0.00  0.00    -0.321 OA
HETATM    7  C   UNK N   1      25.383  21.933  -7.797  0.00  0.00     0.155 A 
HETATM    8  C   UNK N   1      26.764  22.005  -7.609  0.00  0.00     0.009 A 
HETATM    9  C   UNK N   1      25.511  24.091  -5.048  0.00  0.00     0.074 A 
ENDROOT
BRANCH   1  10
HETATM   10  O   UNK N   1      26.471  25.472  -3.369  0.00  0.00    -0.351 OA
BRANCH  10  11
HETATM   11  C   UNK N   1      26.841  26.797  -3.444  0.00  0.00     0.175 C 
BRANCH  11  12
HETATM   12  C   UNK N   1      25.652  27.639  -3.858  0.00  0.00     0.027 C 
BRANCH  12  13
HETATM   13  C   UNK N   1      25.638  27.798  -5.366  0.00  0.00     0.002 C 
BRANCH  13  14
HETATM   14  C   UNK N   1      26.973  28.338  -5.838  0.00  0.00     0.002 C 
BRANCH  14  15
HETATM   15  C   UNK N   1      27.445  27.550  -7.042  0.00  0.00     0.030 C 
BRANCH  15  16
HETATM   16  C   UNK N   1      26.352  26.605  -7.509  0.00  0.00     0.272 C 
BRANCH  16  17
HETATM   17  N   UNK N   1      26.859  25.721  -8.545  0.00  0.00     0.087 N 
HETATM   18  C   UNK N   1      25.719  25.345  -9.365  0.00  0.00     0.310 C 
BRANCH  17  19
HETATM   19  C   UNK N   1      27.765  26.503  -9.375  0.00  0.00     0.298 C 
BRANCH  19  20
HETATM   20  C   UNK N   1      28.943  25.679  -9.778  0.00  0.00    -0.007 C 
HETATM   21  C   UNK N   1      29.503  24.846  -8.906  0.00  0.00     0.008 C 
ENDBRANCH  19  20
ENDBRANCH  17  19
ENDBRANCH  16  17
ENDBRANCH  15  16
ENDBRANCH  14  15
ENDBRANCH  13  14
ENDBRANCH  12  13
ENDBRANCH  11  12
ENDBRANCH  10  11
ENDBRANCH   1  10
BRANCH   8  22
HETATM   22  C   UNK N   1      27.780  21.327  -8.442  0.00  0.00    -0.023 A 
HETATM   23  C   UNK N   1      28.599  20.320  -7.908  0.00  0.00     0.013 A 
HETATM   24  C   UNK N   1      29.558  19.693  -8.709  0.00  0.00     0.020 A 
HETATM   25  C   UNK N   1      29.710  20.070 -10.046  0.00  0.00     0.011 A 
HETATM   26 Br   UNK N   1      31.018  19.216 -11.137  0.00  0.00    -0.051 Br
HETATM   27  C   UNK N   1      28.901  21.073 -10.583  0.00  0.00     0.020 A 
HETATM   28  C   UNK N   1      27.939  21.698  -9.786  0.00  0.00     0.013 A 
ENDBRANCH   8  22
TORSDOF 11
ENDMDL
MODEL 8
REMARK VINA RESULT:      -5.3      7.119     11.892
REMARK  11 active torsions:
REMARK  status: ('A' for Active; 'I' for Inactive)
REMARK    1  A    between atoms: N_2  and  C_3 
REMARK    2  A    between atoms: N_2  and  C_26 
REMARK    3  A    between atoms: C_3  and  C_4 
REMARK    4  A    between atoms: C_4  and  C_5 
REMARK    5  A    between atoms: C_5  and  C_6 
REMARK    6  A    between atoms: C_6  and  C_7 
REMARK    7  A    between atoms: C_7  and  C_8 
REMARK    8  A    between atoms: C_8  and  O_9 
REMARK    9  A    between atoms: O_9  and  C_10 
REMARK   10  A    between atoms: C_17  and  C_18 
REMARK   11  A    between atoms: C_26  and  C_27 
ROOT
HETATM    1  C   UNK N   1      27.767  17.487   5.482  0.00  0.00     0.071 A 
HETATM    2  C   UNK N   1      28.144  17.267   6.837  0.00  0.00     0.038 A 
HETATM    3  C   UNK N   1      29.497  17.095   7.185  0.00  0.00     0.018 A 
HETATM    4  C   UNK N   1      30.444  17.153   6.165  0.00  0.00     0.011 A 
HETATM    5  C   UNK N   1      30.082  17.354   4.864  0.00  0.00     0.088 A 
HETATM    6  O   UNK N   1      31.142  17.383   4.095  0.00  0.00    -0.321 OA
HETATM    7  C   UNK N   1      32.220  17.212   4.843  0.00  0.00     0.155 A 
HETATM    8  C   UNK N   1      31.823  17.061   6.172  0.00  0.00     0.009 A 
HETATM    9  C   UNK N   1      28.755  17.521   4.481  0.00  0.00     0.074 A 
ENDROOT
BRANCH   1  10
HETATM   10  O   UNK N   1      26.475  17.691   5.129  0.00  0.00    -0.351 OA
BRANCH  10  11
HETATM   11  C   UNK N   1      26.042  17.730   3.821  0.00  0.00     0.175 C 
BRANCH  11  12
HETATM   12  C   UNK N   1      24.549  17.474   3.767  0.00  0.00     0.027 C 
BRANCH  12  13
HETATM   13  C   UNK N   1      23.805  18.659   4.351  0.00  0.00     0.002 C 
BRANCH  13  14
HETATM   14  C   UNK N   1      24.077  19.897   3.520  0.00  0.00     0.002 C 
BRANCH  14  15
HETATM   15  C   UNK N   1      22.808  20.323   2.810  0.00  0.00     0.030 C 
BRANCH  15  16
HETATM   16  C   UNK N   1      21.597  19.709   3.492  0.00  0.00     0.272 C 
BRANCH  16  17
HETATM   17  N   UNK N   1      20.376  20.150   2.840  0.00  0.00     0.087 N 
HETATM   18  C   UNK N   1      20.758  20.627   1.520  0.00  0.00     0.310 C 
BRANCH  17  19
HETATM   19  C   UNK N   1      19.533  18.976   2.661  0.00  0.00     0.298 C 
BRANCH  19  20
HETATM   20  C   UNK N   1      20.370  17.743   2.577  0.00  0.00    -0.007 C 
HETATM   21  C   UNK N   1      20.227  16.910   1.551  0.00  0.00     0.008 C 
ENDBRANCH  19  20
ENDBRANCH  17  19
ENDBRANCH  16  17
ENDBRANCH  15  16
ENDBRANCH  14  15
ENDBRANCH  13  14
ENDBRANCH  12  13
ENDBRANCH  11  12
ENDBRANCH  10  11
ENDBRANCH   1  10
BRANCH   8  22
HETATM   22  C   UNK N   1      32.730  16.863   7.322  0.00  0.00    -0.023 A 
HETATM   23  C   UNK N   1      32.636  15.720   8.130  0.00  0.00     0.013 A 
HETATM   24  C   UNK N   1      33.499  15.551   9.217  0.00  0.00     0.020 A 
HETATM   25  C   UNK N   1      34.459  16.524   9.507  0.00  0.00     0.011 A 
HETATM   26 Br   UNK N   1      35.635  16.296  10.989  0.00  0.00    -0.051 Br
HETATM   27  C   UNK N   1      34.557  17.667   8.710  0.00  0.00     0.020 A 
HETATM   28  C   UNK N   1      33.698  17.835   7.620  0.00  0.00     0.013 A 
ENDBRANCH   8  22
TORSDOF 11
ENDMDL
MODEL 9
REMARK VINA RESULT:      -5.3     15.344     18.966
REMARK  11 active torsions:
REMARK  status: ('A' for Active; 'I' for Inactive)
REMARK    1  A    between atoms: N_2  and  C_3 
REMARK    2  A    between atoms: N_2  and  C_26 
REMARK    3  A    between atoms: C_3  and  C_4 
REMARK    4  A    between atoms: C_4  and  C_5 
REMARK    5  A    between atoms: C_5  and  C_6 
REMARK    6  A    between atoms: C_6  and  C_7 
REMARK    7  A    between atoms: C_7  and  C_8 
REMARK    8  A    between atoms: C_8  and  O_9 
REMARK    9  A    between atoms: O_9  and  C_10 
REMARK   10  A    between atoms: C_17  and  C_18 
REMARK   11  A    between atoms: C_26  and  C_27 
ROOT
HETATM    1  C   UNK N   1      28.026  24.274  -4.343  0.00  0.00     0.071 A 
HETATM    2  C   UNK N   1      27.807  23.809  -5.670  0.00  0.00     0.038 A 
HETATM    3  C   UNK N   1      28.552  22.731  -6.185  0.00  0.00     0.018 A 
HETATM    4  C   UNK N   1      29.499  22.139  -5.352  0.00  0.00     0.011 A 
HETATM    5  C   UNK N   1      29.717  22.591  -4.082  0.00  0.00     0.088 A 
HETATM    6  O   UNK N   1      30.640  21.871  -3.494  0.00  0.00    -0.321 OA
HETATM    7  C   UNK N   1      31.053  20.934  -4.332  0.00  0.00     0.155 A 
HETATM    8  C   UNK N   1      30.353  21.067  -5.532  0.00  0.00     0.009 A 
HETATM    9  C   UNK N   1      29.005  23.657  -3.543  0.00  0.00     0.074 A 
ENDROOT
BRANCH   1  10
HETATM   10  O   UNK N   1      27.295  25.285  -3.815  0.00  0.00    -0.351 OA
BRANCH  10  11
HETATM   11  C   UNK N   1      27.581  26.617  -4.024  0.00  0.00     0.175 C 
BRANCH  11  12
HETATM   12  C   UNK N   1      26.389  27.303  -4.662  0.00  0.00     0.027 C 
BRANCH  12  13
HETATM   13  C   UNK N   1      26.563  27.334  -6.168  0.00  0.00     0.002 C 
BRANCH  13  14
HETATM   14  C   UNK N   1      25.514  26.459  -6.824  0.00  0.00     0.002 C 
BRANCH  14  15
HETATM   15  C   UNK N   1      25.967  26.079  -8.219  0.00  0.00     0.030 C 
BRANCH  15  16
HETATM   16  C   UNK N   1      25.639  24.622  -8.496  0.00  0.00     0.272 C 
BRANCH  16  17
HETATM   17  N   UNK N   1      26.477  24.114  -9.569  0.00  0.00     0.087 N 
HETATM   18  C   UNK N   1      27.803  24.672  -9.361  0.00  0.00     0.310 C 
BRANCH  17  19
HETATM   19  C   UNK N   1      26.570  22.671  -9.398  0.00  0.00     0.298 C 
BRANCH  19  20
HETATM   20  C   UNK N   1      25.546  22.196  -8.421  0.00  0.00    -0.007 C 
HETATM   21  C   UNK N   1      25.538  20.926  -8.029  0.00  0.00     0.008 C 
ENDBRANCH  19  20
ENDBRANCH  17  19
ENDBRANCH  16  17
ENDBRANCH  15  16
ENDBRANCH  14  15
ENDBRANCH  13  14
ENDBRANCH  12  13
ENDBRANCH  11  12
ENDBRANCH  10  11
ENDBRANCH   1  10
BRANCH   8  22
HETATM   22  C   UNK N   1      30.511  20.201  -6.720  0.00  0.00    -0.023 A 
HETATM   23  C   UNK N   1      31.773  19.987  -7.296  0.00  0.00     0.013 A 
HETATM   24  C   UNK N   1      31.904  19.168  -8.422  0.00  0.00     0.020 A 
HETATM   25  C   UNK N   1      30.777  18.561  -8.982  0.00  0.00     0.011 A 
HETATM   26 Br   UNK N   1      30.955  17.446 -10.517  0.00  0.00    -0.051 Br
HETATM   27  C   UNK N   1      29.518  18.771  -8.416  0.00  0.00     0.020 A 
HETATM   28  C   UNK N   1      29.385  19.585  -7.288  0.00  0.00     0.013 A 
ENDBRANCH   8  22
TORSDOF 11
ENDMDL
