MODEL 1
REMARK VINA RESULT:      -8.2      0.000      0.000
REMARK  5 active torsions:
REMARK  status: ('A' for Active; 'I' for Inactive)
REMARK    1  A    between atoms: C_11  and  C_15 
REMARK    2  A    between atoms: C_15  and  C_17 
REMARK    3  A    between atoms: C_18  and  C_19 
REMARK    4  A    between atoms: C_22  and  C_25 
REMARK    5  A    between atoms: C_25  and  O_26 
ROOT
HETATM    1  C   UNK N   1      33.092  21.423  -5.614  0.00  0.00     0.020 C 
HETATM    2  C   UNK N   1      31.900  20.966  -4.788  0.00  0.00    -0.020 C 
HETATM    3  C   UNK N   1      31.920  19.446  -4.721  0.00  0.00     0.020 C 
HETATM    4  C   UNK N   1      32.030  21.454  -3.347  0.00  0.00     0.015 C 
HETATM    5  C   UNK N   1      31.696  22.926  -3.240  0.00  0.00     0.015 C 
HETATM    6  C   UNK N   1      30.232  23.194  -3.599  0.00  0.00    -0.020 C 
HETATM    7  C   UNK N   1      29.324  22.812  -2.443  0.00  0.00     0.020 C 
HETATM    8  C   UNK N   1      30.132  24.695  -3.819  0.00  0.00     0.020 C 
HETATM    9  C   UNK N   1      29.802  22.460  -4.855  0.00  0.00    -0.042 A 
HETATM   10  C   UNK N   1      28.592  22.828  -5.485  0.00  0.00     0.024 A 
HETATM   11  C   UNK N   1      28.215  22.248  -6.699  0.00  0.00     0.015 A 
HETATM   12  C   UNK N   1      29.046  21.268  -7.261  0.00  0.00     0.016 A 
HETATM   13  C   UNK N   1      30.221  20.872  -6.647  0.00  0.00     0.009 A 
HETATM   14  C   UNK N   1      30.615  21.449  -5.438  0.00  0.00    -0.043 A 
ENDROOT
BRANCH  11  15
HETATM   15  C   UNK N   1      26.964  22.671  -7.412  0.00  0.00     0.182 C 
HETATM   16  O   UNK N   1      26.495  21.973  -8.299  0.00  0.00    -0.288 OA
BRANCH  15  17
HETATM   17  C   UNK N   1      26.322  23.968  -7.086  0.00  0.00     0.056 C 
HETATM   18  C   UNK N   1      25.760  24.082  -5.880  0.00  0.00     0.015 C 
BRANCH  18  19
HETATM   19  C   UNK N   1      25.629  25.320  -5.132  0.00  0.00    -0.036 A 
HETATM   20  C   UNK N   1      25.090  26.477  -5.702  0.00  0.00     0.012 A 
HETATM   21  C   UNK N   1      25.279  27.711  -5.072  0.00  0.00     0.019 A 
HETATM   22  C   UNK N   1      26.043  27.792  -3.896  0.00  0.00     0.037 A 
HETATM   23  C   UNK N   1      26.553  26.624  -3.319  0.00  0.00     0.019 A 
HETATM   24  C   UNK N   1      26.346  25.395  -3.937  0.00  0.00     0.012 A 
BRANCH  22  25
HETATM   25  C   UNK N   1      26.364  29.104  -3.313  0.00  0.00     0.176 C 
HETATM   26  O   UNK N   1      27.062  29.178  -2.312  0.00  0.00    -0.646 OA
BRANCH  25  27
HETATM   27  O   UNK N   1      25.938  30.233  -3.908  0.00  0.00    -0.773 OA
HETATM   28  H   UNK N   1      25.808  31.120  -3.636  0.00  0.00     0.167 HD
ENDBRANCH  25  27
ENDBRANCH  22  25
ENDBRANCH  18  19
ENDBRANCH  15  17
ENDBRANCH  11  15
TORSDOF 5
ENDMDL
MODEL 2
REMARK VINA RESULT:      -7.6      3.644      8.678
REMARK  5 active torsions:
REMARK  status: ('A' for Active; 'I' for Inactive)
REMARK    1  A    between atoms: C_11  and  C_15 
REMARK    2  A    between atoms: C_15  and  C_17 
REMARK    3  A    between atoms: C_18  and  C_19 
REMARK    4  A    between atoms: C_22  and  C_25 
REMARK    5  A    between atoms: C_25  and  O_26 
ROOT
HETATM    1  C   UNK N   1      25.579  27.790  -3.765  0.00  0.00     0.020 C 
HETATM    2  C   UNK N   1      26.261  27.025  -4.888  0.00  0.00    -0.020 C 
HETATM    3  C   UNK N   1      25.191  26.306  -5.695  0.00  0.00     0.020 C 
HETATM    4  C   UNK N   1      26.944  27.990  -5.854  0.00  0.00     0.015 C 
HETATM    5  C   UNK N   1      28.233  28.524  -5.268  0.00  0.00     0.015 C 
HETATM    6  C   UNK N   1      29.259  27.406  -5.063  0.00  0.00    -0.020 C 
HETATM    7  C   UNK N   1      29.909  27.034  -6.384  0.00  0.00     0.020 C 
HETATM    8  C   UNK N   1      30.322  27.988  -4.147  0.00  0.00     0.020 C 
HETATM    9  C   UNK N   1      28.649  26.172  -4.424  0.00  0.00    -0.042 A 
HETATM   10  C   UNK N   1      29.503  25.178  -3.898  0.00  0.00     0.024 A 
HETATM   11  C   UNK N   1      28.981  24.080  -3.210  0.00  0.00     0.015 A 
HETATM   12  C   UNK N   1      27.588  23.968  -3.084  0.00  0.00     0.016 A 
HETATM   13  C   UNK N   1      26.732  24.915  -3.617  0.00  0.00     0.009 A 
HETATM   14  C   UNK N   1      27.240  26.023  -4.299  0.00  0.00    -0.043 A 
ENDROOT
BRANCH  11  15
HETATM   15  C   UNK N   1      29.876  23.046  -2.592  0.00  0.00     0.182 C 
HETATM   16  O   UNK N   1      30.163  23.109  -1.407  0.00  0.00    -0.288 OA
BRANCH  15  17
HETATM   17  C   UNK N   1      30.465  21.975  -3.432  0.00  0.00     0.056 C 
HETATM   18  C   UNK N   1      31.527  22.298  -4.175  0.00  0.00     0.015 C 
BRANCH  18  19
HETATM   19  C   UNK N   1      32.583  21.383  -4.568  0.00  0.00    -0.036 A 
HETATM   20  C   UNK N   1      32.585  20.743  -5.812  0.00  0.00     0.012 A 
HETATM   21  C   UNK N   1      33.421  19.643  -6.022  0.00  0.00     0.019 A 
HETATM   22  C   UNK N   1      34.222  19.156  -4.976  0.00  0.00     0.037 A 
HETATM   23  C   UNK N   1      34.234  19.821  -3.745  0.00  0.00     0.019 A 
HETATM   24  C   UNK N   1      33.416  20.928  -3.545  0.00  0.00     0.012 A 
BRANCH  22  25
HETATM   25  C   UNK N   1      34.992  17.915  -5.150  0.00  0.00     0.176 C 
HETATM   26  O   UNK N   1      35.661  17.471  -4.228  0.00  0.00    -0.646 OA
BRANCH  25  27
HETATM   27  O   UNK N   1      34.920  17.230  -6.307  0.00  0.00    -0.773 OA
HETATM   28  H   UNK N   1      35.070  16.342  -6.565  0.00  0.00     0.167 HD
ENDBRANCH  25  27
ENDBRANCH  22  25
ENDBRANCH  18  19
ENDBRANCH  15  17
ENDBRANCH  11  15
TORSDOF 5
ENDMDL
MODEL 3
REMARK VINA RESULT:      -7.6     14.589     18.020
REMARK  5 active torsions:
REMARK  status: ('A' for Active; 'I' for Inactive)
REMARK    1  A    between atoms: C_11  and  C_15 
REMARK    2  A    between atoms: C_15  and  C_17 
REMARK    3  A    between atoms: C_18  and  C_19 
REMARK    4  A    between atoms: C_22  and  C_25 
REMARK    5  A    between atoms: C_25  and  O_26 
ROOT
HETATM    1  C   UNK N   1      27.818  19.133   7.851  0.00  0.00     0.020 C 
HETATM    2  C   UNK N   1      28.208  17.669   7.980  0.00  0.00    -0.020 C 
HETATM    3  C   UNK N   1      27.873  17.209   9.391  0.00  0.00     0.020 C 
HETATM    4  C   UNK N   1      27.365  16.808   7.043  0.00  0.00     0.015 C 
HETATM    5  C   UNK N   1      27.841  16.935   5.612  0.00  0.00     0.015 C 
HETATM    6  C   UNK N   1      29.263  16.393   5.447  0.00  0.00    -0.020 C 
HETATM    7  C   UNK N   1      29.251  14.875   5.402  0.00  0.00     0.020 C 
HETATM    8  C   UNK N   1      29.747  16.914   4.104  0.00  0.00     0.020 C 
HETATM    9  C   UNK N   1      30.194  16.867   6.548  0.00  0.00    -0.042 A 
HETATM   10  C   UNK N   1      31.588  16.708   6.384  0.00  0.00     0.024 A 
HETATM   11  C   UNK N   1      32.480  17.226   7.326  0.00  0.00     0.015 A 
HETATM   12  C   UNK N   1      31.961  17.875   8.456  0.00  0.00     0.016 A 
HETATM   13  C   UNK N   1      30.598  18.016   8.651  0.00  0.00     0.009 A 
HETATM   14  C   UNK N   1      29.695  17.512   7.713  0.00  0.00    -0.043 A 
ENDROOT
BRANCH  11  15
HETATM   15  C   UNK N   1      33.965  17.120   7.138  0.00  0.00     0.182 C 
HETATM   16  O   UNK N   1      34.546  17.881   6.379  0.00  0.00    -0.288 OA
BRANCH  15  17
HETATM   17  C   UNK N   1      34.728  16.050   7.826  0.00  0.00     0.056 C 
HETATM   18  C   UNK N   1      35.204  16.329   9.043  0.00  0.00     0.015 C 
BRANCH  18  19
HETATM   19  C   UNK N   1      35.423  15.357  10.099  0.00  0.00    -0.036 A 
HETATM   20  C   UNK N   1      34.716  14.151  10.155  0.00  0.00     0.012 A 
HETATM   21  C   UNK N   1      34.712  13.406  11.338  0.00  0.00     0.019 A 
HETATM   22  C   UNK N   1      35.380  13.887  12.476  0.00  0.00     0.037 A 
HETATM   23  C   UNK N   1      36.108  15.080  12.400  0.00  0.00     0.019 A 
HETATM   24  C   UNK N   1      36.126  15.809  11.216  0.00  0.00     0.012 A 
BRANCH  22  25
HETATM   25  C   UNK N   1      35.258  13.179  13.759  0.00  0.00     0.176 C 
HETATM   26  O   UNK N   1      34.309  12.435  13.964  0.00  0.00    -0.646 OA
BRANCH  25  27
HETATM   27  O   UNK N   1      36.217  13.302  14.695  0.00  0.00    -0.773 OA
HETATM   28  H   UNK N   1      36.234  13.331  15.631  0.00  0.00     0.167 HD
ENDBRANCH  25  27
ENDBRANCH  22  25
ENDBRANCH  18  19
ENDBRANCH  15  17
ENDBRANCH  11  15
TORSDOF 5
ENDMDL
MODEL 4
REMARK VINA RESULT:      -7.5      1.632      2.524
REMARK  5 active torsions:
REMARK  status: ('A' for Active; 'I' for Inactive)
REMARK    1  A    between atoms: C_11  and  C_15 
REMARK    2  A    between atoms: C_15  and  C_17 
REMARK    3  A    between atoms: C_18  and  C_19 
REMARK    4  A    between atoms: C_22  and  C_25 
REMARK    5  A    between atoms: C_25  and  O_26 
ROOT
HETATM    1  C   UNK N   1      30.914  19.832  -8.823  0.00  0.00     0.020 C 
HETATM    2  C   UNK N   1      30.042  19.787  -7.577  0.00  0.00    -0.020 C 
HETATM    3  C   UNK N   1      29.318  18.449  -7.551  0.00  0.00     0.020 C 
HETATM    4  C   UNK N   1      30.907  19.825  -6.319  0.00  0.00     0.015 C 
HETATM    5  C   UNK N   1      31.422  21.224  -6.057  0.00  0.00     0.015 C 
HETATM    6  C   UNK N   1      30.277  22.194  -5.758  0.00  0.00    -0.020 C 
HETATM    7  C   UNK N   1      29.785  22.012  -4.333  0.00  0.00     0.020 C 
HETATM    8  C   UNK N   1      30.874  23.586  -5.890  0.00  0.00     0.020 C 
HETATM    9  C   UNK N   1      29.119  22.037  -6.726  0.00  0.00    -0.042 A 
HETATM   10  C   UNK N   1      28.127  23.041  -6.778  0.00  0.00     0.024 A 
HETATM   11  C   UNK N   1      27.104  22.984  -7.728  0.00  0.00     0.015 A 
HETATM   12  C   UNK N   1      27.063  21.889  -8.605  0.00  0.00     0.016 A 
HETATM   13  C   UNK N   1      28.008  20.880  -8.552  0.00  0.00     0.009 A 
HETATM   14  C   UNK N   1      29.041  20.929  -7.614  0.00  0.00    -0.043 A 
ENDROOT
BRANCH  11  15
HETATM   15  C   UNK N   1      26.076  24.072  -7.838  0.00  0.00     0.182 C 
HETATM   16  O   UNK N   1      24.936  23.810  -8.188  0.00  0.00    -0.288 OA
BRANCH  15  17
HETATM   17  C   UNK N   1      26.455  25.483  -7.578  0.00  0.00     0.056 C 
HETATM   18  C   UNK N   1      25.575  26.238  -6.917  0.00  0.00     0.015 C 
BRANCH  18  19
HETATM   19  C   UNK N   1      25.913  27.361  -6.061  0.00  0.00    -0.036 A 
HETATM   20  C   UNK N   1      27.059  28.135  -6.269  0.00  0.00     0.012 A 
HETATM   21  C   UNK N   1      27.517  28.980  -5.254  0.00  0.00     0.019 A 
HETATM   22  C   UNK N   1      26.853  29.019  -4.017  0.00  0.00     0.037 A 
HETATM   23  C   UNK N   1      25.691  28.263  -3.830  0.00  0.00     0.019 A 
HETATM   24  C   UNK N   1      25.226  27.438  -4.848  0.00  0.00     0.012 A 
BRANCH  22  25
HETATM   25  C   UNK N   1      27.415  29.796  -2.901  0.00  0.00     0.176 C 
HETATM   26  O   UNK N   1      27.521  29.292  -1.793  0.00  0.00    -0.646 OA
BRANCH  25  27
HETATM   27  O   UNK N   1      27.867  31.047  -3.107  0.00  0.00    -0.773 OA
HETATM   28  H   UNK N   1      27.713  31.713  -3.747  0.00  0.00     0.167 HD
ENDBRANCH  25  27
ENDBRANCH  22  25
ENDBRANCH  18  19
ENDBRANCH  15  17
ENDBRANCH  11  15
TORSDOF 5
ENDMDL
MODEL 5
REMARK VINA RESULT:      -7.5      2.959      8.157
REMARK  5 active torsions:
REMARK  status: ('A' for Active; 'I' for Inactive)
REMARK    1  A    between atoms: C_11  and  C_15 
REMARK    2  A    between atoms: C_15  and  C_17 
REMARK    3  A    between atoms: C_18  and  C_19 
REMARK    4  A    between atoms: C_22  and  C_25 
REMARK    5  A    between atoms: C_25  and  O_26 
ROOT
HETATM    1  C   UNK N   1      25.563  27.684  -3.681  0.00  0.00     0.020 C 
HETATM    2  C   UNK N   1      26.247  26.958  -4.829  0.00  0.00    -0.020 C 
HETATM    3  C   UNK N   1      25.188  26.193  -5.608  0.00  0.00     0.020 C 
HETATM    4  C   UNK N   1      26.853  27.960  -5.809  0.00  0.00     0.015 C 
HETATM    5  C   UNK N   1      28.132  28.553  -5.259  0.00  0.00     0.015 C 
HETATM    6  C   UNK N   1      29.216  27.485  -5.092  0.00  0.00    -0.020 C 
HETATM    7  C   UNK N   1      29.843  27.151  -6.434  0.00  0.00     0.020 C 
HETATM    8  C   UNK N   1      30.278  28.114  -4.204  0.00  0.00     0.020 C 
HETATM    9  C   UNK N   1      28.686  26.220  -4.443  0.00  0.00    -0.042 A 
HETATM   10  C   UNK N   1      29.603  25.266  -3.949  0.00  0.00     0.024 A 
HETATM   11  C   UNK N   1      29.156  24.140  -3.253  0.00  0.00     0.015 A 
HETATM   12  C   UNK N   1      27.774  23.960  -3.086  0.00  0.00     0.016 A 
HETATM   13  C   UNK N   1      26.857  24.868  -3.586  0.00  0.00     0.009 A 
HETATM   14  C   UNK N   1      27.290  26.002  -4.276  0.00  0.00    -0.043 A 
ENDROOT
BRANCH  11  15
HETATM   15  C   UNK N   1      30.118  23.147  -2.669  0.00  0.00     0.182 C 
HETATM   16  O   UNK N   1      30.339  23.137  -1.468  0.00  0.00    -0.288 OA
BRANCH  15  17
HETATM   17  C   UNK N   1      30.851  22.212  -3.556  0.00  0.00     0.056 C 
HETATM   18  C   UNK N   1      30.123  21.468  -4.392  0.00  0.00     0.015 C 
BRANCH  18  19
HETATM   19  C   UNK N   1      30.572  20.977  -5.682  0.00  0.00    -0.036 A 
HETATM   20  C   UNK N   1      29.673  20.611  -6.690  0.00  0.00     0.012 A 
HETATM   21  C   UNK N   1      30.121  19.849  -7.773  0.00  0.00     0.019 A 
HETATM   22  C   UNK N   1      31.456  19.416  -7.826  0.00  0.00     0.037 A 
HETATM   23  C   UNK N   1      32.353  19.811  -6.827  0.00  0.00     0.019 A 
HETATM   24  C   UNK N   1      31.909  20.587  -5.761  0.00  0.00     0.012 A 
BRANCH  22  25
HETATM   25  C   UNK N   1      31.894  18.495  -8.886  0.00  0.00     0.176 C 
HETATM   26  O   UNK N   1      31.078  17.792  -9.466  0.00  0.00    -0.646 OA
BRANCH  25  27
HETATM   27  O   UNK N   1      33.185  18.461  -9.264  0.00  0.00    -0.773 OA
HETATM   28  H   UNK N   1      33.813  17.785  -9.427  0.00  0.00     0.167 HD
ENDBRANCH  25  27
ENDBRANCH  22  25
ENDBRANCH  18  19
ENDBRANCH  15  17
ENDBRANCH  11  15
TORSDOF 5
ENDMDL
MODEL 6
REMARK VINA RESULT:      -7.3     14.749     18.228
REMARK  5 active torsions:
REMARK  status: ('A' for Active; 'I' for Inactive)
REMARK    1  A    between atoms: C_11  and  C_15 
REMARK    2  A    between atoms: C_15  and  C_17 
REMARK    3  A    between atoms: C_18  and  C_19 
REMARK    4  A    between atoms: C_22  and  C_25 
REMARK    5  A    between atoms: C_25  and  O_26 
ROOT
HETATM    1  C   UNK N   1      29.400  15.113   5.455  0.00  0.00     0.020 C 
HETATM    2  C   UNK N   1      29.486  16.625   5.586  0.00  0.00    -0.020 C 
HETATM    3  C   UNK N   1      29.571  17.220   4.188  0.00  0.00     0.020 C 
HETATM    4  C   UNK N   1      28.206  17.181   6.205  0.00  0.00     0.015 C 
HETATM    5  C   UNK N   1      28.172  16.931   7.698  0.00  0.00     0.015 C 
HETATM    6  C   UNK N   1      29.295  17.682   8.416  0.00  0.00    -0.020 C 
HETATM    7  C   UNK N   1      28.942  19.152   8.563  0.00  0.00     0.020 C 
HETATM    8  C   UNK N   1      29.383  17.063   9.801  0.00  0.00     0.020 C 
HETATM    9  C   UNK N   1      30.629  17.543   7.705  0.00  0.00    -0.042 A 
HETATM   10  C   UNK N   1      31.810  17.916   8.384  0.00  0.00     0.024 A 
HETATM   11  C   UNK N   1      33.064  17.705   7.803  0.00  0.00     0.015 A 
HETATM   12  C   UNK N   1      33.121  17.146   6.516  0.00  0.00     0.016 A 
HETATM   13  C   UNK N   1      31.975  16.801   5.823  0.00  0.00     0.009 A 
HETATM   14  C   UNK N   1      30.717  16.998   6.394  0.00  0.00    -0.043 A 
ENDROOT
BRANCH  11  15
HETATM   15  C   UNK N   1      34.331  18.039   8.533  0.00  0.00     0.182 C 
HETATM   16  O   UNK N   1      34.988  19.017   8.211  0.00  0.00    -0.288 OA
BRANCH  15  17
HETATM   17  C   UNK N   1      34.825  17.149   9.613  0.00  0.00     0.056 C 
HETATM   18  C   UNK N   1      34.203  15.977   9.768  0.00  0.00     0.015 C 
BRANCH  18  19
HETATM   19  C   UNK N   1      34.817  14.765  10.279  0.00  0.00    -0.036 A 
HETATM   20  C   UNK N   1      34.785  14.433  11.637  0.00  0.00     0.012 A 
HETATM   21  C   UNK N   1      35.650  13.452  12.130  0.00  0.00     0.019 A 
HETATM   22  C   UNK N   1      36.576  12.834  11.273  0.00  0.00     0.037 A 
HETATM   23  C   UNK N   1      36.580  13.153   9.911  0.00  0.00     0.019 A 
HETATM   24  C   UNK N   1      35.704  14.115   9.420  0.00  0.00     0.012 A 
BRANCH  22  25
HETATM   25  C   UNK N   1      37.582  11.909  11.817  0.00  0.00     0.176 C 
HETATM   26  O   UNK N   1      38.138  11.105  11.083  0.00  0.00    -0.646 OA
BRANCH  25  27
HETATM   27  O   UNK N   1      37.937  11.979  13.113  0.00  0.00    -0.773 OA
HETATM   28  H   UNK N   1      38.092  12.673  13.724  0.00  0.00     0.167 HD
ENDBRANCH  25  27
ENDBRANCH  22  25
ENDBRANCH  18  19
ENDBRANCH  15  17
ENDBRANCH  11  15
TORSDOF 5
ENDMDL
MODEL 7
REMARK VINA RESULT:      -7.3     13.925     17.213
REMARK  5 active torsions:
REMARK  status: ('A' for Active; 'I' for Inactive)
REMARK    1  A    between atoms: C_11  and  C_15 
REMARK    2  A    between atoms: C_15  and  C_17 
REMARK    3  A    between atoms: C_18  and  C_19 
REMARK    4  A    between atoms: C_22  and  C_25 
REMARK    5  A    between atoms: C_25  and  O_26 
ROOT
HETATM    1  C   UNK N   1      27.080  17.355   5.664  0.00  0.00     0.020 C 
HETATM    2  C   UNK N   1      28.123  18.406   6.012  0.00  0.00    -0.020 C 
HETATM    3  C   UNK N   1      28.044  19.518   4.976  0.00  0.00     0.020 C 
HETATM    4  C   UNK N   1      27.797  19.056   7.356  0.00  0.00     0.015 C 
HETATM    5  C   UNK N   1      28.160  18.139   8.504  0.00  0.00     0.015 C 
HETATM    6  C   UNK N   1      29.668  17.886   8.562  0.00  0.00    -0.020 C 
HETATM    7  C   UNK N   1      30.383  19.079   9.171  0.00  0.00     0.020 C 
HETATM    8  C   UNK N   1      29.848  16.691   9.483  0.00  0.00     0.020 C 
HETATM    9  C   UNK N   1      30.255  17.576   7.198  0.00  0.00    -0.042 A 
HETATM   10  C   UNK N   1      31.555  17.031   7.117  0.00  0.00     0.024 A 
HETATM   11  C   UNK N   1      32.088  16.636   5.888  0.00  0.00     0.015 A 
HETATM   12  C   UNK N   1      31.318  16.825   4.730  0.00  0.00     0.016 A 
HETATM   13  C   UNK N   1      30.053  17.384   4.783  0.00  0.00     0.009 A 
HETATM   14  C   UNK N   1      29.504  17.775   6.006  0.00  0.00    -0.043 A 
ENDROOT
BRANCH  11  15
HETATM   15  C   UNK N   1      33.444  15.999   5.791  0.00  0.00     0.182 C 
HETATM   16  O   UNK N   1      34.037  15.972   4.724  0.00  0.00    -0.288 OA
BRANCH  15  17
HETATM   17  C   UNK N   1      34.045  15.345   6.979  0.00  0.00     0.056 C 
HETATM   18  C   UNK N   1      34.533  16.143   7.932  0.00  0.00     0.015 C 
BRANCH  18  19
HETATM   19  C   UNK N   1      34.601  15.815   9.344  0.00  0.00    -0.036 A 
HETATM   20  C   UNK N   1      35.353  16.574  10.247  0.00  0.00     0.012 A 
HETATM   21  C   UNK N   1      35.655  16.050  11.507  0.00  0.00     0.019 A 
HETATM   22  C   UNK N   1      35.244  14.752  11.848  0.00  0.00     0.037 A 
HETATM   23  C   UNK N   1      34.468  14.012  10.949  0.00  0.00     0.019 A 
HETATM   24  C   UNK N   1      34.151  14.544   9.703  0.00  0.00     0.012 A 
BRANCH  22  25
HETATM   25  C   UNK N   1      35.684  14.145  13.114  0.00  0.00     0.176 C 
HETATM   26  O   UNK N   1      35.002  13.286  13.654  0.00  0.00    -0.646 OA
BRANCH  25  27
HETATM   27  O   UNK N   1      36.865  14.492  13.657  0.00  0.00    -0.773 OA
HETATM   28  H   UNK N   1      37.159  14.731  14.514  0.00  0.00     0.167 HD
ENDBRANCH  25  27
ENDBRANCH  22  25
ENDBRANCH  18  19
ENDBRANCH  15  17
ENDBRANCH  11  15
TORSDOF 5
ENDMDL
MODEL 8
REMARK VINA RESULT:      -7.3     15.300     17.247
REMARK  5 active torsions:
REMARK  status: ('A' for Active; 'I' for Inactive)
REMARK    1  A    between atoms: C_11  and  C_15 
REMARK    2  A    between atoms: C_15  and  C_17 
REMARK    3  A    between atoms: C_18  and  C_19 
REMARK    4  A    between atoms: C_22  and  C_25 
REMARK    5  A    between atoms: C_25  and  O_26 
ROOT
HETATM    1  C   UNK N   1      23.633  12.037   2.147  0.00  0.00     0.020 C 
HETATM    2  C   UNK N   1      23.467  13.499   1.764  0.00  0.00    -0.020 C 
HETATM    3  C   UNK N   1      24.842  14.067   1.445  0.00  0.00     0.020 C 
HETATM    4  C   UNK N   1      22.649  13.624   0.480  0.00  0.00     0.015 C 
HETATM    5  C   UNK N   1      21.177  13.400   0.750  0.00  0.00     0.015 C 
HETATM    6  C   UNK N   1      20.606  14.483   1.668  0.00  0.00    -0.020 C 
HETATM    7  C   UNK N   1      20.361  15.763   0.890  0.00  0.00     0.020 C 
HETATM    8  C   UNK N   1      19.270  13.946   2.153  0.00  0.00     0.020 C 
HETATM    9  C   UNK N   1      21.508  14.768   2.855  0.00  0.00    -0.042 A 
HETATM   10  C   UNK N   1      20.997  15.511   3.942  0.00  0.00     0.024 A 
HETATM   11  C   UNK N   1      21.761  15.703   5.096  0.00  0.00     0.015 A 
HETATM   12  C   UNK N   1      23.059  15.173   5.137  0.00  0.00     0.016 A 
HETATM   13  C   UNK N   1      23.590  14.467   4.072  0.00  0.00     0.009 A 
HETATM   14  C   UNK N   1      22.835  14.259   2.917  0.00  0.00    -0.043 A 
ENDROOT
BRANCH  11  15
HETATM   15  C   UNK N   1      21.212  16.438   6.284  0.00  0.00     0.182 C 
HETATM   16  O   UNK N   1      20.690  17.533   6.144  0.00  0.00    -0.288 OA
BRANCH  15  17
HETATM   17  C   UNK N   1      21.353  15.864   7.645  0.00  0.00     0.056 C 
HETATM   18  C   UNK N   1      20.868  14.635   7.841  0.00  0.00     0.015 C 
BRANCH  18  19
HETATM   19  C   UNK N   1      21.379  13.677   8.804  0.00  0.00    -0.036 A 
HETATM   20  C   UNK N   1      20.619  13.248   9.897  0.00  0.00     0.012 A 
HETATM   21  C   UNK N   1      21.247  12.594  10.961  0.00  0.00     0.019 A 
HETATM   22  C   UNK N   1      22.639  12.408  10.952  0.00  0.00     0.037 A 
HETATM   23  C   UNK N   1      23.385  12.816   9.841  0.00  0.00     0.019 A 
HETATM   24  C   UNK N   1      22.755  13.448   8.774  0.00  0.00     0.012 A 
BRANCH  22  25
HETATM   25  C   UNK N   1      23.319  11.852  12.132  0.00  0.00     0.176 C 
HETATM   26  O   UNK N   1      24.525  11.998  12.273  0.00  0.00    -0.646 OA
BRANCH  25  27
HETATM   27  O   UNK N   1      22.610  11.229  13.091  0.00  0.00    -0.773 OA
HETATM   28  H   UNK N   1      21.733  10.908  13.168  0.00  0.00     0.167 HD
ENDBRANCH  25  27
ENDBRANCH  22  25
ENDBRANCH  18  19
ENDBRANCH  15  17
ENDBRANCH  11  15
TORSDOF 5
ENDMDL
MODEL 9
REMARK VINA RESULT:      -7.3     11.342     14.136
REMARK  5 active torsions:
REMARK  status: ('A' for Active; 'I' for Inactive)
REMARK    1  A    between atoms: C_11  and  C_15 
REMARK    2  A    between atoms: C_15  and  C_17 
REMARK    3  A    between atoms: C_18  and  C_19 
REMARK    4  A    between atoms: C_22  and  C_25 
REMARK    5  A    between atoms: C_25  and  O_26 
ROOT
HETATM    1  C   UNK N   1      24.253  13.129   2.984  0.00  0.00     0.020 C 
HETATM    2  C   UNK N   1      23.884  14.462   2.352  0.00  0.00    -0.020 C 
HETATM    3  C   UNK N   1      24.088  14.350   0.849  0.00  0.00     0.020 C 
HETATM    4  C   UNK N   1      22.400  14.757   2.557  0.00  0.00     0.015 C 
HETATM    5  C   UNK N   1      22.127  15.213   3.974  0.00  0.00     0.015 C 
HETATM    6  C   UNK N   1      22.821  16.543   4.276  0.00  0.00    -0.020 C 
HETATM    7  C   UNK N   1      22.049  17.697   3.661  0.00  0.00     0.020 C 
HETATM    8  C   UNK N   1      22.788  16.689   5.788  0.00  0.00     0.020 C 
HETATM    9  C   UNK N   1      24.258  16.569   3.789  0.00  0.00    -0.042 A 
HETATM   10  C   UNK N   1      25.120  17.590   4.246  0.00  0.00     0.024 A 
HETATM   11  C   UNK N   1      26.475  17.586   3.903  0.00  0.00     0.015 A 
HETATM   12  C   UNK N   1      26.952  16.566   3.066  0.00  0.00     0.016 A 
HETATM   13  C   UNK N   1      26.119  15.573   2.583  0.00  0.00     0.009 A 
HETATM   14  C   UNK N   1      24.766  15.558   2.925  0.00  0.00    -0.043 A 
ENDROOT
BRANCH  11  15
HETATM   15  C   UNK N   1      27.418  18.629   4.429  0.00  0.00     0.182 C 
HETATM   16  O   UNK N   1      27.588  19.671   3.815  0.00  0.00    -0.288 OA
BRANCH  15  17
HETATM   17  C   UNK N   1      28.193  18.374   5.667  0.00  0.00     0.056 C 
HETATM   18  C   UNK N   1      28.988  17.301   5.677  0.00  0.00     0.015 C 
BRANCH  18  19
HETATM   19  C   UNK N   1      30.214  17.174   6.444  0.00  0.00    -0.036 A 
HETATM   20  C   UNK N   1      30.266  17.461   7.812  0.00  0.00     0.012 A 
HETATM   21  C   UNK N   1      31.505  17.643   8.434  0.00  0.00     0.019 A 
HETATM   22  C   UNK N   1      32.688  17.581   7.680  0.00  0.00     0.037 A 
HETATM   23  C   UNK N   1      32.626  17.266   6.318  0.00  0.00     0.019 A 
HETATM   24  C   UNK N   1      31.393  17.064   5.706  0.00  0.00     0.012 A 
BRANCH  22  25
HETATM   25  C   UNK N   1      33.979  17.915   8.301  0.00  0.00     0.176 C 
HETATM   26  O   UNK N   1      34.794  18.598   7.697  0.00  0.00    -0.646 OA
BRANCH  25  27
HETATM   27  O   UNK N   1      34.249  17.518   9.558  0.00  0.00    -0.773 OA
HETATM   28  H   UNK N   1      34.695  17.891  10.292  0.00  0.00     0.167 HD
ENDBRANCH  25  27
ENDBRANCH  22  25
ENDBRANCH  18  19
ENDBRANCH  15  17
ENDBRANCH  11  15
TORSDOF 5
ENDMDL
