REMARK  6 active torsions:
REMARK  status: ('A' for Active; 'I' for Inactive)
REMARK    1  A    between atoms: C_4  and  C_2 
REMARK    2  A    between atoms: O_20  and  C_2 
REMARK    3  A    between atoms: C_10  and  C_6 
REMARK    4  A    between atoms: C_8  and  O_21 
REMARK    5  A    between atoms: C_9  and  O_22 
REMARK    6  A    between atoms: N_12  and  C_11 
ROOT
HETATM    1  C   UNK N   1       5.223   0.340   0.459  0.00  0.00     0.182 A 
HETATM    2  C   UNK N   1       2.913   0.245   0.152  0.00  0.00     0.092 A 
HETATM    3  C   UNK N   1       1.598   0.604   0.065  0.00  0.00     0.086 A 
HETATM    4  C   UNK N   1       2.966  -1.069  -0.141  0.00  0.00     0.120 A 
HETATM    5  C   UNK N   1       4.185  -1.733  -0.121  0.00  0.00     0.132 A 
HETATM    6  N   UNK N   1       4.012   0.975   0.455  0.00  0.00    -0.349 N 
ATOM      7  HN  UNK N   1       3.939   1.969   0.673  1.00  0.00     0.167 HD
HETATM    8  N   UNK N   1       5.304  -1.003   0.180  0.00  0.00    -0.337 N 
ATOM      9  HN  UNK N   1       6.213  -1.464   0.198  1.00  0.00     0.168 HD
HETATM   10  N   UNK N   1       0.884  -0.494  -0.290  0.00  0.00    -0.299 N 
HETATM   11  N   UNK N   1       1.727  -1.524  -0.409  0.00  0.00    -0.295 N 
ATOM     12  HN  UNK N   1       1.477  -2.481  -0.659  1.00  0.00     0.187 HD
HETATM   13  H   UNK N   1      -0.089  -0.527  -0.434  0.00  0.00     0.186 HD
ENDROOT
BRANCH   3  14
HETATM   14  C   UNK N   1       1.054   1.971   0.357  0.00  0.00     0.207 C 
HETATM   15  C   UNK N   1      -0.387   2.208  -0.034  0.00  0.00     0.184 C 
HETATM   16  C   UNK N   1      -0.461   3.720   0.078  0.00  0.00     0.180 C 
HETATM   17  C   UNK N   1       1.023   4.129  -0.082  0.00  0.00     0.177 C 
HETATM   18  O   UNK N   1       1.751   2.955  -0.367  0.00  0.00    -0.367 OA
BRANCH  15  19
HETATM   19  O   UNK N   1      -1.311   1.553   0.783  0.00  0.00    -0.390 OA
HETATM   20  H   UNK N   1      -2.026   1.881   1.351  0.00  0.00     0.210 HD
ENDBRANCH  15  19
BRANCH  16  21
HETATM   21  O   UNK N   1      -1.298   4.237  -0.917  0.00  0.00    -0.390 OA
HETATM   22  H   UNK N   1      -1.278   4.919  -1.606  0.00  0.00     0.210 HD
ENDBRANCH  16  21
BRANCH  17  23
HETATM   23  C   UNK N   1       1.292   5.211  -1.119  0.00  0.00     0.198 C 
BRANCH  23  24
HETATM   24  O   UNK N   1       0.782   6.433  -0.676  0.00  0.00    -0.398 OA
HETATM   25  H   UNK N   1       1.340   7.165  -0.368  0.00  0.00     0.209 HD
ENDBRANCH  23  24
ENDBRANCH  17  23
ENDBRANCH   3  14
BRANCH   5  26
HETATM   26  N   UNK N   1       4.267  -3.119  -0.389  0.00  0.00    -0.379 N 
HETATM   27  C   UNK N   1       5.523  -3.821  -0.313  0.00  0.00     0.147 C 
HETATM   28  H   UNK N   1       3.452  -3.614  -0.632  0.00  0.00     0.160 HD
ENDBRANCH   5  26
TORSDOF 6
