REMARK  7 active torsions:
REMARK  status: ('A' for Active; 'I' for Inactive)
REMARK    1  A    between atoms: C_3  and  C_4 
REMARK    2  A    between atoms: C_4  and  C_5 
REMARK    3  A    between atoms: C_5  and  C_6 
REMARK    4  A    between atoms: C_6  and  O_7 
REMARK    5  A    between atoms: C_8  and  C_9 
REMARK    6  A    between atoms: C_9  and  O_10 
REMARK    7  A    between atoms: C_16  and  N_17 
ROOT
HETATM    1  C   UNK N   1      -0.759   1.902   0.063  0.00  0.00     0.156 C 
HETATM    2  N   UNK N   1      -0.496   0.468   0.046  0.00  0.00    -0.350 N 
HETATM    3  C   UNK N   1      -1.399  -0.547   0.048  0.00  0.00     0.021 A 
HETATM    4  C   UNK N   1      -0.734  -1.768   0.018  0.00  0.00     0.005 A 
HETATM    5  C   UNK N   1       0.631  -1.465  -0.015  0.00  0.00     0.057 A 
HETATM    6  C   UNK N   1       0.728  -0.095   0.008  0.00  0.00     0.100 A 
HETATM    7  C   UNK N   1       2.036   0.584  -0.025  0.00  0.00     0.201 A 
HETATM    8  O   UNK N   1       2.124   1.801   0.024  0.00  0.00    -0.286 OA
HETATM    9  C   UNK N   1       3.255  -0.249  -0.150  0.00  0.00     0.085 A 
HETATM   10  C   UNK N   1       3.188  -1.602  -0.179  0.00  0.00     0.066 A 
HETATM   11  C   UNK N   1       1.860  -2.293  -0.088  0.00  0.00     0.206 A 
HETATM   12  O   UNK N   1       1.803  -3.511  -0.104  0.00  0.00    -0.285 OA
ENDROOT
BRANCH   3  13
HETATM   13  C   UNK N   1      -2.905  -0.434   0.062  0.00  0.00     0.060 C 
BRANCH  13  14
HETATM   14  C   UNK N   1      -3.458   0.976   0.036  0.00  0.00     0.032 C 
BRANCH  14  15
HETATM   15  C   UNK N   1      -4.968   0.930  -0.003  0.00  0.00     0.164 C 
BRANCH  15  16
HETATM   16  O   UNK N   1      -5.466   2.231  -0.009  0.00  0.00    -0.401 OA
HETATM   17  H   UNK N   1      -4.855   2.984  -0.014  0.00  0.00     0.209 HD
ENDBRANCH  15  16
ENDBRANCH  14  15
ENDBRANCH  13  14
ENDBRANCH   3  13
BRANCH   4  18
HETATM   18  C   UNK N   1      -1.459  -3.091   0.007  0.00  0.00     0.206 C 
BRANCH  18  19
HETATM   19  O   UNK N   1      -0.615  -4.195   0.005  0.00  0.00    -0.396 OA
HETATM   20  H   UNK N   1      -0.988  -5.091   0.004  0.00  0.00     0.209 HD
ENDBRANCH  18  19
ENDBRANCH   4  18
BRANCH  10  21
HETATM   21  N   UNK N   1       4.381  -2.352  -0.376  0.00  0.00    -0.278 NA
HETATM   22  C   UNK N   1       5.534  -2.199   0.392  0.00  0.00     0.110 A 
HETATM   23  C   UNK N   1       4.660  -3.572   0.239  0.00  0.00     0.110 A 
ENDBRANCH  10  21
TORSDOF 7
