MODEL 1
REMARK VINA RESULT:      -7.2      0.000      0.000
REMARK  4 active torsions:
REMARK  status: ('A' for Active; 'I' for Inactive)
REMARK    1  A    between atoms: C_4  and  C_5 
REMARK    2  A    between atoms: C_5  and  N_6 
REMARK       I    between atoms: N_6  and  C_7 
REMARK    3  A    between atoms: C_7  and  C_9 
REMARK    4  A    between atoms: C_14  and  N_15 
ROOT
HETATM    1  C   UNK N   1      28.249  17.200   7.586  0.00  0.00     0.059 A 
HETATM    2  C   UNK N   1      28.152  17.606   8.927  0.00  0.00     0.019 A 
HETATM    3  C   UNK N   1      29.283  18.004   9.645  0.00  0.00     0.002 A 
HETATM    4  C   UNK N   1      30.539  18.006   9.037  0.00  0.00     0.016 A 
HETATM    5  C   UNK N   1      30.675  17.610   7.701  0.00  0.00     0.019 A 
HETATM    6  C   UNK N   1      31.933  17.608   7.068  0.00  0.00     0.051 A 
HETATM    7  C   UNK N   1      32.030  17.205   5.723  0.00  0.00     0.019 A 
HETATM    8  C   UNK N   1      30.862  16.809   5.038  0.00  0.00     0.062 A 
HETATM    9  N   UNK N   1      29.670  16.822   5.677  0.00  0.00    -0.353 N 
HETATM   10  C   UNK N   1      29.530  17.205   6.974  0.00  0.00     0.061 A 
HETATM   11  C   UNK N   1      30.934  16.403   3.696  0.00  0.00     0.038 A 
HETATM   12 Br   UNK N   1      29.362  15.862   2.748  0.00  0.00    -0.049 Br
HETATM   13  C   UNK N   1      32.166  16.391   3.039  0.00  0.00     0.021 A 
HETATM   14  C   UNK N   1      33.326  16.782   3.714  0.00  0.00     0.002 A 
HETATM   15  C   UNK N   1      33.260  17.189   5.051  0.00  0.00     0.016 A 
HETATM   16  H   UNK N   1      28.868  16.542   5.180  0.00  0.00     0.166 HD
ENDROOT
BRANCH   1  17
HETATM   17  C   UNK N   1      27.026  16.777   6.806  0.00  0.00     0.253 C 
HETATM   18  N   UNK N   1      26.390  17.556   5.897  0.00  0.00    -0.355 N 
HETATM   19  H   UNK N   1      25.621  17.145   5.441  0.00  0.00     0.162 HD
HETATM   20  O   UNK N   1      26.575  15.655   6.981  0.00  0.00    -0.268 OA
BRANCH  18  21
HETATM   21  C   UNK N   1      26.699  18.907   5.517  0.00  0.00     0.150 C 
BRANCH  21  22
HETATM   22  C   UNK N   1      26.347  19.099   4.038  0.00  0.00     0.253 A 
HETATM   23  N   UNK N   1      25.202  19.990   3.859  0.00  0.00    -0.077 N 
HETATM   24  C   UNK N   1      25.289  20.534   2.517  0.00  0.00     0.269 C 
HETATM   25  C   UNK N   1      23.987  19.188   3.887  0.00  0.00     0.269 A 
HETATM   26  H   UNK N   1      25.157  18.977   3.983  0.00  0.00     0.279 HD
ENDBRANCH  21  22
ENDBRANCH  18  21
ENDBRANCH   1  17
BRANCH   6  27
HETATM   27  N   UNK N   1      33.091  18.011   7.775  0.00  0.00    -0.398 N 
HETATM   28  H   UNK N   1      33.507  18.882   7.583  0.00  0.00     0.156 HD
HETATM   29  H   UNK N   1      33.479  17.419   8.460  0.00  0.00     0.156 HD
ENDBRANCH   6  27
TORSDOF 4
ENDMDL
MODEL 2
REMARK VINA RESULT:      -7.1      4.058      8.172
REMARK  4 active torsions:
REMARK  status: ('A' for Active; 'I' for Inactive)
REMARK    1  A    between atoms: C_4  and  C_5 
REMARK    2  A    between atoms: C_5  and  N_6 
REMARK       I    between atoms: N_6  and  C_7 
REMARK    3  A    between atoms: C_7  and  C_9 
REMARK    4  A    between atoms: C_14  and  N_15 
ROOT
HETATM    1  C   UNK N   1      34.006  16.703   7.302  0.00  0.00     0.059 A 
HETATM    2  C   UNK N   1      35.002  16.041   6.565  0.00  0.00     0.019 A 
HETATM    3  C   UNK N   1      34.673  15.207   5.492  0.00  0.00     0.002 A 
HETATM    4  C   UNK N   1      33.339  15.019   5.130  0.00  0.00     0.016 A 
HETATM    5  C   UNK N   1      32.319  15.663   5.839  0.00  0.00     0.019 A 
HETATM    6  C   UNK N   1      30.966  15.488   5.487  0.00  0.00     0.051 A 
HETATM    7  C   UNK N   1      29.968  16.154   6.223  0.00  0.00     0.019 A 
HETATM    8  C   UNK N   1      30.346  16.983   7.300  0.00  0.00     0.062 A 
HETATM    9  N   UNK N   1      31.654  17.128   7.611  0.00  0.00    -0.353 N 
HETATM   10  C   UNK N   1      32.651  16.505   6.927  0.00  0.00     0.061 A 
HETATM   11  C   UNK N   1      29.369  17.658   8.048  0.00  0.00     0.038 A 
HETATM   12 Br   UNK N   1      29.859  18.789   9.513  0.00  0.00    -0.049 Br
HETATM   13  C   UNK N   1      28.019  17.507   7.724  0.00  0.00     0.021 A 
HETATM   14  C   UNK N   1      27.640  16.686   6.659  0.00  0.00     0.002 A 
HETATM   15  C   UNK N   1      28.609  16.012   5.909  0.00  0.00     0.016 A 
HETATM   16  H   UNK N   1      31.895  17.712   8.366  0.00  0.00     0.166 HD
ENDROOT
BRANCH   1  17
HETATM   17  C   UNK N   1      34.360  17.609   8.458  0.00  0.00     0.253 C 
HETATM   18  N   UNK N   1      34.591  17.181   9.724  0.00  0.00    -0.355 N 
HETATM   19  H   UNK N   1      34.839  17.876  10.374  0.00  0.00     0.162 HD
HETATM   20  O   UNK N   1      34.465  18.808   8.255  0.00  0.00    -0.268 OA
BRANCH  18  21
HETATM   21  C   UNK N   1      34.517  15.839  10.233  0.00  0.00     0.150 C 
BRANCH  21  22
HETATM   22  C   UNK N   1      35.939  15.325  10.482  0.00  0.00     0.253 A 
HETATM   23  N   UNK N   1      35.954  14.166  11.372  0.00  0.00    -0.077 N 
HETATM   24  C   UNK N   1      37.185  13.444  11.114  0.00  0.00     0.269 C 
HETATM   25  C   UNK N   1      36.050  14.642  12.745  0.00  0.00     0.269 A 
HETATM   26  H   UNK N   1      36.002  15.143  11.663  0.00  0.00     0.279 HD
ENDBRANCH  21  22
ENDBRANCH  18  21
ENDBRANCH   1  17
BRANCH   6  27
HETATM   27  N   UNK N   1      30.611  14.652   4.402  0.00  0.00    -0.398 N 
HETATM   28  H   UNK N   1      29.972  13.916   4.536  0.00  0.00     0.156 HD
HETATM   29  H   UNK N   1      31.005  14.808   3.512  0.00  0.00     0.156 HD
ENDBRANCH   6  27
TORSDOF 4
ENDMDL
MODEL 3
REMARK VINA RESULT:      -7.1      2.303      3.165
REMARK  4 active torsions:
REMARK  status: ('A' for Active; 'I' for Inactive)
REMARK    1  A    between atoms: C_4  and  C_5 
REMARK    2  A    between atoms: C_5  and  N_6 
REMARK       I    between atoms: N_6  and  C_7 
REMARK    3  A    between atoms: C_7  and  C_9 
REMARK    4  A    between atoms: C_14  and  N_15 
ROOT
HETATM    1  C   UNK N   1      29.548  17.819   8.227  0.00  0.00     0.059 A 
HETATM    2  C   UNK N   1      30.708  18.337   8.827  0.00  0.00     0.019 A 
HETATM    3  C   UNK N   1      31.980  17.966   8.382  0.00  0.00     0.002 A 
HETATM    4  C   UNK N   1      32.121  17.067   7.323  0.00  0.00     0.016 A 
HETATM    5  C   UNK N   1      30.988  16.531   6.699  0.00  0.00     0.019 A 
HETATM    6  C   UNK N   1      31.109  15.626   5.626  0.00  0.00     0.051 A 
HETATM    7  C   UNK N   1      29.947  15.110   5.023  0.00  0.00     0.019 A 
HETATM    8  C   UNK N   1      28.685  15.511   5.507  0.00  0.00     0.062 A 
HETATM    9  N   UNK N   1      28.605  16.381   6.539  0.00  0.00    -0.353 N 
HETATM   10  C   UNK N   1      29.701  16.905   7.151  0.00  0.00     0.061 A 
HETATM   11  C   UNK N   1      27.512  15.009   4.921  0.00  0.00     0.038 A 
HETATM   12 Br   UNK N   1      25.788  15.540   5.562  0.00  0.00    -0.049 Br
HETATM   13  C   UNK N   1      27.597  14.111   3.855  0.00  0.00     0.021 A 
HETATM   14  C   UNK N   1      28.846  13.710   3.373  0.00  0.00     0.002 A 
HETATM   15  C   UNK N   1      30.018  14.207   3.952  0.00  0.00     0.016 A 
HETATM   16  H   UNK N   1      27.713  16.648   6.861  0.00  0.00     0.166 HD
ENDROOT
BRANCH   1  17
HETATM   17  C   UNK N   1      28.173  18.225   8.703  0.00  0.00     0.253 C 
HETATM   18  N   UNK N   1      27.441  19.230   8.161  0.00  0.00    -0.355 N 
HETATM   19  H   UNK N   1      26.549  19.370   8.551  0.00  0.00     0.162 HD
HETATM   20  O   UNK N   1      27.663  17.609   9.626  0.00  0.00    -0.268 OA
BRANCH  18  21
HETATM   21  C   UNK N   1      27.807  20.115   7.090  0.00  0.00     0.150 C 
BRANCH  21  22
HETATM   22  C   UNK N   1      26.589  20.330   6.187  0.00  0.00     0.253 A 
HETATM   23  N   UNK N   1      26.549  19.372   5.085  0.00  0.00    -0.077 N 
HETATM   24  C   UNK N   1      25.168  19.281   4.646  0.00  0.00     0.269 C 
HETATM   25  C   UNK N   1      27.288  19.931   3.962  0.00  0.00     0.269 A 
HETATM   26  H   UNK N   1      27.016  20.279   5.070  0.00  0.00     0.279 HD
ENDBRANCH  21  22
ENDBRANCH  18  21
ENDBRANCH   1  17
BRANCH   6  27
HETATM   27  N   UNK N   1      32.387  15.239   5.157  0.00  0.00    -0.398 N 
HETATM   28  H   UNK N   1      32.471  14.740   4.313  0.00  0.00     0.156 HD
HETATM   29  H   UNK N   1      33.192  15.471   5.675  0.00  0.00     0.156 HD
ENDBRANCH   6  27
TORSDOF 4
ENDMDL
MODEL 4
REMARK VINA RESULT:      -7.0     11.439     14.014
REMARK  4 active torsions:
REMARK  status: ('A' for Active; 'I' for Inactive)
REMARK    1  A    between atoms: C_4  and  C_5 
REMARK    2  A    between atoms: C_5  and  N_6 
REMARK       I    between atoms: N_6  and  C_7 
REMARK    3  A    between atoms: C_7  and  C_9 
REMARK    4  A    between atoms: C_14  and  N_15 
ROOT
HETATM    1  C   UNK N   1      26.463  25.148  -5.232  0.00  0.00     0.059 A 
HETATM    2  C   UNK N   1      25.570  25.589  -6.224  0.00  0.00     0.019 A 
HETATM    3  C   UNK N   1      25.584  25.034  -7.507  0.00  0.00     0.002 A 
HETATM    4  C   UNK N   1      26.490  24.022  -7.827  0.00  0.00     0.016 A 
HETATM    5  C   UNK N   1      27.392  23.555  -6.865  0.00  0.00     0.019 A 
HETATM    6  C   UNK N   1      28.312  22.531  -7.168  0.00  0.00     0.051 A 
HETATM    7  C   UNK N   1      29.203  22.086  -6.174  0.00  0.00     0.019 A 
HETATM    8  C   UNK N   1      29.156  22.677  -4.893  0.00  0.00     0.062 A 
HETATM    9  N   UNK N   1      28.261  23.658  -4.637  0.00  0.00    -0.353 N 
HETATM   10  C   UNK N   1      27.381  24.118  -5.567  0.00  0.00     0.061 A 
HETATM   11  C   UNK N   1      30.035  22.249  -3.886  0.00  0.00     0.038 A 
HETATM   12 Br   UNK N   1      29.987  23.036  -2.141  0.00  0.00    -0.049 Br
HETATM   13  C   UNK N   1      30.957  21.236  -4.153  0.00  0.00     0.021 A 
HETATM   14  C   UNK N   1      31.008  20.648  -5.420  0.00  0.00     0.002 A 
HETATM   15  C   UNK N   1      30.135  21.070  -6.428  0.00  0.00     0.016 A 
HETATM   16  H   UNK N   1      28.245  24.056  -3.737  0.00  0.00     0.166 HD
ENDROOT
BRANCH   1  17
HETATM   17  C   UNK N   1      26.445  25.741  -3.843  0.00  0.00     0.253 C 
HETATM   18  N   UNK N   1      26.323  27.066  -3.578  0.00  0.00    -0.355 N 
HETATM   19  H   UNK N   1      26.299  27.313  -2.626  0.00  0.00     0.162 HD
HETATM   20  O   UNK N   1      26.529  24.993  -2.882  0.00  0.00    -0.268 OA
BRANCH  18  21
HETATM   21  C   UNK N   1      26.227  28.152  -4.515  0.00  0.00     0.150 C 
BRANCH  21  22
HETATM   22  C   UNK N   1      27.639  28.623  -4.874  0.00  0.00     0.253 A 
HETATM   23  N   UNK N   1      27.694  29.222  -6.206  0.00  0.00    -0.077 N 
HETATM   24  C   UNK N   1      28.852  30.096  -6.236  0.00  0.00     0.269 C 
HETATM   25  C   UNK N   1      27.965  28.167  -7.173  0.00  0.00     0.269 A 
HETATM   26  H   UNK N   1      27.824  28.233  -5.990  0.00  0.00     0.279 HD
ENDBRANCH  21  22
ENDBRANCH  18  21
ENDBRANCH   1  17
BRANCH   6  27
HETATM   27  N   UNK N   1      28.340  21.953  -8.459  0.00  0.00    -0.398 N 
HETATM   28  H   UNK N   1      28.613  21.014  -8.572  0.00  0.00     0.156 HD
HETATM   29  H   UNK N   1      28.085  22.491  -9.244  0.00  0.00     0.156 HD
ENDBRANCH   6  27
TORSDOF 4
ENDMDL
MODEL 5
REMARK VINA RESULT:      -7.0      7.921     10.542
REMARK  4 active torsions:
REMARK  status: ('A' for Active; 'I' for Inactive)
REMARK    1  A    between atoms: C_4  and  C_5 
REMARK    2  A    between atoms: C_5  and  N_6 
REMARK       I    between atoms: N_6  and  C_7 
REMARK    3  A    between atoms: C_7  and  C_9 
REMARK    4  A    between atoms: C_14  and  N_15 
ROOT
HETATM    1  C   UNK N   1      36.193  13.403   9.842  0.00  0.00     0.059 A 
HETATM    2  C   UNK N   1      35.922  13.089   8.500  0.00  0.00     0.019 A 
HETATM    3  C   UNK N   1      35.074  12.030   8.163  0.00  0.00     0.002 A 
HETATM    4  C   UNK N   1      34.476  11.261   9.163  0.00  0.00     0.016 A 
HETATM    5  C   UNK N   1      34.720  11.545  10.511  0.00  0.00     0.019 A 
HETATM    6  C   UNK N   1      34.123  10.784  11.535  0.00  0.00     0.051 A 
HETATM    7  C   UNK N   1      34.391  11.101  12.879  0.00  0.00     0.019 A 
HETATM    8  C   UNK N   1      35.255  12.177  13.173  0.00  0.00     0.062 A 
HETATM    9  N   UNK N   1      35.812  12.887  12.165  0.00  0.00    -0.353 N 
HETATM   10  C   UNK N   1      35.580  12.616  10.853  0.00  0.00     0.061 A 
HETATM   11  C   UNK N   1      35.537  12.512  14.506  0.00  0.00     0.038 A 
HETATM   12 Br   UNK N   1      36.707  13.969  14.927  0.00  0.00    -0.049 Br
HETATM   13  C   UNK N   1      34.960  11.778  15.544  0.00  0.00     0.021 A 
HETATM   14  C   UNK N   1      34.105  10.711  15.258  0.00  0.00     0.002 A 
HETATM   15  C   UNK N   1      33.819  10.372  13.931  0.00  0.00     0.016 A 
HETATM   16  H   UNK N   1      36.412  13.634  12.393  0.00  0.00     0.166 HD
ENDROOT
BRANCH   1  17
HETATM   17  C   UNK N   1      37.103  14.552  10.208  0.00  0.00     0.253 C 
HETATM   18  N   UNK N   1      36.673  15.752  10.671  0.00  0.00    -0.355 N 
HETATM   19  H   UNK N   1      37.376  16.403  10.897  0.00  0.00     0.162 HD
HETATM   20  O   UNK N   1      38.310  14.404  10.102  0.00  0.00    -0.268 OA
BRANCH  18  21
HETATM   21  C   UNK N   1      35.319  16.192  10.871  0.00  0.00     0.150 C 
BRANCH  21  22
HETATM   22  C   UNK N   1      34.755  16.683   9.534  0.00  0.00     0.253 A 
HETATM   23  N   UNK N   1      33.299  16.576   9.482  0.00  0.00    -0.077 N 
HETATM   24  C   UNK N   1      32.835  17.524   8.487  0.00  0.00     0.269 C 
HETATM   25  C   UNK N   1      32.953  15.257   8.970  0.00  0.00     0.269 A 
HETATM   26  H   UNK N   1      33.961  15.849   9.206  0.00  0.00     0.279 HD
ENDBRANCH  21  22
ENDBRANCH  18  21
ENDBRANCH   1  17
BRANCH   6  27
HETATM   27  N   UNK N   1      33.259   9.710  11.216  0.00  0.00    -0.398 N 
HETATM   28  H   UNK N   1      33.290   8.879  11.743  0.00  0.00     0.156 HD
HETATM   29  H   UNK N   1      32.625   9.795  10.466  0.00  0.00     0.156 HD
ENDBRANCH   6  27
TORSDOF 4
ENDMDL
MODEL 6
REMARK VINA RESULT:      -6.9      3.152      6.756
REMARK  4 active torsions:
REMARK  status: ('A' for Active; 'I' for Inactive)
REMARK    1  A    between atoms: C_4  and  C_5 
REMARK    2  A    between atoms: C_5  and  N_6 
REMARK       I    between atoms: N_6  and  C_7 
REMARK    3  A    between atoms: C_7  and  C_9 
REMARK    4  A    between atoms: C_14  and  N_15 
ROOT
HETATM    1  C   UNK N   1      32.090  17.458   7.495  0.00  0.00     0.059 A 
HETATM    2  C   UNK N   1      31.820  18.173   8.674  0.00  0.00     0.019 A 
HETATM    3  C   UNK N   1      30.514  18.537   9.016  0.00  0.00     0.002 A 
HETATM    4  C   UNK N   1      29.447  18.191   8.186  0.00  0.00     0.016 A 
HETATM    5  C   UNK N   1      29.676  17.478   7.005  0.00  0.00     0.019 A 
HETATM    6  C   UNK N   1      28.611  17.116   6.155  0.00  0.00     0.051 A 
HETATM    7  C   UNK N   1      28.881  16.396   4.977  0.00  0.00     0.019 A 
HETATM    8  C   UNK N   1      30.214  16.053   4.670  0.00  0.00     0.062 A 
HETATM    9  N   UNK N   1      31.212  16.416   5.507  0.00  0.00    -0.353 N 
HETATM   10  C   UNK N   1      30.998  17.111   6.657  0.00  0.00     0.061 A 
HETATM   11  C   UNK N   1      30.507  15.335   3.500  0.00  0.00     0.038 A 
HETATM   12 Br   UNK N   1      32.309  14.858   3.065  0.00  0.00    -0.049 Br
HETATM   13  C   UNK N   1      29.475  14.960   2.638  0.00  0.00     0.021 A 
HETATM   14  C   UNK N   1      28.152  15.299   2.937  0.00  0.00     0.002 A 
HETATM   15  C   UNK N   1      27.854  16.014   4.102  0.00  0.00     0.016 A 
HETATM   16  H   UNK N   1      32.135  16.166   5.274  0.00  0.00     0.166 HD
ENDROOT
BRANCH   1  17
HETATM   17  C   UNK N   1      33.499  17.058   7.128  0.00  0.00     0.253 C 
HETATM   18  N   UNK N   1      34.124  15.946   7.589  0.00  0.00    -0.355 N 
HETATM   19  H   UNK N   1      35.034  15.792   7.248  0.00  0.00     0.162 HD
HETATM   20  O   UNK N   1      34.128  17.761   6.353  0.00  0.00    -0.268 OA
BRANCH  18  21
HETATM   21  C   UNK N   1      33.624  14.967   8.515  0.00  0.00     0.150 C 
BRANCH  21  22
HETATM   22  C   UNK N   1      34.711  14.665   9.551  0.00  0.00     0.253 A 
HETATM   23  N   UNK N   1      34.486  15.381  10.806  0.00  0.00    -0.077 N 
HETATM   24  C   UNK N   1      35.184  14.650  11.847  0.00  0.00     0.269 C 
HETATM   25  C   UNK N   1      35.144  16.677  10.719  0.00  0.00     0.269 A 
HETATM   26  H   UNK N   1      35.015  15.730  10.005  0.00  0.00     0.279 HD
ENDBRANCH  21  22
ENDBRANCH  18  21
ENDBRANCH   1  17
BRANCH   6  27
HETATM   27  N   UNK N   1      27.282  17.471   6.484  0.00  0.00    -0.398 N 
HETATM   28  H   UNK N   1      26.549  16.833   6.328  0.00  0.00     0.156 HD
HETATM   29  H   UNK N   1      27.090  18.357   6.871  0.00  0.00     0.156 HD
ENDBRANCH   6  27
TORSDOF 4
ENDMDL
MODEL 7
REMARK VINA RESULT:      -6.8     11.123     13.753
REMARK  4 active torsions:
REMARK  status: ('A' for Active; 'I' for Inactive)
REMARK    1  A    between atoms: C_4  and  C_5 
REMARK    2  A    between atoms: C_5  and  N_6 
REMARK       I    between atoms: N_6  and  C_7 
REMARK    3  A    between atoms: C_7  and  C_9 
REMARK    4  A    between atoms: C_14  and  N_15 
ROOT
HETATM    1  C   UNK N   1      36.664  13.344  15.459  0.00  0.00     0.059 A 
HETATM    2  C   UNK N   1      36.885  14.727  15.576  0.00  0.00     0.019 A 
HETATM    3  C   UNK N   1      36.586  15.408  16.760  0.00  0.00     0.002 A 
HETATM    4  C   UNK N   1      36.060  14.720  17.855  0.00  0.00     0.016 A 
HETATM    5  C   UNK N   1      35.828  13.342  17.776  0.00  0.00     0.019 A 
HETATM    6  C   UNK N   1      35.302  12.629  18.871  0.00  0.00     0.051 A 
HETATM    7  C   UNK N   1      35.085  11.244  18.754  0.00  0.00     0.019 A 
HETATM    8  C   UNK N   1      35.399  10.598  17.540  0.00  0.00     0.062 A 
HETATM    9  N   UNK N   1      35.902  11.313  16.508  0.00  0.00    -0.353 N 
HETATM   10  C   UNK N   1      36.129  12.653  16.577  0.00  0.00     0.061 A 
HETATM   11  C   UNK N   1      35.190   9.217  17.400  0.00  0.00     0.038 A 
HETATM   12 Br   UNK N   1      35.610   8.321  15.762  0.00  0.00    -0.049 Br
HETATM   13  C   UNK N   1      34.671   8.482  18.468  0.00  0.00     0.021 A 
HETATM   14  C   UNK N   1      34.358   9.117  19.672  0.00  0.00     0.002 A 
HETATM   15  C   UNK N   1      34.564  10.493  19.818  0.00  0.00     0.016 A 
HETATM   16  H   UNK N   1      36.114  10.843  15.670  0.00  0.00     0.166 HD
ENDROOT
BRANCH   1  17
HETATM   17  C   UNK N   1      36.993  12.606  14.183  0.00  0.00     0.253 C 
HETATM   18  N   UNK N   1      36.375  12.817  12.994  0.00  0.00    -0.355 N 
HETATM   19  H   UNK N   1      36.707  12.284  12.236  0.00  0.00     0.162 HD
HETATM   20  O   UNK N   1      37.884  11.770  14.199  0.00  0.00    -0.268 OA
BRANCH  18  21
HETATM   21  C   UNK N   1      35.295  13.720  12.705  0.00  0.00     0.150 C 
BRANCH  21  22
HETATM   22  C   UNK N   1      35.732  14.673  11.589  0.00  0.00     0.253 A 
HETATM   23  N   UNK N   1      34.656  15.578  11.189  0.00  0.00    -0.077 N 
HETATM   24  C   UNK N   1      35.277  16.740  10.581  0.00  0.00     0.269 C 
HETATM   25  C   UNK N   1      33.886  14.938  10.132  0.00  0.00     0.269 A 
HETATM   26  H   UNK N   1      34.837  14.654  10.794  0.00  0.00     0.279 HD
ENDBRANCH  21  22
ENDBRANCH  18  21
ENDBRANCH   1  17
BRANCH   6  27
HETATM   27  N   UNK N   1      34.996  13.298  20.080  0.00  0.00    -0.398 N 
HETATM   28  H   UNK N   1      34.060  13.386  20.371  0.00  0.00     0.156 HD
HETATM   29  H   UNK N   1      35.721  13.677  20.629  0.00  0.00     0.156 HD
ENDBRANCH   6  27
TORSDOF 4
ENDMDL
MODEL 8
REMARK VINA RESULT:      -6.8      2.129      3.713
REMARK  4 active torsions:
REMARK  status: ('A' for Active; 'I' for Inactive)
REMARK    1  A    between atoms: C_4  and  C_5 
REMARK    2  A    between atoms: C_5  and  N_6 
REMARK       I    between atoms: N_6  and  C_7 
REMARK    3  A    between atoms: C_7  and  C_9 
REMARK    4  A    between atoms: C_14  and  N_15 
ROOT
HETATM    1  C   UNK N   1      28.073  16.276   4.734  0.00  0.00     0.059 A 
HETATM    2  C   UNK N   1      27.764  15.829   3.438  0.00  0.00     0.019 A 
HETATM    3  C   UNK N   1      28.762  15.668   2.473  0.00  0.00     0.002 A 
HETATM    4  C   UNK N   1      30.094  15.948   2.782  0.00  0.00     0.016 A 
HETATM    5  C   UNK N   1      30.440  16.394   4.063  0.00  0.00     0.019 A 
HETATM    6  C   UNK N   1      31.779  16.679   4.397  0.00  0.00     0.051 A 
HETATM    7  C   UNK N   1      32.088  17.123   5.695  0.00  0.00     0.019 A 
HETATM    8  C   UNK N   1      31.048  17.275   6.637  0.00  0.00     0.062 A 
HETATM    9  N   UNK N   1      29.774  16.993   6.283  0.00  0.00    -0.353 N 
HETATM   10  C   UNK N   1      29.430  16.560   5.040  0.00  0.00     0.061 A 
HETATM   11  C   UNK N   1      31.333  17.716   7.938  0.00  0.00     0.038 A 
HETATM   12 Br   UNK N   1      29.937  17.928   9.232  0.00  0.00    -0.049 Br
HETATM   13  C   UNK N   1      32.650  18.006   8.301  0.00  0.00     0.021 A 
HETATM   14  C   UNK N   1      33.683  17.859   7.372  0.00  0.00     0.002 A 
HETATM   15  C   UNK N   1      33.406  17.418   6.073  0.00  0.00     0.016 A 
HETATM   16  H   UNK N   1      29.064  17.105   6.955  0.00  0.00     0.166 HD
ENDROOT
BRANCH   1  17
HETATM   17  C   UNK N   1      26.996  16.445   5.780  0.00  0.00     0.253 C 
HETATM   18  N   UNK N   1      26.052  17.417   5.757  0.00  0.00    -0.355 N 
HETATM   19  H   UNK N   1      25.393  17.395   6.488  0.00  0.00     0.162 HD
HETATM   20  O   UNK N   1      26.947  15.652   6.708  0.00  0.00    -0.268 OA
BRANCH  18  21
HETATM   21  C   UNK N   1      25.893  18.477   4.799  0.00  0.00     0.150 C 
BRANCH  21  22
HETATM   22  C   UNK N   1      24.449  18.984   4.855  0.00  0.00     0.253 A 
HETATM   23  N   UNK N   1      23.892  19.198   3.521  0.00  0.00    -0.077 N 
HETATM   24  C   UNK N   1      22.448  19.128   3.643  0.00  0.00     0.269 C 
HETATM   25  C   UNK N   1      24.193  20.562   3.110  0.00  0.00     0.269 A 
HETATM   26  H   UNK N   1      24.405  19.887   4.071  0.00  0.00     0.279 HD
ENDBRANCH  21  22
ENDBRANCH  18  21
ENDBRANCH   1  17
BRANCH   6  27
HETATM   27  N   UNK N   1      32.805  16.519   3.436  0.00  0.00    -0.398 N 
HETATM   28  H   UNK N   1      33.291  17.305   3.098  0.00  0.00     0.156 HD
HETATM   29  H   UNK N   1      33.033  15.619   3.105  0.00  0.00     0.156 HD
ENDBRANCH   6  27
TORSDOF 4
ENDMDL
MODEL 9
REMARK VINA RESULT:      -6.8     13.608     16.056
REMARK  4 active torsions:
REMARK  status: ('A' for Active; 'I' for Inactive)
REMARK    1  A    between atoms: C_4  and  C_5 
REMARK    2  A    between atoms: C_5  and  N_6 
REMARK       I    between atoms: N_6  and  C_7 
REMARK    3  A    between atoms: C_7  and  C_9 
REMARK    4  A    between atoms: C_14  and  N_15 
ROOT
HETATM    1  C   UNK N   1      35.591  11.425  19.233  0.00  0.00     0.059 A 
HETATM    2  C   UNK N   1      35.339  12.779  19.512  0.00  0.00     0.019 A 
HETATM    3  C   UNK N   1      35.024  13.681  18.491  0.00  0.00     0.002 A 
HETATM    4  C   UNK N   1      34.953  13.248  17.166  0.00  0.00     0.016 A 
HETATM    5  C   UNK N   1      35.196  11.906  16.850  0.00  0.00     0.019 A 
HETATM    6  C   UNK N   1      35.124  11.448  15.519  0.00  0.00     0.051 A 
HETATM    7  C   UNK N   1      35.373  10.092  15.240  0.00  0.00     0.019 A 
HETATM    8  C   UNK N   1      35.689   9.218  16.302  0.00  0.00     0.062 A 
HETATM    9  N   UNK N   1      35.749   9.691  17.567  0.00  0.00    -0.353 N 
HETATM   10  C   UNK N   1      35.516  10.993  17.882  0.00  0.00     0.061 A 
HETATM   11  C   UNK N   1      35.941   7.861  16.048  0.00  0.00     0.038 A 
HETATM   12 Br   UNK N   1      36.371   6.658  17.473  0.00  0.00    -0.049 Br
HETATM   13  C   UNK N   1      35.877   7.375  14.740  0.00  0.00     0.021 A 
HETATM   14  C   UNK N   1      35.565   8.237  13.685  0.00  0.00     0.002 A 
HETATM   15  C   UNK N   1      35.313   9.591  13.932  0.00  0.00     0.016 A 
HETATM   16  H   UNK N   1      35.971   9.064  18.293  0.00  0.00     0.166 HD
ENDROOT
BRANCH   1  17
HETATM   17  C   UNK N   1      35.923  10.448  20.336  0.00  0.00     0.253 C 
HETATM   18  N   UNK N   1      35.006   9.878  21.157  0.00  0.00    -0.355 N 
HETATM   19  H   UNK N   1      35.358   9.238  21.816  0.00  0.00     0.162 HD
HETATM   20  O   UNK N   1      37.089  10.125  20.505  0.00  0.00    -0.268 OA
BRANCH  18  21
HETATM   21  C   UNK N   1      33.586  10.095  21.184  0.00  0.00     0.150 C 
BRANCH  21  22
HETATM   22  C   UNK N   1      32.895   8.944  20.446  0.00  0.00     0.253 A 
HETATM   23  N   UNK N   1      31.616   8.590  21.059  0.00  0.00    -0.077 N 
HETATM   24  C   UNK N   1      30.819   7.934  20.039  0.00  0.00     0.269 C 
HETATM   25  C   UNK N   1      31.860   7.584  22.083  0.00  0.00     0.269 A 
HETATM   26  H   UNK N   1      32.525   8.199  21.307  0.00  0.00     0.279 HD
ENDBRANCH  21  22
ENDBRANCH  18  21
ENDBRANCH   1  17
BRANCH   6  27
HETATM   27  N   UNK N   1      34.804  12.343  14.471  0.00  0.00    -0.398 N 
HETATM   28  H   UNK N   1      34.082  12.124  13.839  0.00  0.00     0.156 HD
HETATM   29  H   UNK N   1      35.305  13.186  14.374  0.00  0.00     0.156 HD
ENDBRANCH   6  27
TORSDOF 4
ENDMDL
