REMARK  14 active torsions:
REMARK  status: ('A' for Active; 'I' for Inactive)
REMARK    1  A    between atoms: C_9  and  C_8 
REMARK    2  A    between atoms: O_34  and  C_8 
REMARK    3  A    between atoms: C_17  and  C_9 
REMARK    4  A    between atoms: C_9  and  N_21 
REMARK    5  A    between atoms: O_32  and  C_10 
REMARK    6  A    between atoms: O_33  and  C_11 
REMARK    7  A    between atoms: C_15  and  C_12 
REMARK    8  A    between atoms: C_16  and  C_13 
REMARK    9  A    between atoms: C_19  and  C_13 
REMARK   10  A    between atoms: C_13  and  N_22 
REMARK   11  A    between atoms: C_14  and  C_18 
REMARK   12  A    between atoms: C_15  and  O_25 
REMARK   13  A    between atoms: O_30  and  C_18 
REMARK   14  A    between atoms: O_34  and  C_19 
ROOT
HETATM    1  C   UNK N   1       9.107   1.249  -0.073  0.00  0.00     0.216 C 
ENDROOT
BRANCH   1   2
HETATM    2  C   UNK N   1       8.711   0.037   0.831  0.00  0.00     0.173 C 
HETATM    3  N   UNK N   1       7.639  -0.739   0.207  0.00  0.00    -0.392 N 
HETATM    4  C   UNK N   1       8.118  -1.993  -0.395  0.00  0.00     0.194 C 
HETATM    5  H   UNK N   1       6.663  -0.443   0.191  0.00  0.00     0.155 HD
HETATM    6  C   UNK N   1       9.651  -2.121  -0.195  0.00  0.00     0.033 C 
HETATM    7  C   UNK N   1      10.176  -3.538  -0.021  0.00  0.00     0.029 C 
HETATM    8  C   UNK N   1      10.385  -1.568  -1.399  0.00  0.00     0.029 C 
HETATM    9  S   UNK N   1      10.081  -1.109   1.228  0.00  0.00    -0.130 SA
BRANCH   4  10
HETATM   10  C   UNK N   1       7.226  -3.105   0.123  0.00  0.00     0.164 C 
HETATM   11  O   UNK N   1       6.028  -3.059  -0.111  0.00  0.00    -0.648 OA
BRANCH  10  12
HETATM   12  O   UNK N   1       7.714  -4.155   0.810  0.00  0.00    -0.775 OA
HETATM   13  H   UNK N   1       7.251  -4.814   1.288  0.00  0.00     0.167 HD
ENDBRANCH  10  12
ENDBRANCH   4  10
ENDBRANCH   1   2
BRANCH   1  14
HETATM   14  C   UNK N   1       8.088   2.404  -0.030  0.00  0.00     0.284 C 
HETATM   15  O   UNK N   1       8.457   3.485   0.407  0.00  0.00    -0.263 OA
BRANCH  14  16
HETATM   16  O   UNK N   1       6.805   2.326  -0.464  0.00  0.00    -0.317 OA
BRANCH  16  17
HETATM   17  C   UNK N   1       6.164   1.227  -0.973  0.00  0.00     0.214 C 
BRANCH  17  18
HETATM   18  C   UNK N   1       4.960   0.899  -0.089  0.00  0.00     0.201 C 
BRANCH  18  19
HETATM   19  C   UNK N   1       3.949   2.019  -0.037  0.00  0.00     0.198 C 
HETATM   20  O   UNK N   1       2.955   1.904   0.661  0.00  0.00    -0.646 OA
HETATM   21  O   UNK N   1       4.133   3.153  -0.744  0.00  0.00    -0.646 OA
ENDBRANCH  18  19
BRANCH  18  22
HETATM   22  N   UNK N   1       4.321  -0.303  -0.592  0.00  0.00    -0.416 N 
HETATM   23  H   UNK N   1       3.365  -0.337  -0.946  0.00  0.00     0.150 HD
HETATM   24  H   UNK N   1       4.862  -1.168  -0.592  0.00  0.00     0.150 HD
ENDBRANCH  18  22
ENDBRANCH  17  18
ENDBRANCH  16  17
ENDBRANCH  14  16
ENDBRANCH   1  14
BRANCH   1  25
HETATM   25  N   UNK N   1      10.381   1.822   0.352  0.00  0.00    -0.354 N 
HETATM   26  C   UNK N   1      11.499   1.684  -0.280  0.00  0.00     0.152 C 
ATOM     27  HN  UNK N   1      10.389   2.373   1.210  1.00  0.00     0.162 HD
BRANCH  26  28
HETATM   28  C   UNK N   1      12.692   2.470   0.120  0.00  0.00     0.081 A 
HETATM   29  C   UNK N   1      12.527   3.859   0.360  0.00  0.00     0.085 A 
HETATM   30  C   UNK N   1      13.650   4.653   0.641  0.00  0.00     0.038 A 
HETATM   31  C   UNK N   1      14.922   4.096   0.680  0.00  0.00     0.005 A 
HETATM   32  C   UNK N   1      15.093   2.735   0.447  0.00  0.00     0.038 A 
HETATM   33  C   UNK N   1      14.003   1.903   0.175  0.00  0.00     0.085 A 
BRANCH  29  34
HETATM   34  O   UNK N   1      11.297   4.421   0.254  0.00  0.00    -0.355 OA
HETATM   35  C   UNK N   1      11.067   5.775   0.350  0.00  0.00     0.210 C 
ENDBRANCH  29  34
BRANCH  33  36
HETATM   36  O   UNK N   1      14.275   0.580   0.011  0.00  0.00    -0.355 OA
HETATM   37  C   UNK N   1      13.392  -0.452   0.226  0.00  0.00     0.210 C 
ENDBRANCH  33  36
ENDBRANCH  26  28
BRANCH  26  38
HETATM   38  O   UNK N   1      11.588   0.887  -1.364  0.00  0.00    -0.346 OA
ATOM     39  HO  UNK N   1      10.824   0.384  -1.620  1.00  0.00     0.219 HD
ENDBRANCH  26  38
ENDBRANCH   1  25
TORSDOF 14
