REMARK  15 active torsions:
REMARK  status: ('A' for Active; 'I' for Inactive)
REMARK    1  A    between atoms: C_3  and  C_1 
REMARK    2  A    between atoms: O_30  and  C_1 
REMARK    3  A    between atoms: C_5  and  O_20 
REMARK    4  A    between atoms: C_6  and  O_21 
REMARK    5  A    between atoms: O_22  and  C_8 
REMARK    6  A    between atoms: C_9  and  N_19 
REMARK    7  A    between atoms: P_33  and  N_18 
REMARK    8  A    between atoms: P_34  and  N_18 
REMARK    9  A    between atoms: P_33  and  O_24 
REMARK   10  A    between atoms: P_33  and  O_25 
REMARK   11  A    between atoms: P_34  and  O_27 
REMARK   12  A    between atoms: P_35  and  O_28 
REMARK   13  A    between atoms: P_35  and  O_30 
REMARK   14  A    between atoms: P_34  and  O_32 
REMARK   15  A    between atoms: P_35  and  O_32 
ROOT
HETATM    1  C   UNK N   1      -0.840  -4.410   0.169  0.00  0.00     0.180 C 
HETATM    2  C   UNK N   1       0.634  -4.778  -0.041  0.00  0.00     0.182 C 
HETATM    3  C   UNK N   1       1.276  -3.423  -0.257  0.00  0.00     0.198 C 
HETATM    4  C   UNK N   1       0.230  -2.507   0.353  0.00  0.00     0.262 C 
HETATM    5  O   UNK N   1      -0.989  -3.030  -0.124  0.00  0.00    -0.353 OA
ENDROOT
BRANCH   1   6
HETATM    6  C   UNK N   1      -1.782  -5.300  -0.618  0.00  0.00     0.215 C 
BRANCH   6   7
HETATM    7  O   UNK N   1      -3.079  -4.977  -0.218  0.00  0.00    -0.294 OA
BRANCH   7   8
HETATM    8  P   UNK N   1      -4.187  -5.641  -1.380  0.00  0.00     0.401 P 
HETATM    9  O   UNK N   1      -4.619  -6.181   0.012  0.00  0.00    -0.631 OA
BRANCH   8  10
HETATM   10  O   UNK N   1      -3.837  -3.994  -1.822  0.00  0.00    -0.307 OA
HETATM   11  H   UNK N   1      -2.944  -3.704  -2.068  0.00  0.00     0.222 HD
ENDBRANCH   8  10
BRANCH   8  12
HETATM   12  O   UNK N   1      -5.749  -4.807  -1.199  0.00  0.00    -0.201 OA
BRANCH  12  13
HETATM   13  P   UNK N   1      -5.808  -3.647   0.157  0.00  0.00     0.362 P 
HETATM   14  O   UNK N   1      -5.940  -4.413   1.502  0.00  0.00    -0.636 OA
BRANCH  13  15
HETATM   15  N   UNK N   1      -7.276  -2.618   0.016  0.00  0.00    -0.240 N 
HETATM   16  H   UNK N   1      -7.284  -1.603  -0.082  0.00  0.00     0.176 HD
BRANCH  15  17
HETATM   17  P   UNK N   1      -8.726  -3.680   0.076  0.00  0.00     0.351 P 
HETATM   18  O   UNK N   1      -8.795  -4.292   1.501  0.00  0.00    -0.637 OA
BRANCH  17  19
HETATM   19  O   UNK N   1     -10.165  -2.741  -0.157  0.00  0.00    -0.312 OA
HETATM   20  H   UNK N   1     -10.112  -1.781  -0.287  0.00  0.00     0.221 HD
ENDBRANCH  17  19
BRANCH  17  21
HETATM   21  O   UNK N   1      -8.613  -4.982  -1.067  0.00  0.00    -0.312 OA
HETATM   22  H   UNK N   1      -9.212  -5.400  -1.705  0.00  0.00     0.221 HD
ENDBRANCH  17  21
ENDBRANCH  15  17
ENDBRANCH  13  15
BRANCH  13  23
HETATM   23  O   UNK N   1      -4.429  -2.595   0.289  0.00  0.00    -0.312 OA
HETATM   24  H   UNK N   1      -3.537  -2.967   0.363  0.00  0.00     0.222 HD
ENDBRANCH  13  23
ENDBRANCH  12  13
ENDBRANCH   8  12
ENDBRANCH   7   8
ENDBRANCH   6   7
ENDBRANCH   1   6
BRANCH   2  25
HETATM   25  O   UNK N   1       1.125  -5.383   1.121  0.00  0.00    -0.390 OA
HETATM   26  H   UNK N   1       0.933  -5.887   1.926  0.00  0.00     0.210 HD
ENDBRANCH   2  25
BRANCH   3  27
HETATM   27  O   UNK N   1       1.350  -3.165  -1.630  0.00  0.00    -0.388 OA
HETATM   28  H   UNK N   1       1.531  -3.120  -2.582  0.00  0.00     0.210 HD
ENDBRANCH   3  27
BRANCH   4  29
HETATM   29  N   UNK N   1       0.410  -1.084   0.032  0.00  0.00    -0.297 N 
HETATM   30  C   UNK N   1      -0.560  -0.136  -0.061  0.00  0.00     0.188 A 
HETATM   31  N   UNK N   1      -0.023   1.118  -0.149  0.00  0.00    -0.346 N 
HETATM   32  C   UNK N   1       1.306   0.916  -0.079  0.00  0.00     0.130 A 
ATOM     33  HN  UNK N   1      -0.517   2.005  -0.246  1.00  0.00     0.167 HD
HETATM   34  C   UNK N   1       1.562  -0.401   0.028  0.00  0.00     0.157 A 
HETATM   35  C   UNK N   1       2.352   1.828  -0.059  0.00  0.00     0.186 A 
HETATM   36  N   UNK N   1       2.817  -0.891   0.145  0.00  0.00    -0.174 N 
HETATM   37  C   UNK N   1       3.862  -0.010   0.136  0.00  0.00     0.679 A 
HETATM   38  H   UNK N   1       2.974  -1.859   0.234  0.00  0.00     0.186 HD
HETATM   39  N   UNK N   1       5.059  -0.445   0.221  0.00  0.00    -0.234 N 
HETATM   40  N   UNK N   1       3.626   1.341   0.042  0.00  0.00    -0.168 N 
HETATM   41  H   UNK N   1       5.230  -1.413   0.287  0.00  0.00     0.174 HD
ATOM     42  HN  UNK N   1       5.840   0.211   0.221  1.00  0.00     0.174 HD
ATOM     43  HN  UNK N   1       4.413   1.990   0.049  1.00  0.00     0.186 HD
BRANCH  35  44
HETATM   44  O   UNK N   1       2.129   3.151  -0.118  0.00  0.00    -0.344 OA
HETATM   45  H   UNK N   1       2.850   3.748  -0.159  0.00  0.00     0.219 HD
ENDBRANCH  35  44
ENDBRANCH   4  29
TORSDOF 15
