REMARK  2 active torsions:
REMARK  status: ('A' for Active; 'I' for Inactive)
REMARK    1  A    between atoms: N_1  and  C_2 
REMARK    2  A    between atoms: C_2  and  C_3 
ROOT
HETATM    1  C   UNK N   1       0.798   1.528   0.000  0.00  0.00     0.011 A 
HETATM    2  C   UNK N   1       2.166   0.882  -0.000  0.00  0.00     0.006 A 
HETATM    3  C   UNK N   1       2.231  -0.639   0.000  0.00  0.00     0.000 A 
HETATM    4  C   UNK N   1       0.942  -1.458  -0.000  0.00  0.00     0.000 A 
HETATM    5  C   UNK N   1      -0.422  -0.771   0.000  0.00  0.00     0.000 A 
HETATM    6  C   UNK N   1      -0.512   0.750  -0.000  0.00  0.00     0.006 A 
ENDROOT
BRANCH   1   7
HETATM    7  C   UNK N   1       0.788   3.056  -0.000  0.00  0.00     0.234 C 
BRANCH   7   8
HETATM    8  N   UNK N   1      -0.559   3.595   0.000  0.00  0.00    -0.079 N 
HETATM    9  H   UNK N   1      -0.705   4.604   0.000  0.00  0.00     0.274 HD
HETATM   10  H   UNK N   1      -1.361   2.964   0.000  0.00  0.00     0.274 HD
HETATM   11  H   UNK N   1      -1.506   3.973   0.000  0.00  0.00     0.274 HD
ENDBRANCH   7   8
ENDBRANCH   1   7
TORSDOF 2
