MODEL 1
REMARK VINA RESULT:      -4.6      0.000      0.000
REMARK  21 active torsions:
REMARK  status: ('A' for Active; 'I' for Inactive)
REMARK    1  A    between atoms: C_5  and  C_3 
REMARK    2  A    between atoms: C_6  and  C_4 
REMARK    3  A    between atoms: C_7  and  C_5 
REMARK    4  A    between atoms: C_8  and  C_6 
REMARK    5  A    between atoms: C_9  and  C_7 
REMARK    6  A    between atoms: C_17  and  C_8 
REMARK    7  A    between atoms: C_10  and  C_9 
REMARK    8  A    between atoms: C_11  and  C_10 
REMARK    9  A    between atoms: C_12  and  C_11 
REMARK   10  A    between atoms: C_13  and  C_12 
REMARK   11  A    between atoms: C_14  and  C_13 
REMARK   12  A    between atoms: C_15  and  C_14 
REMARK   13  A    between atoms: C_16  and  C_15 
REMARK   14  A    between atoms: C_18  and  C_16 
REMARK   15  A    between atoms: C_19  and  C_17 
REMARK   16  A    between atoms: C_20  and  C_18 
REMARK   17  A    between atoms: C_21  and  C_19 
REMARK   18  A    between atoms: C_22  and  C_20 
REMARK   19  A    between atoms: C_23  and  C_21 
REMARK   20  A    between atoms: O_25  and  C_22 
REMARK   21  A    between atoms: O_25  and  C_23 
ROOT
HETATM    1  C   UNK N   1      27.412  24.374  -4.862  0.00  0.00     0.002 C 
ENDROOT
BRANCH   1   2
HETATM    2  C   UNK N   1      26.359  23.657  -5.691  0.00  0.00     0.000 C 
BRANCH   2   3
HETATM    3  C   UNK N   1      27.006  22.881  -6.826  0.00  0.00     0.000 C 
BRANCH   3   4
HETATM    4  C   UNK N   1      25.949  22.301  -7.750  0.00  0.00     0.000 C 
BRANCH   4   5
HETATM    5  C   UNK N   1      25.510  23.327  -8.779  0.00  0.00     0.000 C 
BRANCH   5   6
HETATM    6  C   UNK N   1      26.662  24.221  -9.200  0.00  0.00     0.000 C 
BRANCH   6   7
HETATM    7  C   UNK N   1      26.105  25.609  -9.411  0.00  0.00     0.000 C 
BRANCH   7   8
HETATM    8  C   UNK N   1      25.780  26.290  -8.099  0.00  0.00     0.000 C 
BRANCH   8   9
HETATM    9  C   UNK N   1      27.065  26.927  -7.624  0.00  0.00     0.000 C 
BRANCH   9  10
HETATM   10  C   UNK N   1      26.875  27.736  -6.363  0.00  0.00     0.000 C 
BRANCH  10  11
HETATM   11  C   UNK N   1      25.551  27.304  -5.766  0.00  0.00    -0.000 C 
BRANCH  11  12
HETATM   12  C   UNK N   1      25.422  27.772  -4.336  0.00  0.00    -0.005 C 
HETATM   13  C   UNK N   1      26.257  29.025  -4.160  0.00  0.00     0.005 C 
ENDBRANCH  11  12
ENDBRANCH  10  11
ENDBRANCH   9  10
ENDBRANCH   8   9
ENDBRANCH   7   8
ENDBRANCH   6   7
ENDBRANCH   5   6
ENDBRANCH   4   5
ENDBRANCH   3   4
ENDBRANCH   2   3
ENDBRANCH   1   2
BRANCH   1  14
HETATM   14  C   UNK N   1      26.989  24.474  -3.407  0.00  0.00     0.027 C 
BRANCH  14  15
HETATM   15  C   UNK N   1      27.886  23.643  -2.510  0.00  0.00     0.178 C 
BRANCH  15  16
HETATM   16  O   UNK N   1      29.180  23.768  -2.950  0.00  0.00    -0.321 OA
BRANCH  16  17
HETATM   17  C   UNK N   1      30.195  22.986  -2.530  0.00  0.00     0.258 C 
HETATM   18  O   UNK N   1      30.532  22.972  -1.345  0.00  0.00    -0.265 OA
BRANCH  17  19
HETATM   19  C   UNK N   1      30.888  22.129  -3.535  0.00  0.00     0.111 C 
BRANCH  19  20
HETATM   20  C   UNK N   1      31.437  22.852  -4.750  0.00  0.00     0.010 C 
BRANCH  20  21
HETATM   21  C   UNK N   1      30.626  22.351  -5.923  0.00  0.00     0.000 C 
BRANCH  21  22
HETATM   22  C   UNK N   1      31.474  21.680  -6.977  0.00  0.00     0.000 C 
BRANCH  22  23
HETATM   23  C   UNK N   1      31.068  20.221  -6.997  0.00  0.00    -0.000 C 
BRANCH  23  24
HETATM   24  C   UNK N   1      29.565  20.076  -7.046  0.00  0.00    -0.005 C 
HETATM   25  C   UNK N   1      29.225  18.827  -7.832  0.00  0.00     0.005 C 
ENDBRANCH  23  24
ENDBRANCH  22  23
ENDBRANCH  21  22
ENDBRANCH  20  21
ENDBRANCH  19  20
ENDBRANCH  17  19
ENDBRANCH  16  17
ENDBRANCH  15  16
ENDBRANCH  14  15
ENDBRANCH   1  14
TORSDOF 21
ENDMDL
MODEL 2
REMARK VINA RESULT:      -4.6      1.458      3.716
REMARK  21 active torsions:
REMARK  status: ('A' for Active; 'I' for Inactive)
REMARK    1  A    between atoms: C_5  and  C_3 
REMARK    2  A    between atoms: C_6  and  C_4 
REMARK    3  A    between atoms: C_7  and  C_5 
REMARK    4  A    between atoms: C_8  and  C_6 
REMARK    5  A    between atoms: C_9  and  C_7 
REMARK    6  A    between atoms: C_17  and  C_8 
REMARK    7  A    between atoms: C_10  and  C_9 
REMARK    8  A    between atoms: C_11  and  C_10 
REMARK    9  A    between atoms: C_12  and  C_11 
REMARK   10  A    between atoms: C_13  and  C_12 
REMARK   11  A    between atoms: C_14  and  C_13 
REMARK   12  A    between atoms: C_15  and  C_14 
REMARK   13  A    between atoms: C_16  and  C_15 
REMARK   14  A    between atoms: C_18  and  C_16 
REMARK   15  A    between atoms: C_19  and  C_17 
REMARK   16  A    between atoms: C_20  and  C_18 
REMARK   17  A    between atoms: C_21  and  C_19 
REMARK   18  A    between atoms: C_22  and  C_20 
REMARK   19  A    between atoms: C_23  and  C_21 
REMARK   20  A    between atoms: O_25  and  C_22 
REMARK   21  A    between atoms: O_25  and  C_23 
ROOT
HETATM    1  C   UNK N   1      26.489  25.466  -3.721  0.00  0.00     0.002 C 
ENDROOT
BRANCH   1   2
HETATM    2  C   UNK N   1      25.811  25.646  -5.069  0.00  0.00     0.000 C 
BRANCH   2   3
HETATM    3  C   UNK N   1      25.296  27.067  -5.225  0.00  0.00     0.000 C 
BRANCH   3   4
HETATM    4  C   UNK N   1      25.466  27.843  -3.931  0.00  0.00     0.000 C 
BRANCH   4   5
HETATM    5  C   UNK N   1      26.257  29.118  -4.165  0.00  0.00     0.000 C 
BRANCH   5   6
HETATM    6  C   UNK N   1      27.676  28.997  -3.639  0.00  0.00     0.000 C 
BRANCH   6   7
HETATM    7  C   UNK N   1      28.600  28.951  -4.832  0.00  0.00     0.000 C 
BRANCH   7   8
HETATM    8  C   UNK N   1      27.974  29.585  -6.054  0.00  0.00     0.000 C 
BRANCH   8   9
HETATM    9  C   UNK N   1      28.270  28.658  -7.210  0.00  0.00     0.000 C 
BRANCH   9  10
HETATM   10  C   UNK N   1      28.775  27.309  -6.751  0.00  0.00     0.000 C 
BRANCH  10  11
HETATM   11  C   UNK N   1      28.188  26.282  -7.697  0.00  0.00    -0.000 C 
BRANCH  11  12
HETATM   12  C   UNK N   1      27.151  26.906  -8.601  0.00  0.00    -0.005 C 
HETATM   13  C   UNK N   1      26.032  25.907  -8.815  0.00  0.00     0.005 C 
ENDBRANCH  11  12
ENDBRANCH  10  11
ENDBRANCH   9  10
ENDBRANCH   8   9
ENDBRANCH   7   8
ENDBRANCH   6   7
ENDBRANCH   5   6
ENDBRANCH   4   5
ENDBRANCH   3   4
ENDBRANCH   2   3
ENDBRANCH   1   2
BRANCH   1  14
HETATM   14  C   UNK N   1      27.986  25.267  -3.883  0.00  0.00     0.027 C 
BRANCH  14  15
HETATM   15  C   UNK N   1      28.334  23.803  -4.078  0.00  0.00     0.178 C 
BRANCH  15  16
HETATM   16  O   UNK N   1      28.679  23.271  -2.861  0.00  0.00    -0.321 OA
BRANCH  16  17
HETATM   17  C   UNK N   1      29.944  22.968  -2.506  0.00  0.00     0.258 C 
HETATM   18  O   UNK N   1      30.311  23.061  -1.334  0.00  0.00    -0.265 OA
BRANCH  17  19
HETATM   19  C   UNK N   1      30.883  22.503  -3.569  0.00  0.00     0.111 C 
BRANCH  19  20
HETATM   20  C   UNK N   1      31.689  21.262  -3.239  0.00  0.00     0.010 C 
BRANCH  20  21
HETATM   21  C   UNK N   1      31.516  20.337  -4.422  0.00  0.00     0.000 C 
BRANCH  21  22
HETATM   22  C   UNK N   1      30.476  20.827  -5.401  0.00  0.00     0.000 C 
BRANCH  22  23
HETATM   23  C   UNK N   1      30.772  20.150  -6.722  0.00  0.00    -0.000 C 
BRANCH  23  24
HETATM   24  C   UNK N   1      29.498  19.708  -7.405  0.00  0.00    -0.005 C 
HETATM   25  C   UNK N   1      28.666  20.934  -7.717  0.00  0.00     0.005 C 
ENDBRANCH  23  24
ENDBRANCH  22  23
ENDBRANCH  21  22
ENDBRANCH  20  21
ENDBRANCH  19  20
ENDBRANCH  17  19
ENDBRANCH  16  17
ENDBRANCH  15  16
ENDBRANCH  14  15
ENDBRANCH   1  14
TORSDOF 21
ENDMDL
MODEL 3
REMARK VINA RESULT:      -4.5      1.888      3.355
REMARK  21 active torsions:
REMARK  status: ('A' for Active; 'I' for Inactive)
REMARK    1  A    between atoms: C_5  and  C_3 
REMARK    2  A    between atoms: C_6  and  C_4 
REMARK    3  A    between atoms: C_7  and  C_5 
REMARK    4  A    between atoms: C_8  and  C_6 
REMARK    5  A    between atoms: C_9  and  C_7 
REMARK    6  A    between atoms: C_17  and  C_8 
REMARK    7  A    between atoms: C_10  and  C_9 
REMARK    8  A    between atoms: C_11  and  C_10 
REMARK    9  A    between atoms: C_12  and  C_11 
REMARK   10  A    between atoms: C_13  and  C_12 
REMARK   11  A    between atoms: C_14  and  C_13 
REMARK   12  A    between atoms: C_15  and  C_14 
REMARK   13  A    between atoms: C_16  and  C_15 
REMARK   14  A    between atoms: C_18  and  C_16 
REMARK   15  A    between atoms: C_19  and  C_17 
REMARK   16  A    between atoms: C_20  and  C_18 
REMARK   17  A    between atoms: C_21  and  C_19 
REMARK   18  A    between atoms: C_22  and  C_20 
REMARK   19  A    between atoms: C_23  and  C_21 
REMARK   20  A    between atoms: O_25  and  C_22 
REMARK   21  A    between atoms: O_25  and  C_23 
ROOT
HETATM    1  C   UNK N   1      27.328  23.855  -4.123  0.00  0.00     0.002 C 
ENDROOT
BRANCH   1   2
HETATM    2  C   UNK N   1      25.986  24.531  -4.352  0.00  0.00     0.000 C 
BRANCH   2   3
HETATM    3  C   UNK N   1      25.940  25.180  -5.726  0.00  0.00     0.000 C 
BRANCH   3   4
HETATM    4  C   UNK N   1      24.954  26.336  -5.739  0.00  0.00     0.000 C 
BRANCH   4   5
HETATM    5  C   UNK N   1      25.677  27.664  -5.612  0.00  0.00     0.000 C 
BRANCH   5   6
HETATM    6  C   UNK N   1      25.593  28.210  -4.198  0.00  0.00     0.000 C 
BRANCH   6   7
HETATM    7  C   UNK N   1      26.906  28.892  -3.896  0.00  0.00     0.000 C 
BRANCH   7   8
HETATM    8  C   UNK N   1      27.930  27.923  -3.346  0.00  0.00     0.000 C 
BRANCH   8   9
HETATM    9  C   UNK N   1      29.136  28.024  -4.252  0.00  0.00     0.000 C 
BRANCH   9  10
HETATM   10  C   UNK N   1      29.601  26.674  -4.744  0.00  0.00     0.000 C 
BRANCH  10  11
HETATM   11  C   UNK N   1      29.154  26.561  -6.187  0.00  0.00    -0.000 C 
BRANCH  11  12
HETATM   12  C   UNK N   1      29.263  27.892  -6.894  0.00  0.00    -0.005 C 
HETATM   13  C   UNK N   1      28.333  27.880  -8.091  0.00  0.00     0.005 C 
ENDBRANCH  11  12
ENDBRANCH  10  11
ENDBRANCH   9  10
ENDBRANCH   8   9
ENDBRANCH   7   8
ENDBRANCH   6   7
ENDBRANCH   5   6
ENDBRANCH   4   5
ENDBRANCH   3   4
ENDBRANCH   2   3
ENDBRANCH   1   2
BRANCH   1  14
HETATM   14  C   UNK N   1      27.851  24.137  -2.725  0.00  0.00     0.027 C 
BRANCH  14  15
HETATM   15  C   UNK N   1      28.831  23.071  -2.273  0.00  0.00     0.178 C 
BRANCH  15  16
HETATM   16  O   UNK N   1      30.103  23.575  -2.379  0.00  0.00    -0.321 OA
BRANCH  16  17
HETATM   17  C   UNK N   1      31.151  22.873  -2.855  0.00  0.00     0.258 C 
HETATM   18  O   UNK N   1      31.772  22.096  -2.130  0.00  0.00    -0.265 OA
BRANCH  17  19
HETATM   19  C   UNK N   1      31.529  23.054  -4.288  0.00  0.00     0.111 C 
BRANCH  19  20
HETATM   20  C   UNK N   1      31.631  21.783  -5.107  0.00  0.00     0.010 C 
BRANCH  20  21
HETATM   21  C   UNK N   1      30.237  21.197  -5.125  0.00  0.00     0.000 C 
BRANCH  21  22
HETATM   22  C   UNK N   1      29.377  21.767  -6.228  0.00  0.00     0.000 C 
BRANCH  22  23
HETATM   23  C   UNK N   1      29.782  21.061  -7.504  0.00  0.00    -0.000 C 
BRANCH  23  24
HETATM   24  C   UNK N   1      28.755  20.027  -7.903  0.00  0.00    -0.005 C 
HETATM   25  C   UNK N   1      29.388  18.655  -7.813  0.00  0.00     0.005 C 
ENDBRANCH  23  24
ENDBRANCH  22  23
ENDBRANCH  21  22
ENDBRANCH  20  21
ENDBRANCH  19  20
ENDBRANCH  17  19
ENDBRANCH  16  17
ENDBRANCH  15  16
ENDBRANCH  14  15
ENDBRANCH   1  14
TORSDOF 21
ENDMDL
MODEL 4
REMARK VINA RESULT:      -4.5      2.431      5.532
REMARK  21 active torsions:
REMARK  status: ('A' for Active; 'I' for Inactive)
REMARK    1  A    between atoms: C_5  and  C_3 
REMARK    2  A    between atoms: C_6  and  C_4 
REMARK    3  A    between atoms: C_7  and  C_5 
REMARK    4  A    between atoms: C_8  and  C_6 
REMARK    5  A    between atoms: C_9  and  C_7 
REMARK    6  A    between atoms: C_17  and  C_8 
REMARK    7  A    between atoms: C_10  and  C_9 
REMARK    8  A    between atoms: C_11  and  C_10 
REMARK    9  A    between atoms: C_12  and  C_11 
REMARK   10  A    between atoms: C_13  and  C_12 
REMARK   11  A    between atoms: C_14  and  C_13 
REMARK   12  A    between atoms: C_15  and  C_14 
REMARK   13  A    between atoms: C_16  and  C_15 
REMARK   14  A    between atoms: C_18  and  C_16 
REMARK   15  A    between atoms: C_19  and  C_17 
REMARK   16  A    between atoms: C_20  and  C_18 
REMARK   17  A    between atoms: C_21  and  C_19 
REMARK   18  A    between atoms: C_22  and  C_20 
REMARK   19  A    between atoms: C_23  and  C_21 
REMARK   20  A    between atoms: O_25  and  C_22 
REMARK   21  A    between atoms: O_25  and  C_23 
ROOT
HETATM    1  C   UNK N   1      26.403  26.494  -7.738  0.00  0.00     0.002 C 
ENDROOT
BRANCH   1   2
HETATM    2  C   UNK N   1      27.776  26.980  -7.303  0.00  0.00     0.000 C 
BRANCH   2   3
HETATM    3  C   UNK N   1      27.694  28.392  -6.749  0.00  0.00     0.000 C 
BRANCH   3   4
HETATM    4  C   UNK N   1      27.758  28.376  -5.231  0.00  0.00     0.000 C 
BRANCH   4   5
HETATM    5  C   UNK N   1      26.510  28.998  -4.631  0.00  0.00     0.000 C 
BRANCH   5   6
HETATM    6  C   UNK N   1      25.627  27.952  -3.976  0.00  0.00     0.000 C 
BRANCH   6   7
HETATM    7  C   UNK N   1      26.466  26.713  -3.771  0.00  0.00     0.000 C 
BRANCH   7   8
HETATM    8  C   UNK N   1      25.772  25.471  -4.284  0.00  0.00     0.000 C 
BRANCH   8   9
HETATM    9  C   UNK N   1      26.678  24.310  -3.945  0.00  0.00     0.000 C 
BRANCH   9  10
HETATM   10  C   UNK N   1      28.034  24.762  -3.456  0.00  0.00     0.000 C 
BRANCH  10  11
HETATM   11  C   UNK N   1      28.955  23.564  -3.564  0.00  0.00    -0.000 C 
BRANCH  11  12
HETATM   12  C   UNK N   1      30.309  23.865  -2.966  0.00  0.00    -0.005 C 
HETATM   13  C   UNK N   1      31.029  22.555  -2.718  0.00  0.00     0.005 C 
ENDBRANCH  11  12
ENDBRANCH  10  11
ENDBRANCH   9  10
ENDBRANCH   8   9
ENDBRANCH   7   8
ENDBRANCH   6   7
ENDBRANCH   5   6
ENDBRANCH   4   5
ENDBRANCH   3   4
ENDBRANCH   2   3
ENDBRANCH   1   2
BRANCH   1  14
HETATM   14  C   UNK N   1      26.463  25.836  -9.106  0.00  0.00     0.027 C 
BRANCH  14  15
HETATM   15  C   UNK N   1      25.386  24.779  -9.262  0.00  0.00     0.178 C 
BRANCH  15  16
HETATM   16  O   UNK N   1      25.271  24.096  -8.077  0.00  0.00    -0.321 OA
BRANCH  16  17
HETATM   17  C   UNK N   1      25.225  22.751  -7.988  0.00  0.00     0.258 C 
HETATM   18  O   UNK N   1      24.169  22.142  -8.165  0.00  0.00    -0.265 OA
BRANCH  17  19
HETATM   19  C   UNK N   1      26.490  22.021  -7.683  0.00  0.00     0.111 C 
BRANCH  19  20
HETATM   20  C   UNK N   1      27.568  22.833  -6.990  0.00  0.00     0.010 C 
BRANCH  20  21
HETATM   21  C   UNK N   1      28.877  22.185  -7.377  0.00  0.00     0.000 C 
BRANCH  21  22
HETATM   22  C   UNK N   1      29.553  21.492  -6.217  0.00  0.00     0.000 C 
BRANCH  22  23
HETATM   23  C   UNK N   1      30.184  20.233  -6.772  0.00  0.00    -0.000 C 
BRANCH  23  24
HETATM   24  C   UNK N   1      29.390  19.695  -7.940  0.00  0.00    -0.005 C 
HETATM   25  C   UNK N   1      29.371  18.184  -7.857  0.00  0.00     0.005 C 
ENDBRANCH  23  24
ENDBRANCH  22  23
ENDBRANCH  21  22
ENDBRANCH  20  21
ENDBRANCH  19  20
ENDBRANCH  17  19
ENDBRANCH  16  17
ENDBRANCH  15  16
ENDBRANCH  14  15
ENDBRANCH   1  14
TORSDOF 21
ENDMDL
MODEL 5
REMARK VINA RESULT:      -4.5     12.718     16.264
REMARK  21 active torsions:
REMARK  status: ('A' for Active; 'I' for Inactive)
REMARK    1  A    between atoms: C_5  and  C_3 
REMARK    2  A    between atoms: C_6  and  C_4 
REMARK    3  A    between atoms: C_7  and  C_5 
REMARK    4  A    between atoms: C_8  and  C_6 
REMARK    5  A    between atoms: C_9  and  C_7 
REMARK    6  A    between atoms: C_17  and  C_8 
REMARK    7  A    between atoms: C_10  and  C_9 
REMARK    8  A    between atoms: C_11  and  C_10 
REMARK    9  A    between atoms: C_12  and  C_11 
REMARK   10  A    between atoms: C_13  and  C_12 
REMARK   11  A    between atoms: C_14  and  C_13 
REMARK   12  A    between atoms: C_15  and  C_14 
REMARK   13  A    between atoms: C_16  and  C_15 
REMARK   14  A    between atoms: C_18  and  C_16 
REMARK   15  A    between atoms: C_19  and  C_17 
REMARK   16  A    between atoms: C_20  and  C_18 
REMARK   17  A    between atoms: C_21  and  C_19 
REMARK   18  A    between atoms: C_22  and  C_20 
REMARK   19  A    between atoms: C_23  and  C_21 
REMARK   20  A    between atoms: O_25  and  C_22 
REMARK   21  A    between atoms: O_25  and  C_23 
ROOT
HETATM    1  C   UNK N   1      21.641  17.904   6.082  0.00  0.00     0.002 C 
ENDROOT
BRANCH   1   2
HETATM    2  C   UNK N   1      21.639  16.503   6.673  0.00  0.00     0.000 C 
BRANCH   2   3
HETATM    3  C   UNK N   1      20.396  16.279   7.518  0.00  0.00     0.000 C 
BRANCH   3   4
HETATM    4  C   UNK N   1      20.764  15.670   8.860  0.00  0.00     0.000 C 
BRANCH   4   5
HETATM    5  C   UNK N   1      21.020  14.180   8.726  0.00  0.00     0.000 C 
BRANCH   5   6
HETATM    6  C   UNK N   1      20.870  13.467  10.057  0.00  0.00     0.000 C 
BRANCH   6   7
HETATM    7  C   UNK N   1      21.822  12.296  10.055  0.00  0.00     0.000 C 
BRANCH   7   8
HETATM    8  C   UNK N   1      23.207  12.695  10.515  0.00  0.00     0.000 C 
BRANCH   8   9
HETATM    9  C   UNK N   1      24.157  12.258   9.425  0.00  0.00     0.000 C 
BRANCH   9  10
HETATM   10  C   UNK N   1      25.007  13.396   8.910  0.00  0.00     0.000 C 
BRANCH  10  11
HETATM   11  C   UNK N   1      24.765  13.477   7.417  0.00  0.00    -0.000 C 
BRANCH  11  12
HETATM   12  C   UNK N   1      24.811  14.908   6.936  0.00  0.00    -0.005 C 
HETATM   13  C   UNK N   1      24.868  14.907   5.421  0.00  0.00     0.005 C 
ENDBRANCH  11  12
ENDBRANCH  10  11
ENDBRANCH   9  10
ENDBRANCH   8   9
ENDBRANCH   7   8
ENDBRANCH   6   7
ENDBRANCH   5   6
ENDBRANCH   4   5
ENDBRANCH   3   4
ENDBRANCH   2   3
ENDBRANCH   1   2
BRANCH   1  14
HETATM   14  C   UNK N   1      21.065  17.905   4.676  0.00  0.00     0.027 C 
BRANCH  14  15
HETATM   15  C   UNK N   1      21.180  19.273   4.030  0.00  0.00     0.178 C 
BRANCH  15  16
HETATM   16  O   UNK N   1      22.297  19.286   3.233  0.00  0.00    -0.321 OA
BRANCH  16  17
HETATM   17  C   UNK N   1      23.086  20.367   3.065  0.00  0.00     0.258 C 
HETATM   18  O   UNK N   1      22.609  21.449   2.721  0.00  0.00    -0.265 OA
BRANCH  17  19
HETATM   19  C   UNK N   1      24.549  20.219   3.320  0.00  0.00     0.111 C 
BRANCH  19  20
HETATM   20  C   UNK N   1      24.944  19.092   4.255  0.00  0.00     0.010 C 
BRANCH  20  21
HETATM   21  C   UNK N   1      26.339  18.688   3.839  0.00  0.00     0.000 C 
BRANCH  21  22
HETATM   22  C   UNK N   1      27.342  19.807   3.989  0.00  0.00     0.000 C 
BRANCH  22  23
HETATM   23  C   UNK N   1      27.640  19.927   5.468  0.00  0.00    -0.000 C 
BRANCH  23  24
HETATM   24  C   UNK N   1      27.418  21.341   5.955  0.00  0.00    -0.005 C 
HETATM   25  C   UNK N   1      26.369  21.318   7.047  0.00  0.00     0.005 C 
ENDBRANCH  23  24
ENDBRANCH  22  23
ENDBRANCH  21  22
ENDBRANCH  20  21
ENDBRANCH  19  20
ENDBRANCH  17  19
ENDBRANCH  16  17
ENDBRANCH  15  16
ENDBRANCH  14  15
ENDBRANCH   1  14
TORSDOF 21
ENDMDL
MODEL 6
REMARK VINA RESULT:      -4.4     16.967     21.479
REMARK  21 active torsions:
REMARK  status: ('A' for Active; 'I' for Inactive)
REMARK    1  A    between atoms: C_5  and  C_3 
REMARK    2  A    between atoms: C_6  and  C_4 
REMARK    3  A    between atoms: C_7  and  C_5 
REMARK    4  A    between atoms: C_8  and  C_6 
REMARK    5  A    between atoms: C_9  and  C_7 
REMARK    6  A    between atoms: C_17  and  C_8 
REMARK    7  A    between atoms: C_10  and  C_9 
REMARK    8  A    between atoms: C_11  and  C_10 
REMARK    9  A    between atoms: C_12  and  C_11 
REMARK   10  A    between atoms: C_13  and  C_12 
REMARK   11  A    between atoms: C_14  and  C_13 
REMARK   12  A    between atoms: C_15  and  C_14 
REMARK   13  A    between atoms: C_16  and  C_15 
REMARK   14  A    between atoms: C_18  and  C_16 
REMARK   15  A    between atoms: C_19  and  C_17 
REMARK   16  A    between atoms: C_20  and  C_18 
REMARK   17  A    between atoms: C_21  and  C_19 
REMARK   18  A    between atoms: C_22  and  C_20 
REMARK   19  A    between atoms: C_23  and  C_21 
REMARK   20  A    between atoms: O_25  and  C_22 
REMARK   21  A    between atoms: O_25  and  C_23 
ROOT
HETATM    1  C   UNK N   1      35.912  14.354  11.636  0.00  0.00     0.002 C 
ENDROOT
BRANCH   1   2
HETATM    2  C   UNK N   1      35.462  13.877  13.008  0.00  0.00     0.000 C 
BRANCH   2   3
HETATM    3  C   UNK N   1      36.488  14.244  14.067  0.00  0.00     0.000 C 
BRANCH   3   4
HETATM    4  C   UNK N   1      36.123  13.624  15.404  0.00  0.00     0.000 C 
BRANCH   4   5
HETATM    5  C   UNK N   1      36.140  12.108  15.320  0.00  0.00     0.000 C 
BRANCH   5   6
HETATM    6  C   UNK N   1      35.167  11.484  16.303  0.00  0.00     0.000 C 
BRANCH   6   7
HETATM    7  C   UNK N   1      34.461  10.357  15.589  0.00  0.00     0.000 C 
BRANCH   7   8
HETATM    8  C   UNK N   1      33.712  10.844  14.368  0.00  0.00     0.000 C 
BRANCH   8   9
HETATM    9  C   UNK N   1      34.082   9.905  13.244  0.00  0.00     0.000 C 
BRANCH   9  10
HETATM   10  C   UNK N   1      34.309  10.631  11.938  0.00  0.00     0.000 C 
BRANCH  10  11
HETATM   11  C   UNK N   1      35.596  10.083  11.356  0.00  0.00    -0.000 C 
BRANCH  11  12
HETATM   12  C   UNK N   1      36.708  10.106  12.377  0.00  0.00    -0.005 C 
HETATM   13  C   UNK N   1      37.739  11.129  11.945  0.00  0.00     0.005 C 
ENDBRANCH  11  12
ENDBRANCH  10  11
ENDBRANCH   9  10
ENDBRANCH   8   9
ENDBRANCH   7   8
ENDBRANCH   6   7
ENDBRANCH   5   6
ENDBRANCH   4   5
ENDBRANCH   3   4
ENDBRANCH   2   3
ENDBRANCH   1   2
BRANCH   1  14
HETATM   14  C   UNK N   1      35.666  15.843  11.467  0.00  0.00     0.027 C 
BRANCH  14  15
HETATM   15  C   UNK N   1      35.037  16.153  10.122  0.00  0.00     0.178 C 
BRANCH  15  16
HETATM   16  O   UNK N   1      35.210  17.488   9.856  0.00  0.00    -0.321 OA
BRANCH  16  17
HETATM   17  C   UNK N   1      34.785  18.089   8.726  0.00  0.00     0.258 C 
HETATM   18  O   UNK N   1      35.252  19.173   8.375  0.00  0.00    -0.265 OA
BRANCH  17  19
HETATM   19  C   UNK N   1      33.746  17.399   7.908  0.00  0.00     0.111 C 
BRANCH  19  20
HETATM   20  C   UNK N   1      33.919  17.497   6.405  0.00  0.00     0.010 C 
BRANCH  20  21
HETATM   21  C   UNK N   1      32.532  17.344   5.824  0.00  0.00     0.000 C 
BRANCH  21  22
HETATM   22  C   UNK N   1      32.481  17.637   4.344  0.00  0.00     0.000 C 
BRANCH  22  23
HETATM   23  C   UNK N   1      31.582  16.589   3.724  0.00  0.00    -0.000 C 
BRANCH  23  24
HETATM   24  C   UNK N   1      32.291  15.259   3.616  0.00  0.00    -0.005 C 
HETATM   25  C   UNK N   1      33.526  15.437   2.759  0.00  0.00     0.005 C 
ENDBRANCH  23  24
ENDBRANCH  22  23
ENDBRANCH  21  22
ENDBRANCH  20  21
ENDBRANCH  19  20
ENDBRANCH  17  19
ENDBRANCH  16  17
ENDBRANCH  15  16
ENDBRANCH  14  15
ENDBRANCH   1  14
TORSDOF 21
ENDMDL
MODEL 7
REMARK VINA RESULT:      -4.4      2.014      4.635
REMARK  21 active torsions:
REMARK  status: ('A' for Active; 'I' for Inactive)
REMARK    1  A    between atoms: C_5  and  C_3 
REMARK    2  A    between atoms: C_6  and  C_4 
REMARK    3  A    between atoms: C_7  and  C_5 
REMARK    4  A    between atoms: C_8  and  C_6 
REMARK    5  A    between atoms: C_9  and  C_7 
REMARK    6  A    between atoms: C_17  and  C_8 
REMARK    7  A    between atoms: C_10  and  C_9 
REMARK    8  A    between atoms: C_11  and  C_10 
REMARK    9  A    between atoms: C_12  and  C_11 
REMARK   10  A    between atoms: C_13  and  C_12 
REMARK   11  A    between atoms: C_14  and  C_13 
REMARK   12  A    between atoms: C_15  and  C_14 
REMARK   13  A    between atoms: C_16  and  C_15 
REMARK   14  A    between atoms: C_18  and  C_16 
REMARK   15  A    between atoms: C_19  and  C_17 
REMARK   16  A    between atoms: C_20  and  C_18 
REMARK   17  A    between atoms: C_21  and  C_19 
REMARK   18  A    between atoms: C_22  and  C_20 
REMARK   19  A    between atoms: C_23  and  C_21 
REMARK   20  A    between atoms: O_25  and  C_22 
REMARK   21  A    between atoms: O_25  and  C_23 
ROOT
HETATM    1  C   UNK N   1      29.526  27.332  -4.964  0.00  0.00     0.002 C 
ENDROOT
BRANCH   1   2
HETATM    2  C   UNK N   1      28.902  27.601  -6.323  0.00  0.00     0.000 C 
BRANCH   2   3
HETATM    3  C   UNK N   1      28.360  29.019  -6.393  0.00  0.00     0.000 C 
BRANCH   3   4
HETATM    4  C   UNK N   1      28.499  29.713  -5.049  0.00  0.00     0.000 C 
BRANCH   4   5
HETATM    5  C   UNK N   1      27.362  30.694  -4.827  0.00  0.00     0.000 C 
BRANCH   5   6
HETATM    6  C   UNK N   1      26.311  30.126  -3.892  0.00  0.00     0.000 C 
BRANCH   6   7
HETATM    7  C   UNK N   1      26.897  28.894  -3.244  0.00  0.00     0.000 C 
BRANCH   7   8
HETATM    8  C   UNK N   1      25.943  27.722  -3.297  0.00  0.00     0.000 C 
BRANCH   8   9
HETATM    9  C   UNK N   1      25.348  27.723  -4.686  0.00  0.00     0.000 C 
BRANCH   9  10
HETATM   10  C   UNK N   1      25.452  26.374  -5.358  0.00  0.00     0.000 C 
BRANCH  10  11
HETATM   11  C   UNK N   1      26.195  25.468  -4.399  0.00  0.00    -0.000 C 
BRANCH  11  12
HETATM   12  C   UNK N   1      26.404  24.097  -4.998  0.00  0.00    -0.005 C 
HETATM   13  C   UNK N   1      26.953  24.262  -6.401  0.00  0.00     0.005 C 
ENDBRANCH  11  12
ENDBRANCH  10  11
ENDBRANCH   9  10
ENDBRANCH   8   9
ENDBRANCH   7   8
ENDBRANCH   6   7
ENDBRANCH   5   6
ENDBRANCH   4   5
ENDBRANCH   3   4
ENDBRANCH   2   3
ENDBRANCH   1   2
BRANCH   1  14
HETATM   14  C   UNK N   1      29.990  25.890  -4.850  0.00  0.00     0.027 C 
BRANCH  14  15
HETATM   15  C   UNK N   1      30.730  25.645  -3.549  0.00  0.00     0.178 C 
BRANCH  15  16
HETATM   16  O   UNK N   1      31.194  24.354  -3.547  0.00  0.00    -0.321 OA
BRANCH  16  17
HETATM   17  C   UNK N   1      30.556  23.328  -2.948  0.00  0.00     0.258 C 
HETATM   18  O   UNK N   1      30.799  23.029  -1.779  0.00  0.00    -0.265 OA
BRANCH  17  19
HETATM   19  C   UNK N   1      29.537  22.575  -3.737  0.00  0.00     0.111 C 
BRANCH  19  20
HETATM   20  C   UNK N   1      30.058  21.382  -4.516  0.00  0.00     0.010 C 
BRANCH  20  21
HETATM   21  C   UNK N   1      30.370  21.904  -5.900  0.00  0.00     0.000 C 
BRANCH  21  22
HETATM   22  C   UNK N   1      31.850  21.926  -6.197  0.00  0.00     0.000 C 
BRANCH  22  23
HETATM   23  C   UNK N   1      32.496  20.931  -5.256  0.00  0.00    -0.000 C 
BRANCH  23  24
HETATM   24  C   UNK N   1      33.562  21.591  -4.413  0.00  0.00    -0.005 C 
HETATM   25  C   UNK N   1      33.562  20.950  -3.042  0.00  0.00     0.005 C 
ENDBRANCH  23  24
ENDBRANCH  22  23
ENDBRANCH  21  22
ENDBRANCH  20  21
ENDBRANCH  19  20
ENDBRANCH  17  19
ENDBRANCH  16  17
ENDBRANCH  15  16
ENDBRANCH  14  15
ENDBRANCH   1  14
TORSDOF 21
ENDMDL
MODEL 8
REMARK VINA RESULT:      -4.4      2.633      5.286
REMARK  21 active torsions:
REMARK  status: ('A' for Active; 'I' for Inactive)
REMARK    1  A    between atoms: C_5  and  C_3 
REMARK    2  A    between atoms: C_6  and  C_4 
REMARK    3  A    between atoms: C_7  and  C_5 
REMARK    4  A    between atoms: C_8  and  C_6 
REMARK    5  A    between atoms: C_9  and  C_7 
REMARK    6  A    between atoms: C_17  and  C_8 
REMARK    7  A    between atoms: C_10  and  C_9 
REMARK    8  A    between atoms: C_11  and  C_10 
REMARK    9  A    between atoms: C_12  and  C_11 
REMARK   10  A    between atoms: C_13  and  C_12 
REMARK   11  A    between atoms: C_14  and  C_13 
REMARK   12  A    between atoms: C_15  and  C_14 
REMARK   13  A    between atoms: C_16  and  C_15 
REMARK   14  A    between atoms: C_18  and  C_16 
REMARK   15  A    between atoms: C_19  and  C_17 
REMARK   16  A    between atoms: C_20  and  C_18 
REMARK   17  A    between atoms: C_21  and  C_19 
REMARK   18  A    between atoms: C_22  and  C_20 
REMARK   19  A    between atoms: C_23  and  C_21 
REMARK   20  A    between atoms: O_25  and  C_22 
REMARK   21  A    between atoms: O_25  and  C_23 
ROOT
HETATM    1  C   UNK N   1      27.072  27.171  -7.019  0.00  0.00     0.002 C 
ENDROOT
BRANCH   1   2
HETATM    2  C   UNK N   1      26.978  28.080  -5.805  0.00  0.00     0.000 C 
BRANCH   2   3
HETATM    3  C   UNK N   1      25.632  27.920  -5.118  0.00  0.00     0.000 C 
BRANCH   3   4
HETATM    4  C   UNK N   1      25.815  27.721  -3.623  0.00  0.00     0.000 C 
BRANCH   4   5
HETATM    5  C   UNK N   1      26.825  26.623  -3.343  0.00  0.00     0.000 C 
BRANCH   5   6
HETATM    6  C   UNK N   1      26.311  25.267  -3.792  0.00  0.00     0.000 C 
BRANCH   6   7
HETATM    7  C   UNK N   1      27.459  24.542  -4.451  0.00  0.00     0.000 C 
BRANCH   7   8
HETATM    8  C   UNK N   1      28.388  23.915  -3.435  0.00  0.00     0.000 C 
BRANCH   8   9
HETATM    9  C   UNK N   1      29.783  24.363  -3.805  0.00  0.00     0.000 C 
BRANCH   9  10
HETATM   10  C   UNK N   1      29.807  25.181  -5.075  0.00  0.00     0.000 C 
BRANCH  10  11
HETATM   11  C   UNK N   1      30.834  26.275  -4.867  0.00  0.00    -0.000 C 
BRANCH  11  12
HETATM   12  C   UNK N   1      30.199  27.511  -4.275  0.00  0.00    -0.005 C 
HETATM   13  C   UNK N   1      30.901  27.838  -2.972  0.00  0.00     0.005 C 
ENDBRANCH  11  12
ENDBRANCH  10  11
ENDBRANCH   9  10
ENDBRANCH   8   9
ENDBRANCH   7   8
ENDBRANCH   6   7
ENDBRANCH   5   6
ENDBRANCH   4   5
ENDBRANCH   3   4
ENDBRANCH   2   3
ENDBRANCH   1   2
BRANCH   1  14
HETATM   14  C   UNK N   1      25.731  26.525  -7.324  0.00  0.00     0.027 C 
BRANCH  14  15
HETATM   15  C   UNK N   1      25.904  25.202  -8.046  0.00  0.00     0.178 C 
BRANCH  15  16
HETATM   16  O   UNK N   1      25.377  24.206  -7.263  0.00  0.00    -0.321 OA
BRANCH  16  17
HETATM   17  C   UNK N   1      25.357  22.905  -7.617  0.00  0.00     0.258 C 
HETATM   18  O   UNK N   1      24.404  22.434  -8.240  0.00  0.00    -0.265 OA
BRANCH  17  19
HETATM   19  C   UNK N   1      26.526  22.055  -7.246  0.00  0.00     0.111 C 
BRANCH  19  20
HETATM   20  C   UNK N   1      27.789  22.283  -8.055  0.00  0.00     0.010 C 
BRANCH  20  21
HETATM   21  C   UNK N   1      28.656  21.070  -7.807  0.00  0.00     0.000 C 
BRANCH  21  22
HETATM   22  C   UNK N   1      29.987  21.419  -7.186  0.00  0.00     0.000 C 
BRANCH  22  23
HETATM   23  C   UNK N   1      29.838  21.212  -5.694  0.00  0.00    -0.000 C 
BRANCH  23  24
HETATM   24  C   UNK N   1      31.173  20.924  -5.048  0.00  0.00    -0.005 C 
HETATM   25  C   UNK N   1      31.005  20.978  -3.544  0.00  0.00     0.005 C 
ENDBRANCH  23  24
ENDBRANCH  22  23
ENDBRANCH  21  22
ENDBRANCH  20  21
ENDBRANCH  19  20
ENDBRANCH  17  19
ENDBRANCH  16  17
ENDBRANCH  15  16
ENDBRANCH  14  15
ENDBRANCH   1  14
TORSDOF 21
ENDMDL
MODEL 9
REMARK VINA RESULT:      -4.4      1.540      3.841
REMARK  21 active torsions:
REMARK  status: ('A' for Active; 'I' for Inactive)
REMARK    1  A    between atoms: C_5  and  C_3 
REMARK    2  A    between atoms: C_6  and  C_4 
REMARK    3  A    between atoms: C_7  and  C_5 
REMARK    4  A    between atoms: C_8  and  C_6 
REMARK    5  A    between atoms: C_9  and  C_7 
REMARK    6  A    between atoms: C_17  and  C_8 
REMARK    7  A    between atoms: C_10  and  C_9 
REMARK    8  A    between atoms: C_11  and  C_10 
REMARK    9  A    between atoms: C_12  and  C_11 
REMARK   10  A    between atoms: C_13  and  C_12 
REMARK   11  A    between atoms: C_14  and  C_13 
REMARK   12  A    between atoms: C_15  and  C_14 
REMARK   13  A    between atoms: C_16  and  C_15 
REMARK   14  A    between atoms: C_18  and  C_16 
REMARK   15  A    between atoms: C_19  and  C_17 
REMARK   16  A    between atoms: C_20  and  C_18 
REMARK   17  A    between atoms: C_21  and  C_19 
REMARK   18  A    between atoms: C_22  and  C_20 
REMARK   19  A    between atoms: C_23  and  C_21 
REMARK   20  A    between atoms: O_25  and  C_22 
REMARK   21  A    between atoms: O_25  and  C_23 
ROOT
HETATM    1  C   UNK N   1      29.317  27.210  -5.057  0.00  0.00     0.002 C 
ENDROOT
BRANCH   1   2
HETATM    2  C   UNK N   1      29.095  27.431  -6.544  0.00  0.00     0.000 C 
BRANCH   2   3
HETATM    3  C   UNK N   1      27.691  27.951  -6.806  0.00  0.00     0.000 C 
BRANCH   3   4
HETATM    4  C   UNK N   1      26.819  27.780  -5.574  0.00  0.00     0.000 C 
BRANCH   4   5
HETATM    5  C   UNK N   1      25.428  27.306  -5.958  0.00  0.00     0.000 C 
BRANCH   5   6
HETATM    6  C   UNK N   1      25.164  25.896  -5.463  0.00  0.00     0.000 C 
BRANCH   6   7
HETATM    7  C   UNK N   1      26.190  25.590  -4.398  0.00  0.00     0.000 C 
BRANCH   7   8
HETATM    8  C   UNK N   1      26.858  24.251  -4.627  0.00  0.00     0.000 C 
BRANCH   8   9
HETATM    9  C   UNK N   1      26.029  23.540  -5.672  0.00  0.00     0.000 C 
BRANCH   9  10
HETATM   10  C   UNK N   1      26.871  22.992  -6.800  0.00  0.00     0.000 C 
BRANCH  10  11
HETATM   11  C   UNK N   1      27.993  23.985  -7.025  0.00  0.00    -0.000 C 
BRANCH  11  12
HETATM   12  C   UNK N   1      28.000  24.480  -8.452  0.00  0.00    -0.005 C 
HETATM   13  C   UNK N   1      26.708  24.054  -9.119  0.00  0.00     0.005 C 
ENDBRANCH  11  12
ENDBRANCH  10  11
ENDBRANCH   9  10
ENDBRANCH   8   9
ENDBRANCH   7   8
ENDBRANCH   6   7
ENDBRANCH   5   6
ENDBRANCH   4   5
ENDBRANCH   3   4
ENDBRANCH   2   3
ENDBRANCH   1   2
BRANCH   1  14
HETATM   14  C   UNK N   1      30.229  26.021  -4.810  0.00  0.00     0.027 C 
BRANCH  14  15
HETATM   15  C   UNK N   1      30.247  25.629  -3.345  0.00  0.00     0.178 C 
BRANCH  15  16
HETATM   16  O   UNK N   1      30.983  24.479  -3.209  0.00  0.00    -0.321 OA
BRANCH  16  17
HETATM   17  C   UNK N   1      30.501  23.338  -2.677  0.00  0.00     0.258 C 
HETATM   18  O   UNK N   1      30.497  23.163  -1.458  0.00  0.00    -0.265 OA
BRANCH  17  19
HETATM   19  C   UNK N   1      29.960  22.301  -3.603  0.00  0.00     0.111 C 
BRANCH  19  20
HETATM   20  C   UNK N   1      30.674  22.170  -4.935  0.00  0.00     0.010 C 
BRANCH  20  21
HETATM   21  C   UNK N   1      29.839  21.212  -5.753  0.00  0.00     0.000 C 
BRANCH  21  22
HETATM   22  C   UNK N   1      30.541  20.747  -7.006  0.00  0.00     0.000 C 
BRANCH  22  23
HETATM   23  C   UNK N   1      29.904  19.430  -7.396  0.00  0.00    -0.000 C 
BRANCH  23  24
HETATM   24  C   UNK N   1      29.483  19.438  -8.847  0.00  0.00    -0.005 C 
HETATM   25  C   UNK N   1      28.683  20.696  -9.112  0.00  0.00     0.005 C 
ENDBRANCH  23  24
ENDBRANCH  22  23
ENDBRANCH  21  22
ENDBRANCH  20  21
ENDBRANCH  19  20
ENDBRANCH  17  19
ENDBRANCH  16  17
ENDBRANCH  15  16
ENDBRANCH  14  15
ENDBRANCH   1  14
TORSDOF 21
ENDMDL
