REMARK  5 active torsions:
REMARK  status: ('A' for Active; 'I' for Inactive)
REMARK    1  A    between atoms: C_11  and  C_15 
REMARK    2  A    between atoms: C_15  and  C_19 
REMARK    3  A    between atoms: N_16  and  O_18 
REMARK    4  A    between atoms: C_24  and  C_29 
REMARK    5  A    between atoms: C_29  and  O_30 
ROOT
HETATM    1  C   UNK N   1      -0.147  -2.645  -0.239  0.00  0.00     0.074 C 
HETATM    2  N   UNK N   1      -0.108  -3.933  -0.068  0.00  0.00    -0.268 N 
ATOM      3  HN  UNK N   1       0.798  -4.402  -0.091  1.00  0.00     0.194 HD
ENDROOT
BRANCH   1   4
HETATM    4  C   UNK N   1      -1.441  -1.863  -0.175  0.00  0.00    -0.006 A 
HETATM    5  C   UNK N   1      -1.360  -0.478  -0.008  0.00  0.00     0.022 A 
HETATM    6  C   UNK N   1      -2.473   0.344   0.095  0.00  0.00    -0.042 A 
HETATM    7  C   UNK N   1      -2.251   1.844   0.205  0.00  0.00    -0.020 C 
HETATM    8  C   UNK N   1      -3.758  -0.242   0.071  0.00  0.00    -0.043 A 
HETATM    9  C   UNK N   1      -3.540   2.634   0.003  0.00  0.00     0.015 C 
HETATM   10  C   UNK N   1      -1.632   2.172   1.555  0.00  0.00     0.020 C 
HETATM   11  C   UNK N   1      -1.295   2.313  -0.881  0.00  0.00     0.020 C 
HETATM   12  C   UNK N   1      -4.685   2.010   0.773  0.00  0.00     0.015 C 
HETATM   13  C   UNK N   1      -5.007   0.605   0.254  0.00  0.00    -0.020 C 
HETATM   14  C   UNK N   1      -5.764   0.693  -1.060  0.00  0.00     0.020 C 
HETATM   15  C   UNK N   1      -5.917  -0.019   1.297  0.00  0.00     0.020 C 
HETATM   16  C   UNK N   1      -3.865  -1.639  -0.104  0.00  0.00     0.009 A 
HETATM   17  C   UNK N   1      -2.717  -2.442  -0.218  0.00  0.00     0.014 A 
ENDBRANCH   1   4
BRANCH   1  18
HETATM   18  C   UNK N   1       1.143  -1.906  -0.412  0.00  0.00    -0.006 A 
HETATM   19  C   UNK N   1       1.147  -0.658  -1.061  0.00  0.00     0.014 A 
HETATM   20  C   UNK N   1       2.284   0.129  -1.122  0.00  0.00     0.013 A 
HETATM   21  C   UNK N   1       3.450  -0.309  -0.518  0.00  0.00    -0.025 A 
HETATM   22  C   UNK N   1       4.561   0.527  -0.502  0.00  0.00     0.030 A 
HETATM   23  C   UNK N   1       3.497  -1.577   0.106  0.00  0.00    -0.025 A 
HETATM   24  C   UNK N   1       5.734   0.127   0.137  0.00  0.00     0.038 A 
HETATM   25  C   UNK N   1       5.795  -1.139   0.745  0.00  0.00     0.019 A 
HETATM   26  C   UNK N   1       4.680  -1.991   0.726  0.00  0.00     0.013 A 
HETATM   27  C   UNK N   1       2.346  -2.382   0.142  0.00  0.00     0.026 A 
BRANCH  24  28
HETATM   28  C   UNK N   1       6.878   1.057   0.190  0.00  0.00     0.176 C 
HETATM   29  O   UNK N   1       7.907   0.739   0.763  0.00  0.00    -0.646 OA
BRANCH  28  30
HETATM   30  O   UNK N   1       6.783   2.278  -0.375  0.00  0.00    -0.773 OA
HETATM   31  H   UNK N   1       7.484   2.759  -0.768  0.00  0.00     0.167 HD
ENDBRANCH  28  30
ENDBRANCH  24  28
ENDBRANCH   1  18
BRANCH   2  32
HETATM   32  O   UNK N   1      -1.185  -4.654   0.134  0.00  0.00    -0.289 OA
HETATM   33  H   UNK N   1      -2.016  -4.245   0.278  0.00  0.00     0.244 HD
ENDBRANCH   2  32
TORSDOF 5
