MODEL 1
REMARK VINA RESULT:      -6.7      0.000      0.000
REMARK  8 active torsions:
REMARK  status: ('A' for Active; 'I' for Inactive)
REMARK    1  A    between atoms: C_3  and  C_4 
REMARK    2  A    between atoms: C_4  and  C_5 
REMARK    3  A    between atoms: C_5  and  O_6 
REMARK    4  A    between atoms: O_6  and  P_7 
REMARK    5  A    between atoms: N_13  and  C_14 
REMARK    6  A    between atoms: C_14  and  C_15 
REMARK    7  A    between atoms: C_19  and  C_24 
REMARK    8  A    between atoms: C_22  and  N_23 
ROOT
HETATM    1  C   UNK N   1      28.327  17.057   5.326  0.00  0.00     0.019 A 
HETATM    2  C   UNK N   1      28.724  17.939   4.327  0.00  0.00     0.102 A 
HETATM    3  N   UNK N   1      27.874  18.906   3.901  0.00  0.00    -0.348 N 
ATOM      4  HN  UNK N   1      28.169  19.547   3.164  1.00  0.00     0.166 HD
HETATM    5  C   UNK N   1      26.631  19.033   4.443  0.00  0.00     0.192 A 
HETATM    6  N   UNK N   1      26.212  18.158   5.397  0.00  0.00    -0.325 N 
ATOM      7  HN  UNK N   1      25.272  18.246   5.780  1.00  0.00     0.169 HD
HETATM    8  C   UNK N   1      27.029  17.168   5.845  0.00  0.00     0.109 A 
ENDROOT
BRANCH   1   9
HETATM    9  C   UNK N   1      29.321  16.077   5.879  0.00  0.00     0.172 C 
BRANCH   9  10
HETATM   10  N   UNK N   1      30.290  16.732   6.773  0.00  0.00    -0.349 N 
HETATM   11  C   UNK N   1      29.989  17.188   8.027  0.00  0.00     0.141 A 
HETATM   12  S   UNK N   1      31.353  17.853   8.678  0.00  0.00    -0.087 SA
HETATM   13  C   UNK N   1      32.372  17.591   7.407  0.00  0.00     0.008 A 
HETATM   14  C   UNK N   1      31.607  16.959   6.418  0.00  0.00     0.021 A 
HETATM   15  C   UNK N   1      32.167  16.563   5.092  0.00  0.00     0.069 C 
BRANCH  13  16
HETATM   16  C   UNK N   1      33.814  17.968   7.327  0.00  0.00     0.075 C 
BRANCH  16  17
HETATM   17  C   UNK N   1      34.540  17.659   8.628  0.00  0.00     0.187 C 
BRANCH  17  18
HETATM   18  O   UNK N   1      34.633  16.279   8.834  0.00  0.00    -0.282 OA
BRANCH  18  19
HETATM   19  P   UNK N   1      35.174  16.101  10.479  0.00  0.00     0.422 P 
HETATM   20  O   UNK N   1      36.866  16.142  10.864  0.00  0.00    -0.617 OA
HETATM   21  O   UNK N   1      36.077  15.019   9.461  0.00  0.00    -0.617 OA
HETATM   22  O   UNK N   1      35.571  17.566  10.163  0.00  0.00    -0.617 OA
ENDBRANCH  18  19
ENDBRANCH  17  18
ENDBRANCH  16  17
ENDBRANCH  13  16
ENDBRANCH   9  10
ENDBRANCH   1   9
BRANCH   8  23
HETATM   23  N   UNK N   1      26.577  16.297   6.857  0.00  0.00    -0.385 N 
HETATM   24  H   UNK N   1      26.370  16.406   7.813  0.00  0.00     0.157 HD
HETATM   25  H   UNK N   1      26.438  15.376   6.538  0.00  0.00     0.157 HD
ENDBRANCH   8  23
BRANCH   5  26
HETATM   26  C   UNK N   1      25.743  20.162   4.033  0.00  0.00     0.449 C 
HETATM   27  F   UNK N   1      24.454  19.702   3.848  0.00  0.00    -0.163 F 
HETATM   28  F   UNK N   1      25.747  21.120   5.030  0.00  0.00    -0.163 F 
HETATM   29  F   UNK N   1      26.194  20.737   2.859  0.00  0.00    -0.163 F 
ENDBRANCH   5  26
TORSDOF 8
ENDMDL
MODEL 2
REMARK VINA RESULT:      -6.7      7.544      9.394
REMARK  8 active torsions:
REMARK  status: ('A' for Active; 'I' for Inactive)
REMARK    1  A    between atoms: C_3  and  C_4 
REMARK    2  A    between atoms: C_4  and  C_5 
REMARK    3  A    between atoms: C_5  and  O_6 
REMARK    4  A    between atoms: O_6  and  P_7 
REMARK    5  A    between atoms: N_13  and  C_14 
REMARK    6  A    between atoms: C_14  and  C_15 
REMARK    7  A    between atoms: C_19  and  C_24 
REMARK    8  A    between atoms: C_22  and  N_23 
ROOT
HETATM    1  C   UNK N   1      29.069  17.074   6.184  0.00  0.00     0.019 A 
HETATM    2  C   UNK N   1      29.478  17.136   7.511  0.00  0.00     0.102 A 
HETATM    3  N   UNK N   1      30.795  17.270   7.807  0.00  0.00    -0.348 N 
ATOM      4  HN  UNK N   1      31.091  17.310   8.783  1.00  0.00     0.166 HD
HETATM    5  C   UNK N   1      31.729  17.353   6.820  0.00  0.00     0.192 A 
HETATM    6  N   UNK N   1      31.351  17.260   5.516  0.00  0.00    -0.325 N 
ATOM      7  HN  UNK N   1      32.060  17.299   4.784  1.00  0.00     0.169 HD
HETATM    8  C   UNK N   1      30.043  17.114   5.176  0.00  0.00     0.109 A 
ENDROOT
BRANCH   1   9
HETATM    9  C   UNK N   1      27.601  17.057   5.868  0.00  0.00     0.172 C 
BRANCH   9  10
HETATM   10  N   UNK N   1      27.141  18.356   5.350  0.00  0.00    -0.349 N 
HETATM   11  C   UNK N   1      27.357  19.552   5.977  0.00  0.00     0.141 A 
HETATM   12  S   UNK N   1      26.675  20.747   5.063  0.00  0.00    -0.087 SA
HETATM   13  C   UNK N   1      26.085  19.804   3.845  0.00  0.00     0.008 A 
HETATM   14  C   UNK N   1      26.429  18.486   4.171  0.00  0.00     0.021 A 
HETATM   15  C   UNK N   1      26.059  17.318   3.317  0.00  0.00     0.069 C 
BRANCH  13  16
HETATM   16  C   UNK N   1      25.324  20.267   2.648  0.00  0.00     0.075 C 
BRANCH  16  17
HETATM   17  C   UNK N   1      23.921  20.721   3.025  0.00  0.00     0.187 C 
BRANCH  17  18
HETATM   18  O   UNK N   1      23.173  19.659   3.542  0.00  0.00    -0.282 OA
BRANCH  18  19
HETATM   19  P   UNK N   1      21.571  19.874   2.896  0.00  0.00     0.422 P 
HETATM   20  O   UNK N   1      20.376  20.777   3.773  0.00  0.00    -0.617 OA
HETATM   21  O   UNK N   1      21.453  19.328   4.541  0.00  0.00    -0.617 OA
HETATM   22  O   UNK N   1      22.131  21.321   2.867  0.00  0.00    -0.617 OA
ENDBRANCH  18  19
ENDBRANCH  17  18
ENDBRANCH  16  17
ENDBRANCH  13  16
ENDBRANCH   9  10
ENDBRANCH   1   9
BRANCH   8  23
HETATM   23  N   UNK N   1      29.680  17.053   3.815  0.00  0.00    -0.385 N 
HETATM   24  H   UNK N   1      30.044  16.587   3.029  0.00  0.00     0.157 HD
HETATM   25  H   UNK N   1      28.886  17.597   3.604  0.00  0.00     0.157 HD
ENDBRANCH   8  23
BRANCH   5  26
HETATM   26  C   UNK N   1      33.163  17.599   7.159  0.00  0.00     0.449 C 
HETATM   27  F   UNK N   1      33.266  18.692   7.997  0.00  0.00    -0.163 F 
HETATM   28  F   UNK N   1      33.669  16.483   7.799  0.00  0.00    -0.163 F 
HETATM   29  F   UNK N   1      33.903  17.831   6.014  0.00  0.00    -0.163 F 
ENDBRANCH   5  26
TORSDOF 8
ENDMDL
MODEL 3
REMARK VINA RESULT:      -6.6      1.327      1.884
REMARK  8 active torsions:
REMARK  status: ('A' for Active; 'I' for Inactive)
REMARK    1  A    between atoms: C_3  and  C_4 
REMARK    2  A    between atoms: C_4  and  C_5 
REMARK    3  A    between atoms: C_5  and  O_6 
REMARK    4  A    between atoms: O_6  and  P_7 
REMARK    5  A    between atoms: N_13  and  C_14 
REMARK    6  A    between atoms: C_14  and  C_15 
REMARK    7  A    between atoms: C_19  and  C_24 
REMARK    8  A    between atoms: C_22  and  N_23 
ROOT
HETATM    1  C   UNK N   1      28.812  17.221   5.815  0.00  0.00     0.019 A 
HETATM    2  C   UNK N   1      28.990  17.786   4.556  0.00  0.00     0.102 A 
HETATM    3  N   UNK N   1      28.223  18.836   4.171  0.00  0.00    -0.348 N 
ATOM      4  HN  UNK N   1      28.355  19.243   3.244  1.00  0.00     0.166 HD
HETATM    5  C   UNK N   1      27.279  19.355   5.004  0.00  0.00     0.192 A 
HETATM    6  N   UNK N   1      27.067  18.795   6.225  0.00  0.00    -0.325 N 
ATOM      7  HN  UNK N   1      26.342  19.175   6.833  1.00  0.00     0.169 HD
HETATM    8  C   UNK N   1      27.807  17.734   6.646  0.00  0.00     0.109 A 
ENDROOT
BRANCH   1   9
HETATM    9  C   UNK N   1      29.753  16.148   6.278  0.00  0.00     0.172 C 
BRANCH   9  10
HETATM   10  N   UNK N   1      31.149  16.615   6.288  0.00  0.00    -0.349 N 
HETATM   11  C   UNK N   1      32.006  16.495   5.228  0.00  0.00     0.141 A 
HETATM   12  S   UNK N   1      33.462  17.140   5.663  0.00  0.00    -0.087 SA
HETATM   13  C   UNK N   1      33.069  17.593   7.200  0.00  0.00     0.008 A 
HETATM   14  C   UNK N   1      31.734  17.215   7.388  0.00  0.00     0.021 A 
HETATM   15  C   UNK N   1      31.002  17.441   8.670  0.00  0.00     0.069 C 
BRANCH  13  16
HETATM   16  C   UNK N   1      33.966  18.257   8.191  0.00  0.00     0.075 C 
BRANCH  16  17
HETATM   17  C   UNK N   1      34.893  17.253   8.860  0.00  0.00     0.187 C 
BRANCH  17  18
HETATM   18  O   UNK N   1      34.224  16.546   9.865  0.00  0.00    -0.282 OA
BRANCH  18  19
HETATM   19  P   UNK N   1      35.352  15.328  10.390  0.00  0.00     0.422 P 
HETATM   20  O   UNK N   1      36.084  15.418  11.961  0.00  0.00    -0.617 OA
HETATM   21  O   UNK N   1      36.036  16.900  10.675  0.00  0.00    -0.617 OA
HETATM   22  O   UNK N   1      34.155  15.100  11.350  0.00  0.00    -0.617 OA
ENDBRANCH  18  19
ENDBRANCH  17  18
ENDBRANCH  16  17
ENDBRANCH  13  16
ENDBRANCH   9  10
ENDBRANCH   1   9
BRANCH   8  23
HETATM   23  N   UNK N   1      27.584  17.197   7.930  0.00  0.00    -0.385 N 
HETATM   24  H   UNK N   1      27.658  16.295   8.318  0.00  0.00     0.157 HD
HETATM   25  H   UNK N   1      27.289  17.872   8.584  0.00  0.00     0.157 HD
ENDBRANCH   8  23
BRANCH   5  26
HETATM   26  C   UNK N   1      26.510  20.572   4.604  0.00  0.00     0.449 C 
HETATM   27  F   UNK N   1      26.722  20.842   3.266  0.00  0.00    -0.163 F 
HETATM   28  F   UNK N   1      25.163  20.340   4.815  0.00  0.00    -0.163 F 
HETATM   29  F   UNK N   1      26.898  21.665   5.357  0.00  0.00    -0.163 F 
ENDBRANCH   5  26
TORSDOF 8
ENDMDL
MODEL 4
REMARK VINA RESULT:      -6.6      2.209      2.864
REMARK  8 active torsions:
REMARK  status: ('A' for Active; 'I' for Inactive)
REMARK    1  A    between atoms: C_3  and  C_4 
REMARK    2  A    between atoms: C_4  and  C_5 
REMARK    3  A    between atoms: C_5  and  O_6 
REMARK    4  A    between atoms: O_6  and  P_7 
REMARK    5  A    between atoms: N_13  and  C_14 
REMARK    6  A    between atoms: C_14  and  C_15 
REMARK    7  A    between atoms: C_19  and  C_24 
REMARK    8  A    between atoms: C_22  and  N_23 
ROOT
HETATM    1  C   UNK N   1      28.573  17.278   5.660  0.00  0.00     0.019 A 
HETATM    2  C   UNK N   1      27.834  17.962   4.701  0.00  0.00     0.102 A 
HETATM    3  N   UNK N   1      27.286  19.166   5.000  0.00  0.00    -0.348 N 
ATOM      4  HN  UNK N   1      26.740  19.660   4.294  1.00  0.00     0.166 HD
HETATM    5  C   UNK N   1      27.455  19.724   6.230  0.00  0.00     0.192 A 
HETATM    6  N   UNK N   1      28.146  19.056   7.192  0.00  0.00    -0.325 N 
ATOM      7  HN  UNK N   1      28.248  19.471   8.118  1.00  0.00     0.169 HD
HETATM    8  C   UNK N   1      28.702  17.842   6.937  0.00  0.00     0.109 A 
ENDROOT
BRANCH   1   9
HETATM    9  C   UNK N   1      29.281  16.012   5.276  0.00  0.00     0.172 C 
BRANCH   9  10
HETATM   10  N   UNK N   1      30.665  16.271   4.845  0.00  0.00    -0.349 N 
HETATM   11  C   UNK N   1      31.005  17.113   3.823  0.00  0.00     0.141 A 
HETATM   12  S   UNK N   1      32.649  17.109   3.672  0.00  0.00    -0.087 SA
HETATM   13  C   UNK N   1      32.994  16.048   4.888  0.00  0.00     0.008 A 
HETATM   14  C   UNK N   1      31.762  15.670   5.436  0.00  0.00     0.021 A 
HETATM   15  C   UNK N   1      31.642  14.699   6.564  0.00  0.00     0.069 C 
BRANCH  13  16
HETATM   16  C   UNK N   1      34.348  15.578   5.304  0.00  0.00     0.075 C 
BRANCH  16  17
HETATM   17  C   UNK N   1      34.733  16.134   6.667  0.00  0.00     0.187 C 
BRANCH  17  18
HETATM   18  O   UNK N   1      34.651  17.530   6.680  0.00  0.00    -0.282 OA
BRANCH  18  19
HETATM   19  P   UNK N   1      34.123  17.939   8.288  0.00  0.00     0.422 P 
HETATM   20  O   UNK N   1      35.177  17.719   9.649  0.00  0.00    -0.617 OA
HETATM   21  O   UNK N   1      34.807  16.341   8.301  0.00  0.00    -0.617 OA
HETATM   22  O   UNK N   1      35.243  18.982   8.038  0.00  0.00    -0.617 OA
ENDBRANCH  18  19
ENDBRANCH  17  18
ENDBRANCH  16  17
ENDBRANCH  13  16
ENDBRANCH   9  10
ENDBRANCH   1   9
BRANCH   8  23
HETATM   23  N   UNK N   1      29.440  17.189   7.945  0.00  0.00    -0.385 N 
HETATM   24  H   UNK N   1      30.393  17.162   8.189  0.00  0.00     0.157 HD
HETATM   25  H   UNK N   1      28.878  16.636   8.536  0.00  0.00     0.157 HD
ENDBRANCH   8  23
BRANCH   5  26
HETATM   26  C   UNK N   1      26.929  21.094   6.513  0.00  0.00     0.449 C 
HETATM   27  F   UNK N   1      27.957  22.014   6.450  0.00  0.00    -0.163 F 
HETATM   28  F   UNK N   1      25.973  21.412   5.566  0.00  0.00    -0.163 F 
HETATM   29  F   UNK N   1      26.349  21.145   7.768  0.00  0.00    -0.163 F 
ENDBRANCH   5  26
TORSDOF 8
ENDMDL
MODEL 5
REMARK VINA RESULT:      -6.6      7.349      9.157
REMARK  8 active torsions:
REMARK  status: ('A' for Active; 'I' for Inactive)
REMARK    1  A    between atoms: C_3  and  C_4 
REMARK    2  A    between atoms: C_4  and  C_5 
REMARK    3  A    between atoms: C_5  and  O_6 
REMARK    4  A    between atoms: O_6  and  P_7 
REMARK    5  A    between atoms: N_13  and  C_14 
REMARK    6  A    between atoms: C_14  and  C_15 
REMARK    7  A    between atoms: C_19  and  C_24 
REMARK    8  A    between atoms: C_22  and  N_23 
ROOT
HETATM    1  C   UNK N   1      29.824  17.598   7.702  0.00  0.00     0.019 A 
HETATM    2  C   UNK N   1      30.672  17.259   6.652  0.00  0.00     0.102 A 
HETATM    3  N   UNK N   1      32.016  17.318   6.822  0.00  0.00    -0.348 N 
ATOM      4  HN  UNK N   1      32.633  17.074   6.047  1.00  0.00     0.166 HD
HETATM    5  C   UNK N   1      32.554  17.698   8.014  0.00  0.00     0.192 A 
HETATM    6  N   UNK N   1      31.742  18.066   9.041  0.00  0.00    -0.325 N 
ATOM      7  HN  UNK N   1      32.154  18.372   9.922  1.00  0.00     0.169 HD
HETATM    8  C   UNK N   1      30.389  18.032   8.910  0.00  0.00     0.109 A 
ENDROOT
BRANCH   1   9
HETATM    9  C   UNK N   1      28.345  17.404   7.543  0.00  0.00     0.172 C 
BRANCH   9  10
HETATM   10  N   UNK N   1      27.749  18.441   6.685  0.00  0.00    -0.349 N 
HETATM   11  C   UNK N   1      27.760  19.777   6.977  0.00  0.00     0.141 A 
HETATM   12  S   UNK N   1      26.986  20.581   5.760  0.00  0.00    -0.087 SA
HETATM   13  C   UNK N   1      26.607  19.278   4.821  0.00  0.00     0.008 A 
HETATM   14  C   UNK N   1      27.104  18.155   5.496  0.00  0.00     0.021 A 
HETATM   15  C   UNK N   1      26.950  16.764   4.974  0.00  0.00     0.069 C 
BRANCH  13  16
HETATM   16  C   UNK N   1      25.870  19.297   3.524  0.00  0.00     0.075 C 
BRANCH  16  17
HETATM   17  C   UNK N   1      24.401  19.639   3.727  0.00  0.00     0.187 C 
BRANCH  17  18
HETATM   18  O   UNK N   1      23.708  18.560   4.284  0.00  0.00    -0.282 OA
BRANCH  18  19
HETATM   19  P   UNK N   1      22.071  18.730   3.719  0.00  0.00     0.422 P 
HETATM   20  O   UNK N   1      20.956  19.781   4.536  0.00  0.00    -0.617 OA
HETATM   21  O   UNK N   1      22.054  18.421   5.429  0.00  0.00    -0.617 OA
HETATM   22  O   UNK N   1      22.657  20.142   3.451  0.00  0.00    -0.617 OA
ENDBRANCH  18  19
ENDBRANCH  17  18
ENDBRANCH  16  17
ENDBRANCH  13  16
ENDBRANCH   9  10
ENDBRANCH   1   9
BRANCH   8  23
HETATM   23  N   UNK N   1      29.574  18.388  10.003  0.00  0.00    -0.385 N 
HETATM   24  H   UNK N   1      28.604  18.497  10.129  0.00  0.00     0.157 HD
HETATM   25  H   UNK N   1      30.089  18.569  10.823  0.00  0.00     0.157 HD
ENDBRANCH   8  23
BRANCH   5  26
HETATM   26  C   UNK N   1      34.034  17.664   8.216  0.00  0.00     0.449 C 
HETATM   27  F   UNK N   1      34.553  18.938   8.095  0.00  0.00    -0.163 F 
HETATM   28  F   UNK N   1      34.302  17.180   9.483  0.00  0.00    -0.163 F 
HETATM   29  F   UNK N   1      34.636  16.837   7.285  0.00  0.00    -0.163 F 
ENDBRANCH   5  26
TORSDOF 8
ENDMDL
MODEL 6
REMARK VINA RESULT:      -6.5      8.487     11.000
REMARK  8 active torsions:
REMARK  status: ('A' for Active; 'I' for Inactive)
REMARK    1  A    between atoms: C_3  and  C_4 
REMARK    2  A    between atoms: C_4  and  C_5 
REMARK    3  A    between atoms: C_5  and  O_6 
REMARK    4  A    between atoms: O_6  and  P_7 
REMARK    5  A    between atoms: N_13  and  C_14 
REMARK    6  A    between atoms: C_14  and  C_15 
REMARK    7  A    between atoms: C_19  and  C_24 
REMARK    8  A    between atoms: C_22  and  N_23 
ROOT
HETATM    1  C   UNK N   1      36.610  12.263  12.771  0.00  0.00     0.019 A 
HETATM    2  C   UNK N   1      36.294  11.225  13.641  0.00  0.00     0.102 A 
HETATM    3  N   UNK N   1      35.841  11.502  14.890  0.00  0.00    -0.348 N 
ATOM      4  HN  UNK N   1      35.616  10.736  15.525  1.00  0.00     0.166 HD
HETATM    5  C   UNK N   1      35.682  12.789  15.305  0.00  0.00     0.192 A 
HETATM    6  N   UNK N   1      36.018  13.817  14.481  0.00  0.00    -0.325 N 
ATOM      7  HN  UNK N   1      35.918  14.777  14.810  1.00  0.00     0.169 HD
HETATM    8  C   UNK N   1      36.486  13.583  13.226  0.00  0.00     0.109 A 
ENDROOT
BRANCH   1   9
HETATM    9  C   UNK N   1      36.985  11.944  11.353  0.00  0.00     0.172 C 
BRANCH   9  10
HETATM   10  N   UNK N   1      35.868  12.191  10.427  0.00  0.00    -0.349 N 
HETATM   11  C   UNK N   1      34.642  11.596  10.528  0.00  0.00     0.141 A 
HETATM   12  S   UNK N   1      33.694  12.146   9.293  0.00  0.00    -0.087 SA
HETATM   13  C   UNK N   1      34.792  13.155   8.586  0.00  0.00     0.008 A 
HETATM   14  C   UNK N   1      35.963  13.051   9.347  0.00  0.00     0.021 A 
HETATM   15  C   UNK N   1      37.209  13.805   9.021  0.00  0.00     0.069 C 
BRANCH  13  16
HETATM   16  C   UNK N   1      34.578  13.993   7.370  0.00  0.00     0.075 C 
BRANCH  16  17
HETATM   17  C   UNK N   1      33.926  15.322   7.721  0.00  0.00     0.187 C 
BRANCH  17  18
HETATM   18  O   UNK N   1      34.882  16.251   8.149  0.00  0.00    -0.282 OA
BRANCH  18  19
HETATM   19  P   UNK N   1      34.023  17.760   8.276  0.00  0.00     0.422 P 
HETATM   20  O   UNK N   1      34.884  19.264   8.370  0.00  0.00    -0.617 OA
HETATM   21  O   UNK N   1      35.259  17.702   9.497  0.00  0.00    -0.617 OA
HETATM   22  O   UNK N   1      34.680  17.876   6.876  0.00  0.00    -0.617 OA
ENDBRANCH  18  19
ENDBRANCH  17  18
ENDBRANCH  16  17
ENDBRANCH  13  16
ENDBRANCH   9  10
ENDBRANCH   1   9
BRANCH   8  23
HETATM   23  N   UNK N   1      36.795  14.671  12.384  0.00  0.00    -0.385 N 
HETATM   24  H   UNK N   1      36.304  15.472  12.091  0.00  0.00     0.157 HD
HETATM   25  H   UNK N   1      37.703  14.618  12.006  0.00  0.00     0.157 HD
ENDBRANCH   8  23
BRANCH   5  26
HETATM   26  C   UNK N   1      35.090  13.078  16.647  0.00  0.00     0.449 C 
HETATM   27  F   UNK N   1      35.810  14.078  17.271  0.00  0.00    -0.163 F 
HETATM   28  F   UNK N   1      33.782  13.494  16.479  0.00  0.00    -0.163 F 
HETATM   29  F   UNK N   1      35.101  11.945  17.440  0.00  0.00    -0.163 F 
ENDBRANCH   5  26
TORSDOF 8
ENDMDL
MODEL 7
REMARK VINA RESULT:      -6.2      8.123      9.844
REMARK  8 active torsions:
REMARK  status: ('A' for Active; 'I' for Inactive)
REMARK    1  A    between atoms: C_3  and  C_4 
REMARK    2  A    between atoms: C_4  and  C_5 
REMARK    3  A    between atoms: C_5  and  O_6 
REMARK    4  A    between atoms: O_6  and  P_7 
REMARK    5  A    between atoms: N_13  and  C_14 
REMARK    6  A    between atoms: C_14  and  C_15 
REMARK    7  A    between atoms: C_19  and  C_24 
REMARK    8  A    between atoms: C_22  and  N_23 
ROOT
HETATM    1  C   UNK N   1      28.464  17.893   5.055  0.00  0.00     0.019 A 
HETATM    2  C   UNK N   1      27.999  18.200   6.330  0.00  0.00     0.102 A 
HETATM    3  N   UNK N   1      28.823  18.073   7.399  0.00  0.00    -0.348 N 
ATOM      4  HN  UNK N   1      28.475  18.295   8.333  1.00  0.00     0.166 HD
HETATM    5  C   UNK N   1      30.109  17.654   7.245  0.00  0.00     0.192 A 
HETATM    6  N   UNK N   1      30.571  17.316   6.011  0.00  0.00    -0.325 N 
ATOM      7  HN  UNK N   1      31.529  16.981   5.908  1.00  0.00     0.169 HD
HETATM    8  C   UNK N   1      29.775  17.418   4.914  0.00  0.00     0.109 A 
ENDROOT
BRANCH   1   9
HETATM    9  C   UNK N   1      27.585  18.161   3.868  0.00  0.00     0.172 C 
BRANCH   9  10
HETATM   10  N   UNK N   1      26.229  17.621   4.062  0.00  0.00    -0.349 N 
HETATM   11  C   UNK N   1      25.911  16.295   3.960  0.00  0.00     0.141 A 
HETATM   12  S   UNK N   1      24.293  16.126   4.245  0.00  0.00    -0.087 SA
HETATM   13  C   UNK N   1      23.934  17.716   4.506  0.00  0.00     0.008 A 
HETATM   14  C   UNK N   1      25.137  18.417   4.356  0.00  0.00     0.021 A 
HETATM   15  C   UNK N   1      25.233  19.900   4.501  0.00  0.00     0.069 C 
BRANCH  13  16
HETATM   16  C   UNK N   1      22.591  18.286   4.823  0.00  0.00     0.075 C 
BRANCH  16  17
HETATM   17  C   UNK N   1      21.908  18.820   3.573  0.00  0.00     0.187 C 
BRANCH  17  18
HETATM   18  O   UNK N   1      21.226  20.010   3.845  0.00  0.00    -0.282 OA
BRANCH  18  19
HETATM   19  P   UNK N   1      20.771  20.639   2.287  0.00  0.00     0.422 P 
HETATM   20  O   UNK N   1      21.876  20.580   0.950  0.00  0.00    -0.617 OA
HETATM   21  O   UNK N   1      22.325  21.279   2.728  0.00  0.00    -0.617 OA
HETATM   22  O   UNK N   1      20.895  19.120   2.001  0.00  0.00    -0.617 OA
ENDBRANCH  18  19
ENDBRANCH  17  18
ENDBRANCH  16  17
ENDBRANCH  13  16
ENDBRANCH   9  10
ENDBRANCH   1   9
BRANCH   8  23
HETATM   23  N   UNK N   1      30.294  17.091   3.644  0.00  0.00    -0.385 N 
HETATM   24  H   UNK N   1      30.222  16.305   3.056  0.00  0.00     0.157 HD
HETATM   25  H   UNK N   1      30.852  17.807   3.261  0.00  0.00     0.157 HD
ENDBRANCH   8  23
BRANCH   5  26
HETATM   26  C   UNK N   1      31.033  17.613   8.418  0.00  0.00     0.449 C 
HETATM   27  F   UNK N   1      32.285  18.062   8.046  0.00  0.00    -0.163 F 
HETATM   28  F   UNK N   1      30.531  18.432   9.413  0.00  0.00    -0.163 F 
HETATM   29  F   UNK N   1      31.140  16.325   8.911  0.00  0.00    -0.163 F 
ENDBRANCH   5  26
TORSDOF 8
ENDMDL
MODEL 8
REMARK VINA RESULT:      -6.1      1.883      2.413
REMARK  8 active torsions:
REMARK  status: ('A' for Active; 'I' for Inactive)
REMARK    1  A    between atoms: C_3  and  C_4 
REMARK    2  A    between atoms: C_4  and  C_5 
REMARK    3  A    between atoms: C_5  and  O_6 
REMARK    4  A    between atoms: O_6  and  P_7 
REMARK    5  A    between atoms: N_13  and  C_14 
REMARK    6  A    between atoms: C_14  and  C_15 
REMARK    7  A    between atoms: C_19  and  C_24 
REMARK    8  A    between atoms: C_22  and  N_23 
ROOT
HETATM    1  C   UNK N   1      29.124  17.617   6.652  0.00  0.00     0.019 A 
HETATM    2  C   UNK N   1      28.386  18.086   7.734  0.00  0.00     0.102 A 
HETATM    3  N   UNK N   1      27.590  19.175   7.589  0.00  0.00    -0.348 N 
ATOM      4  HN  UNK N   1      27.056  19.518   8.388  1.00  0.00     0.166 HD
HETATM    5  C   UNK N   1      27.494  19.816   6.392  0.00  0.00     0.192 A 
HETATM    6  N   UNK N   1      28.233  19.393   5.332  0.00  0.00    -0.325 N 
ATOM      7  HN  UNK N   1      28.173  19.895   4.446  1.00  0.00     0.169 HD
HETATM    8  C   UNK N   1      29.052  18.313   5.437  0.00  0.00     0.109 A 
ENDROOT
BRANCH   1   9
HETATM    9  C   UNK N   1      29.897  16.339   6.789  0.00  0.00     0.172 C 
BRANCH   9  10
HETATM   10  N   UNK N   1      31.265  16.580   7.276  0.00  0.00    -0.349 N 
HETATM   11  C   UNK N   1      31.635  17.669   8.017  0.00  0.00     0.141 A 
HETATM   12  S   UNK N   1      33.249  17.549   8.345  0.00  0.00    -0.087 SA
HETATM   13  C   UNK N   1      33.542  16.124   7.568  0.00  0.00     0.008 A 
HETATM   14  C   UNK N   1      32.319  15.723   7.016  0.00  0.00     0.021 A 
HETATM   15  C   UNK N   1      32.165  14.473   6.212  0.00  0.00     0.069 C 
BRANCH  13  16
HETATM   16  C   UNK N   1      34.853  15.418   7.465  0.00  0.00     0.075 C 
BRANCH  16  17
HETATM   17  C   UNK N   1      35.069  14.476   8.640  0.00  0.00     0.187 C 
BRANCH  17  18
HETATM   18  O   UNK N   1      36.089  14.944   9.476  0.00  0.00    -0.282 OA
BRANCH  18  19
HETATM   19  P   UNK N   1      35.302  15.333  10.979  0.00  0.00     0.422 P 
HETATM   20  O   UNK N   1      36.193  15.345  12.468  0.00  0.00    -0.617 OA
HETATM   21  O   UNK N   1      36.216  13.868  11.176  0.00  0.00    -0.617 OA
HETATM   22  O   UNK N   1      36.271  16.531  10.799  0.00  0.00    -0.617 OA
ENDBRANCH  18  19
ENDBRANCH  17  18
ENDBRANCH  16  17
ENDBRANCH  13  16
ENDBRANCH   9  10
ENDBRANCH   1   9
BRANCH   8  23
HETATM   23  N   UNK N   1      29.781  17.880   4.311  0.00  0.00    -0.385 N 
HETATM   24  H   UNK N   1      30.370  17.112   4.129  0.00  0.00     0.157 HD
HETATM   25  H   UNK N   1      29.679  18.477   3.534  0.00  0.00     0.157 HD
ENDBRANCH   8  23
BRANCH   5  26
HETATM   26  C   UNK N   1      26.539  20.954   6.223  0.00  0.00     0.449 C 
HETATM   27  F   UNK N   1      25.606  20.642   5.253  0.00  0.00    -0.163 F 
HETATM   28  F   UNK N   1      25.892  21.178   7.424  0.00  0.00    -0.163 F 
HETATM   29  F   UNK N   1      27.211  22.105   5.855  0.00  0.00    -0.163 F 
ENDBRANCH   5  26
TORSDOF 8
ENDMDL
MODEL 9
REMARK VINA RESULT:      -6.1      7.758      9.419
REMARK  8 active torsions:
REMARK  status: ('A' for Active; 'I' for Inactive)
REMARK    1  A    between atoms: C_3  and  C_4 
REMARK    2  A    between atoms: C_4  and  C_5 
REMARK    3  A    between atoms: C_5  and  O_6 
REMARK    4  A    between atoms: O_6  and  P_7 
REMARK    5  A    between atoms: N_13  and  C_14 
REMARK    6  A    between atoms: C_14  and  C_15 
REMARK    7  A    between atoms: C_19  and  C_24 
REMARK    8  A    between atoms: C_22  and  N_23 
ROOT
HETATM    1  C   UNK N   1      27.964  18.673   5.509  0.00  0.00     0.019 A 
HETATM    2  C   UNK N   1      28.997  17.751   5.634  0.00  0.00     0.102 A 
HETATM    3  N   UNK N   1      29.567  17.534   6.845  0.00  0.00    -0.348 N 
ATOM      4  HN  UNK N   1      30.329  16.860   6.930  1.00  0.00     0.166 HD
HETATM    5  C   UNK N   1      29.137  18.202   7.950  0.00  0.00     0.192 A 
HETATM    6  N   UNK N   1      28.151  19.132   7.842  0.00  0.00    -0.325 N 
ATOM      7  HN  UNK N   1      27.851  19.645   8.671  1.00  0.00     0.169 HD
HETATM    8  C   UNK N   1      27.560  19.389   6.644  0.00  0.00     0.109 A 
ENDROOT
BRANCH   1   9
HETATM    9  C   UNK N   1      27.256  18.809   4.192  0.00  0.00     0.172 C 
BRANCH   9  10
HETATM   10  N   UNK N   1      25.981  18.075   4.182  0.00  0.00    -0.349 N 
HETATM   11  C   UNK N   1      25.863  16.738   4.445  0.00  0.00     0.141 A 
HETATM   12  S   UNK N   1      24.269  16.323   4.323  0.00  0.00    -0.087 SA
HETATM   13  C   UNK N   1      23.669  17.811   3.934  0.00  0.00     0.008 A 
HETATM   14  C   UNK N   1      24.769  18.675   3.889  0.00  0.00     0.021 A 
HETATM   15  C   UNK N   1      24.646  20.125   3.554  0.00  0.00     0.069 C 
BRANCH  13  16
HETATM   16  C   UNK N   1      22.240  18.154   3.670  0.00  0.00     0.075 C 
BRANCH  16  17
HETATM   17  C   UNK N   1      21.527  18.575   4.946  0.00  0.00     0.187 C 
BRANCH  17  18
HETATM   18  O   UNK N   1      20.560  17.633   5.314  0.00  0.00    -0.282 OA
BRANCH  18  19
HETATM   19  P   UNK N   1      21.118  16.976   6.826  0.00  0.00     0.422 P 
HETATM   20  O   UNK N   1      20.379  17.448   8.324  0.00  0.00    -0.617 OA
HETATM   21  O   UNK N   1      21.017  18.706   6.959  0.00  0.00    -0.617 OA
HETATM   22  O   UNK N   1      19.691  16.378   6.718  0.00  0.00    -0.617 OA
ENDBRANCH  18  19
ENDBRANCH  17  18
ENDBRANCH  16  17
ENDBRANCH  13  16
ENDBRANCH   9  10
ENDBRANCH   1   9
BRANCH   8  23
HETATM   23  N   UNK N   1      26.518  20.336   6.571  0.00  0.00    -0.385 N 
HETATM   24  H   UNK N   1      25.842  20.561   5.891  0.00  0.00     0.157 HD
HETATM   25  H   UNK N   1      26.452  20.898   7.377  0.00  0.00     0.157 HD
ENDBRANCH   8  23
BRANCH   5  26
HETATM   26  C   UNK N   1      29.707  17.881   9.294  0.00  0.00     0.449 C 
HETATM   27  F   UNK N   1      30.097  19.044   9.928  0.00  0.00    -0.163 F 
HETATM   28  F   UNK N   1      28.738  17.250  10.052  0.00  0.00    -0.163 F 
HETATM   29  F   UNK N   1      30.798  17.040   9.173  0.00  0.00    -0.163 F 
ENDBRANCH   5  26
TORSDOF 8
ENDMDL
