MODEL 1
REMARK VINA RESULT:      -6.4      0.000      0.000
REMARK  6 active torsions:
REMARK  status: ('A' for Active; 'I' for Inactive)
REMARK       I    between atoms: N_1  and  C_2 
REMARK    1  A    between atoms: C_9  and  C_16 
REMARK    2  A    between atoms: C_16  and  O_17 
REMARK    3  A    between atoms: C_16  and  C_18 
REMARK    4  A    between atoms: C_18  and  O_19 
REMARK    5  A    between atoms: C_18  and  C_20 
REMARK    6  A    between atoms: C_20  and  O_21 
ROOT
HETATM    1  N   UNK N   1      27.915  18.967   5.303  0.00  0.00    -0.234 N 
HETATM    2  C   UNK N   1      26.638  19.169   4.744  0.00  0.00     0.680 A 
HETATM    3  N   UNK N   1      25.549  18.589   5.317  0.00  0.00    -0.174 N 
ATOM      4  HN  UNK N   1      25.667  18.002   6.143  1.00  0.00     0.186 HD
HETATM    5  C   UNK N   1      24.307  18.782   4.802  0.00  0.00     0.153 A 
HETATM    6  N   UNK N   1      23.225  18.220   5.396  0.00  0.00    -0.348 N 
ATOM      7  HN  UNK N   1      23.352  17.627   6.216  1.00  0.00     0.167 HD
HETATM    8  C   UNK N   1      21.974  18.437   4.911  0.00  0.00     0.117 A 
HETATM    9  C   UNK N   1      21.791  19.226   3.767  0.00  0.00     0.057 A 
HETATM   10  N   UNK N   1      22.882  19.784   3.165  0.00  0.00    -0.349 N 
ATOM     11  HN  UNK N   1      22.758  20.359   2.331  1.00  0.00     0.166 HD
HETATM   12  C   UNK N   1      24.134  19.584   3.663  0.00  0.00     0.147 A 
HETATM   13  C   UNK N   1      25.263  20.172   3.085  0.00  0.00     0.290 A 
HETATM   14  O   UNK N   1      25.158  20.884   2.101  0.00  0.00    -0.265 OA
HETATM   15  N   UNK N   1      26.497  19.953   3.641  0.00  0.00    -0.154 N 
HETATM   16  H   UNK N   1      28.033  18.335   6.050  0.00  0.00     0.174 HD
HETATM   17  H   UNK N   1      28.691  19.457   4.948  0.00  0.00     0.174 HD
HETATM   18  H   UNK N   1      27.293  20.369   3.236  0.00  0.00     0.187 HD
ENDROOT
BRANCH   9  19
HETATM   19  C   UNK N   1      20.396  19.540   3.272  0.00  0.00     0.200 C 
BRANCH  19  20
HETATM   20  O   UNK N   1      20.453  20.518   2.273  0.00  0.00    -0.387 OA
HETATM   21  H   UNK N   1      21.306  20.775   1.890  0.00  0.00     0.210 HD
ENDBRANCH  19  20
BRANCH  19  22
HETATM   22  C   UNK N   1      19.591  18.325   2.777  0.00  0.00     0.176 C 
BRANCH  22  23
HETATM   23  O   UNK N   1      18.326  18.725   2.345  0.00  0.00    -0.390 OA
HETATM   24  H   UNK N   1      18.157  18.869   1.401  0.00  0.00     0.210 HD
ENDBRANCH  22  23
BRANCH  22  25
HETATM   25  C   UNK N   1      20.285  17.665   1.588  0.00  0.00     0.198 C 
BRANCH  25  26
HETATM   26  O   UNK N   1      20.248  18.488   0.464  0.00  0.00    -0.398 OA
HETATM   27  H   UNK N   1      19.813  19.354   0.485  0.00  0.00     0.209 HD
ENDBRANCH  25  26
ENDBRANCH  22  25
ENDBRANCH  19  22
ENDBRANCH   9  19
TORSDOF 6
ENDMDL
MODEL 2
REMARK VINA RESULT:      -6.1      8.396     12.087
REMARK  6 active torsions:
REMARK  status: ('A' for Active; 'I' for Inactive)
REMARK       I    between atoms: N_1  and  C_2 
REMARK    1  A    between atoms: C_9  and  C_16 
REMARK    2  A    between atoms: C_16  and  O_17 
REMARK    3  A    between atoms: C_16  and  C_18 
REMARK    4  A    between atoms: C_18  and  O_19 
REMARK    5  A    between atoms: C_18  and  C_20 
REMARK    6  A    between atoms: C_20  and  O_21 
ROOT
HETATM    1  N   UNK N   1      27.184  18.040   6.483  0.00  0.00    -0.234 N 
HETATM    2  C   UNK N   1      28.411  17.889   7.158  0.00  0.00     0.680 A 
HETATM    3  N   UNK N   1      29.411  17.164   6.589  0.00  0.00    -0.174 N 
ATOM      4  HN  UNK N   1      29.261  16.725   5.680  1.00  0.00     0.186 HD
HETATM    5  C   UNK N   1      30.607  17.016   7.216  0.00  0.00     0.153 A 
HETATM    6  N   UNK N   1      31.606  16.312   6.629  0.00  0.00    -0.348 N 
ATOM      7  HN  UNK N   1      31.445  15.869   5.724  1.00  0.00     0.167 HD
HETATM    8  C   UNK N   1      32.819  16.190   7.230  0.00  0.00     0.117 A 
HETATM    9  C   UNK N   1      33.040  16.771   8.487  0.00  0.00     0.057 A 
HETATM   10  N   UNK N   1      32.031  17.472   9.082  0.00  0.00    -0.349 N 
ATOM     11  HN  UNK N   1      32.184  17.896   9.997  1.00  0.00     0.166 HD
HETATM   12  C   UNK N   1      30.822  17.612   8.469  0.00  0.00     0.147 A 
HETATM   13  C   UNK N   1      29.785  18.353   9.042  0.00  0.00     0.290 A 
HETATM   14  O   UNK N   1      29.931  18.895  10.123  0.00  0.00    -0.265 OA
HETATM   15  N   UNK N   1      28.595  18.479   8.371  0.00  0.00    -0.154 N 
HETATM   16  H   UNK N   1      27.017  17.548   5.646  0.00  0.00     0.174 HD
HETATM   17  H   UNK N   1      26.492  18.638   6.847  0.00  0.00     0.174 HD
HETATM   18  H   UNK N   1      27.864  19.003   8.772  0.00  0.00     0.187 HD
ENDROOT
BRANCH   9  19
HETATM   19  C   UNK N   1      34.412  16.710   9.124  0.00  0.00     0.200 C 
BRANCH  19  20
HETATM   20  O   UNK N   1      34.977  17.989   9.161  0.00  0.00    -0.387 OA
HETATM   21  H   UNK N   1      35.940  18.099   9.122  0.00  0.00     0.210 HD
ENDBRANCH  19  20
BRANCH  19  22
HETATM   22  C   UNK N   1      34.453  16.073  10.524  0.00  0.00     0.176 C 
BRANCH  22  23
HETATM   23  O   UNK N   1      33.400  15.170  10.678  0.00  0.00    -0.390 OA
HETATM   24  H   UNK N   1      33.257  14.730  11.530  0.00  0.00     0.210 HD
ENDBRANCH  22  23
BRANCH  22  25
HETATM   25  C   UNK N   1      35.749  15.292  10.725  0.00  0.00     0.198 C 
BRANCH  25  26
HETATM   26  O   UNK N   1      36.839  16.151  10.857  0.00  0.00    -0.398 OA
HETATM   27  H   UNK N   1      36.718  17.103  11.000  0.00  0.00     0.209 HD
ENDBRANCH  25  26
ENDBRANCH  22  25
ENDBRANCH  19  22
ENDBRANCH   9  19
TORSDOF 6
ENDMDL
MODEL 3
REMARK VINA RESULT:      -6.0     11.047     13.290
REMARK  6 active torsions:
REMARK  status: ('A' for Active; 'I' for Inactive)
REMARK       I    between atoms: N_1  and  C_2 
REMARK    1  A    between atoms: C_9  and  C_16 
REMARK    2  A    between atoms: C_16  and  O_17 
REMARK    3  A    between atoms: C_16  and  C_18 
REMARK    4  A    between atoms: C_18  and  O_19 
REMARK    5  A    between atoms: C_18  and  C_20 
REMARK    6  A    between atoms: C_20  and  O_21 
ROOT
HETATM    1  N   UNK N   1      37.585  13.197  12.036  0.00  0.00    -0.234 N 
HETATM    2  C   UNK N   1      36.621  13.973  11.364  0.00  0.00     0.680 A 
HETATM    3  N   UNK N   1      35.548  13.369  10.786  0.00  0.00    -0.174 N 
ATOM      4  HN  UNK N   1      35.455  12.354  10.834  1.00  0.00     0.186 HD
HETATM    5  C   UNK N   1      34.600  14.100  10.144  0.00  0.00     0.153 A 
HETATM    6  N   UNK N   1      33.522  13.489   9.592  0.00  0.00    -0.348 N 
ATOM      7  HN  UNK N   1      33.441  12.474   9.637  1.00  0.00     0.167 HD
HETATM    8  C   UNK N   1      32.549  14.215   8.981  0.00  0.00     0.117 A 
HETATM    9  C   UNK N   1      32.666  15.609   8.887  0.00  0.00     0.057 A 
HETATM   10  N   UNK N   1      33.756  16.221   9.435  0.00  0.00    -0.349 N 
ATOM     11  HN  UNK N   1      33.850  17.235   9.370  1.00  0.00     0.166 HD
HETATM   12  C   UNK N   1      34.721  15.496  10.066  0.00  0.00     0.147 A 
HETATM   13  C   UNK N   1      35.830  16.103  10.664  0.00  0.00     0.290 A 
HETATM   14  O   UNK N   1      35.970  17.313  10.630  0.00  0.00    -0.265 OA
HETATM   15  N   UNK N   1      36.760  15.326  11.305  0.00  0.00    -0.154 N 
HETATM   16  H   UNK N   1      37.532  12.214  12.010  0.00  0.00     0.174 HD
HETATM   17  H   UNK N   1      38.312  13.637  12.534  0.00  0.00     0.174 HD
HETATM   18  H   UNK N   1      37.540  15.753  11.729  0.00  0.00     0.187 HD
ENDROOT
BRANCH   9  19
HETATM   19  C   UNK N   1      31.548  16.429   8.282  0.00  0.00     0.200 C 
BRANCH  19  20
HETATM   20  O   UNK N   1      30.663  16.841   9.285  0.00  0.00    -0.387 OA
HETATM   21  H   UNK N   1      31.003  17.157  10.136  0.00  0.00     0.210 HD
ENDBRANCH  19  20
BRANCH  19  22
HETATM   22  C   UNK N   1      32.003  17.640   7.449  0.00  0.00     0.176 C 
BRANCH  22  23
HETATM   23  O   UNK N   1      32.699  18.545   8.250  0.00  0.00    -0.390 OA
HETATM   24  H   UNK N   1      32.712  19.488   8.022  0.00  0.00     0.210 HD
ENDBRANCH  22  23
BRANCH  22  25
HETATM   25  C   UNK N   1      32.950  17.204   6.334  0.00  0.00     0.198 C 
BRANCH  25  26
HETATM   26  O   UNK N   1      34.228  17.728   6.526  0.00  0.00    -0.398 OA
HETATM   27  H   UNK N   1      34.606  17.826   7.414  0.00  0.00     0.209 HD
ENDBRANCH  25  26
ENDBRANCH  22  25
ENDBRANCH  19  22
ENDBRANCH   9  19
TORSDOF 6
ENDMDL
MODEL 4
REMARK VINA RESULT:      -5.9     10.768     14.329
REMARK  6 active torsions:
REMARK  status: ('A' for Active; 'I' for Inactive)
REMARK       I    between atoms: N_1  and  C_2 
REMARK    1  A    between atoms: C_9  and  C_16 
REMARK    2  A    between atoms: C_16  and  O_17 
REMARK    3  A    between atoms: C_16  and  C_18 
REMARK    4  A    between atoms: C_18  and  O_19 
REMARK    5  A    between atoms: C_18  and  C_20 
REMARK    6  A    between atoms: C_20  and  O_21 
ROOT
HETATM    1  N   UNK N   1      29.975  17.139   6.523  0.00  0.00    -0.234 N 
HETATM    2  C   UNK N   1      31.230  16.917   7.122  0.00  0.00     0.680 A 
HETATM    3  N   UNK N   1      31.323  16.125   8.223  0.00  0.00    -0.174 N 
ATOM      4  HN  UNK N   1      30.480  15.704   8.614  1.00  0.00     0.186 HD
HETATM    5  C   UNK N   1      32.526  15.887   8.809  0.00  0.00     0.153 A 
HETATM    6  N   UNK N   1      32.610  15.075   9.892  0.00  0.00    -0.348 N 
ATOM      7  HN  UNK N   1      31.761  14.665  10.283  1.00  0.00     0.167 HD
HETATM    8  C   UNK N   1      33.813  14.800  10.464  0.00  0.00     0.117 A 
HETATM    9  C   UNK N   1      34.982  15.381   9.953  0.00  0.00     0.057 A 
HETATM   10  N   UNK N   1      34.894  16.205   8.869  0.00  0.00    -0.349 N 
ATOM     11  HN  UNK N   1      35.740  16.633   8.492  1.00  0.00     0.166 HD
HETATM   12  C   UNK N   1      33.691  16.464   8.283  0.00  0.00     0.147 A 
HETATM   13  C   UNK N   1      33.580  17.278   7.151  0.00  0.00     0.290 A 
HETATM   14  O   UNK N   1      34.567  17.791   6.655  0.00  0.00    -0.265 OA
HETATM   15  N   UNK N   1      32.346  17.487   6.590  0.00  0.00    -0.154 N 
HETATM   16  H   UNK N   1      29.156  16.798   6.950  0.00  0.00     0.174 HD
HETATM   17  H   UNK N   1      29.916  17.636   5.674  0.00  0.00     0.174 HD
HETATM   18  H   UNK N   1      32.267  18.058   5.792  0.00  0.00     0.187 HD
ENDROOT
BRANCH   9  19
HETATM   19  C   UNK N   1      36.331  15.014  10.532  0.00  0.00     0.200 C 
BRANCH  19  20
HETATM   20  O   UNK N   1      36.980  16.163  10.995  0.00  0.00    -0.387 OA
HETATM   21  H   UNK N   1      36.982  16.375  11.941  0.00  0.00     0.210 HD
ENDBRANCH  19  20
BRANCH  19  22
HETATM   22  C   UNK N   1      36.296  13.945  11.639  0.00  0.00     0.176 C 
BRANCH  22  23
HETATM   23  O   UNK N   1      37.571  13.412  11.838  0.00  0.00    -0.390 OA
HETATM   24  H   UNK N   1      38.251  13.934  12.293  0.00  0.00     0.210 HD
ENDBRANCH  22  23
BRANCH  22  25
HETATM   25  C   UNK N   1      35.850  14.553  12.965  0.00  0.00     0.198 C 
BRANCH  25  26
HETATM   26  O   UNK N   1      36.942  14.821  13.789  0.00  0.00    -0.398 OA
HETATM   27  H   UNK N   1      37.835  14.519  13.559  0.00  0.00     0.209 HD
ENDBRANCH  25  26
ENDBRANCH  22  25
ENDBRANCH  19  22
ENDBRANCH   9  19
TORSDOF 6
ENDMDL
MODEL 5
REMARK VINA RESULT:      -5.8      3.728      4.826
REMARK  6 active torsions:
REMARK  status: ('A' for Active; 'I' for Inactive)
REMARK       I    between atoms: N_1  and  C_2 
REMARK    1  A    between atoms: C_9  and  C_16 
REMARK    2  A    between atoms: C_16  and  O_17 
REMARK    3  A    between atoms: C_16  and  C_18 
REMARK    4  A    between atoms: C_18  and  O_19 
REMARK    5  A    between atoms: C_18  and  C_20 
REMARK    6  A    between atoms: C_20  and  O_21 
ROOT
HETATM    1  N   UNK N   1      21.820  13.945   8.118  0.00  0.00    -0.234 N 
HETATM    2  C   UNK N   1      21.541  14.975   7.198  0.00  0.00     0.680 A 
HETATM    3  N   UNK N   1      21.386  14.680   5.880  0.00  0.00    -0.174 N 
ATOM      4  HN  UNK N   1      21.482  13.715   5.564  1.00  0.00     0.186 HD
HETATM    5  C   UNK N   1      21.104  15.656   4.978  0.00  0.00     0.153 A 
HETATM    6  N   UNK N   1      20.925  15.348   3.669  0.00  0.00    -0.348 N 
ATOM      7  HN  UNK N   1      21.032  14.382   3.360  1.00  0.00     0.167 HD
HETATM    8  C   UNK N   1      20.605  16.311   2.765  0.00  0.00     0.117 A 
HETATM    9  C   UNK N   1      20.485  17.647   3.175  0.00  0.00     0.057 A 
HETATM   10  N   UNK N   1      20.674  17.957   4.490  0.00  0.00    -0.349 N 
ATOM     11  HN  UNK N   1      20.590  18.927   4.796  1.00  0.00     0.166 HD
HETATM   12  C   UNK N   1      20.974  16.988   5.400  0.00  0.00     0.147 A 
HETATM   13  C   UNK N   1      21.138  17.276   6.759  0.00  0.00     0.290 A 
HETATM   14  O   UNK N   1      21.024  18.417   7.171  0.00  0.00    -0.265 OA
HETATM   15  N   UNK N   1      21.418  16.258   7.634  0.00  0.00    -0.154 N 
HETATM   16  H   UNK N   1      21.992  13.030   7.797  0.00  0.00     0.174 HD
HETATM   17  H   UNK N   1      21.842  14.139   9.083  0.00  0.00     0.174 HD
HETATM   18  H   UNK N   1      21.531  16.459   8.592  0.00  0.00     0.187 HD
ENDROOT
BRANCH   9  19
HETATM   19  C   UNK N   1      20.049  18.710   2.190  0.00  0.00     0.200 C 
BRANCH  19  20
HETATM   20  O   UNK N   1      18.653  18.804   2.179  0.00  0.00    -0.387 OA
HETATM   21  H   UNK N   1      18.205  19.344   1.510  0.00  0.00     0.210 HD
ENDBRANCH  19  20
BRANCH  19  22
HETATM   22  C   UNK N   1      20.670  20.100   2.412  0.00  0.00     0.176 C 
BRANCH  22  23
HETATM   23  O   UNK N   1      21.982  19.977   2.872  0.00  0.00    -0.390 OA
HETATM   24  H   UNK N   1      22.404  19.104   2.911  0.00  0.00     0.210 HD
ENDBRANCH  22  23
BRANCH  22  25
HETATM   25  C   UNK N   1      20.724  20.884   1.103  0.00  0.00     0.198 C 
BRANCH  25  26
HETATM   26  O   UNK N   1      20.596  20.037   0.004  0.00  0.00    -0.398 OA
HETATM   27  H   UNK N   1      19.864  20.132  -0.626  0.00  0.00     0.209 HD
ENDBRANCH  25  26
ENDBRANCH  22  25
ENDBRANCH  19  22
ENDBRANCH   9  19
TORSDOF 6
ENDMDL
MODEL 6
REMARK VINA RESULT:      -5.8     11.421     14.081
REMARK  6 active torsions:
REMARK  status: ('A' for Active; 'I' for Inactive)
REMARK       I    between atoms: N_1  and  C_2 
REMARK    1  A    between atoms: C_9  and  C_16 
REMARK    2  A    between atoms: C_16  and  O_17 
REMARK    3  A    between atoms: C_16  and  C_18 
REMARK    4  A    between atoms: C_18  and  O_19 
REMARK    5  A    between atoms: C_18  and  C_20 
REMARK    6  A    between atoms: C_20  and  O_21 
ROOT
HETATM    1  N   UNK N   1      33.106  16.742   3.569  0.00  0.00    -0.234 N 
HETATM    2  C   UNK N   1      33.524  16.617   4.908  0.00  0.00     0.680 A 
HETATM    3  N   UNK N   1      34.165  15.488   5.314  0.00  0.00    -0.174 N 
ATOM      4  HN  UNK N   1      34.331  14.735   4.646  1.00  0.00     0.186 HD
HETATM    5  C   UNK N   1      34.588  15.352   6.598  0.00  0.00     0.153 A 
HETATM    6  N   UNK N   1      35.250  14.234   6.985  0.00  0.00    -0.348 N 
ATOM      7  HN  UNK N   1      35.403  13.481   6.314  1.00  0.00     0.167 HD
HETATM    8  C   UNK N   1      35.711  14.103   8.257  0.00  0.00     0.117 A 
HETATM    9  C   UNK N   1      35.479  15.119   9.195  0.00  0.00     0.057 A 
HETATM   10  N   UNK N   1      34.805  16.240   8.806  0.00  0.00    -0.349 N 
ATOM     11  HN  UNK N   1      34.632  16.984   9.483  1.00  0.00     0.166 HD
HETATM   12  C   UNK N   1      34.362  16.380   7.526  0.00  0.00     0.147 A 
HETATM   13  C   UNK N   1      33.700  17.534   7.095  0.00  0.00     0.290 A 
HETATM   14  O   UNK N   1      33.491  18.455   7.864  0.00  0.00    -0.265 OA
HETATM   15  N   UNK N   1      33.294  17.630   5.788  0.00  0.00    -0.154 N 
HETATM   16  H   UNK N   1      33.195  15.981   2.951  0.00  0.00     0.174 HD
HETATM   17  H   UNK N   1      32.724  17.592   3.250  0.00  0.00     0.174 HD
HETATM   18  H   UNK N   1      32.830  18.442   5.482  0.00  0.00     0.187 HD
ENDROOT
BRANCH   9  19
HETATM   19  C   UNK N   1      36.061  15.017  10.588  0.00  0.00     0.200 C 
BRANCH  19  20
HETATM   20  O   UNK N   1      36.755  16.190  10.902  0.00  0.00    -0.387 OA
HETATM   21  H   UNK N   1      37.248  16.665  10.215  0.00  0.00     0.210 HD
ENDBRANCH  19  20
BRANCH  19  22
HETATM   22  C   UNK N   1      35.045  14.692  11.698  0.00  0.00     0.176 C 
BRANCH  22  23
HETATM   23  O   UNK N   1      33.747  14.963  11.262  0.00  0.00    -0.390 OA
HETATM   24  H   UNK N   1      33.558  15.034  10.313  0.00  0.00     0.210 HD
ENDBRANCH  22  23
BRANCH  22  25
HETATM   25  C   UNK N   1      35.097  13.211  12.063  0.00  0.00     0.198 C 
BRANCH  25  26
HETATM   26  O   UNK N   1      34.411  12.961  13.250  0.00  0.00    -0.398 OA
HETATM   27  H   UNK N   1      33.466  12.742  13.253  0.00  0.00     0.209 HD
ENDBRANCH  25  26
ENDBRANCH  22  25
ENDBRANCH  19  22
ENDBRANCH   9  19
TORSDOF 6
ENDMDL
MODEL 7
REMARK VINA RESULT:      -5.6     10.304     11.257
REMARK  6 active torsions:
REMARK  status: ('A' for Active; 'I' for Inactive)
REMARK       I    between atoms: N_1  and  C_2 
REMARK    1  A    between atoms: C_9  and  C_16 
REMARK    2  A    between atoms: C_16  and  O_17 
REMARK    3  A    between atoms: C_16  and  C_18 
REMARK    4  A    between atoms: C_18  and  O_19 
REMARK    5  A    between atoms: C_18  and  C_20 
REMARK    6  A    between atoms: C_20  and  O_21 
ROOT
HETATM    1  N   UNK N   1      32.564  19.603  -4.293  0.00  0.00    -0.234 N 
HETATM    2  C   UNK N   1      31.662  20.668  -4.104  0.00  0.00     0.680 A 
HETATM    3  N   UNK N   1      30.825  21.033  -5.112  0.00  0.00    -0.174 N 
ATOM      4  HN  UNK N   1      30.864  20.537  -6.003  1.00  0.00     0.186 HD
HETATM    5  C   UNK N   1      29.938  22.048  -4.947  0.00  0.00     0.153 A 
HETATM    6  N   UNK N   1      29.090  22.386  -5.950  0.00  0.00    -0.348 N 
ATOM      7  HN  UNK N   1      29.141  21.893  -6.841  1.00  0.00     0.167 HD
HETATM    8  C   UNK N   1      28.173  23.376  -5.782  0.00  0.00     0.117 A 
HETATM    9  C   UNK N   1      28.114  24.081  -4.571  0.00  0.00     0.057 A 
HETATM   10  N   UNK N   1      28.974  23.745  -3.566  0.00  0.00    -0.349 N 
ATOM     11  HN  UNK N   1      28.939  24.254  -2.682  1.00  0.00     0.166 HD
HETATM   12  C   UNK N   1      29.879  22.739  -3.727  0.00  0.00     0.147 A 
HETATM   13  C   UNK N   1      30.747  22.355  -2.700  0.00  0.00     0.290 A 
HETATM   14  O   UNK N   1      30.723  22.921  -1.622  0.00  0.00    -0.265 OA
HETATM   15  N   UNK N   1      31.623  21.321  -2.911  0.00  0.00    -0.154 N 
HETATM   16  H   UNK N   1      32.654  19.184  -5.180  0.00  0.00     0.174 HD
HETATM   17  H   UNK N   1      33.106  19.278  -3.539  0.00  0.00     0.174 HD
HETATM   18  H   UNK N   1      32.233  21.047  -2.188  0.00  0.00     0.187 HD
ENDROOT
BRANCH   9  19
HETATM   19  C   UNK N   1      27.042  25.125  -4.349  0.00  0.00     0.200 C 
BRANCH  19  20
HETATM   20  O   UNK N   1      26.181  24.713  -3.326  0.00  0.00    -0.387 OA
HETATM   21  H   UNK N   1      25.855  23.800  -3.300  0.00  0.00     0.210 HD
ENDBRANCH  19  20
BRANCH  19  22
HETATM   22  C   UNK N   1      27.564  26.544  -4.061  0.00  0.00     0.176 C 
BRANCH  22  23
HETATM   23  O   UNK N   1      28.370  26.987  -5.110  0.00  0.00    -0.390 OA
HETATM   24  H   UNK N   1      28.745  26.349  -5.738  0.00  0.00     0.210 HD
ENDBRANCH  22  23
BRANCH  22  25
HETATM   25  C   UNK N   1      26.406  27.531  -3.935  0.00  0.00     0.198 C 
BRANCH  25  26
HETATM   26  O   UNK N   1      25.878  27.525  -2.645  0.00  0.00    -0.398 OA
HETATM   27  H   UNK N   1      25.452  26.736  -2.276  0.00  0.00     0.209 HD
ENDBRANCH  25  26
ENDBRANCH  22  25
ENDBRANCH  19  22
ENDBRANCH   9  19
TORSDOF 6
ENDMDL
MODEL 8
REMARK VINA RESULT:      -5.5     13.329     16.203
REMARK  6 active torsions:
REMARK  status: ('A' for Active; 'I' for Inactive)
REMARK       I    between atoms: N_1  and  C_2 
REMARK    1  A    between atoms: C_9  and  C_16 
REMARK    2  A    between atoms: C_16  and  O_17 
REMARK    3  A    between atoms: C_16  and  C_18 
REMARK    4  A    between atoms: C_18  and  O_19 
REMARK    5  A    between atoms: C_18  and  C_20 
REMARK    6  A    between atoms: C_20  and  O_21 
ROOT
HETATM    1  N   UNK N   1      38.165  10.412  14.022  0.00  0.00    -0.234 N 
HETATM    2  C   UNK N   1      37.447  11.540  13.579  0.00  0.00     0.680 A 
HETATM    3  N   UNK N   1      37.824  12.177  12.437  0.00  0.00    -0.174 N 
ATOM      4  HN  UNK N   1      38.631  11.837  11.915  1.00  0.00     0.186 HD
HETATM    5  C   UNK N   1      37.137  13.258  11.985  0.00  0.00     0.153 A 
HETATM    6  N   UNK N   1      37.506  13.870  10.833  0.00  0.00    -0.348 N 
ATOM      7  HN  UNK N   1      38.320  13.531  10.320  1.00  0.00     0.167 HD
HETATM    8  C   UNK N   1      36.804  14.930  10.352  0.00  0.00     0.117 A 
HETATM    9  C   UNK N   1      35.701  15.423  11.064  0.00  0.00     0.057 A 
HETATM   10  N   UNK N   1      35.337  14.812  12.228  0.00  0.00    -0.349 N 
ATOM     11  HN  UNK N   1      34.536  15.165  12.753  1.00  0.00     0.166 HD
HETATM   12  C   UNK N   1      36.028  13.736  12.700  0.00  0.00     0.147 A 
HETATM   13  C   UNK N   1      35.653  13.073  13.872  0.00  0.00     0.290 A 
HETATM   14  O   UNK N   1      34.691  13.448  14.518  0.00  0.00    -0.265 OA
HETATM   15  N   UNK N   1      36.373  11.983  14.289  0.00  0.00    -0.154 N 
HETATM   16  H   UNK N   1      38.990  10.139  13.559  0.00  0.00     0.174 HD
HETATM   17  H   UNK N   1      37.841   9.895  14.795  0.00  0.00     0.174 HD
HETATM   18  H   UNK N   1      36.109  11.513  15.113  0.00  0.00     0.187 HD
ENDROOT
BRANCH   9  19
HETATM   19  C   UNK N   1      34.867  16.548  10.492  0.00  0.00     0.200 C 
BRANCH  19  20
HETATM   20  O   UNK N   1      35.681  17.650  10.209  0.00  0.00    -0.387 OA
HETATM   21  H   UNK N   1      36.436  17.859  10.781  0.00  0.00     0.210 HD
ENDBRANCH  19  20
BRANCH  19  22
HETATM   22  C   UNK N   1      34.031  16.177   9.254  0.00  0.00     0.176 C 
BRANCH  22  23
HETATM   23  O   UNK N   1      32.779  15.697   9.639  0.00  0.00    -0.390 OA
HETATM   24  H   UNK N   1      32.706  15.046  10.355  0.00  0.00     0.210 HD
ENDBRANCH  22  23
BRANCH  22  25
HETATM   25  C   UNK N   1      33.794  17.401   8.374  0.00  0.00     0.198 C 
BRANCH  25  26
HETATM   26  O   UNK N   1      34.685  17.431   7.302  0.00  0.00    -0.398 OA
HETATM   27  H   UNK N   1      34.774  18.216   6.740  0.00  0.00     0.209 HD
ENDBRANCH  25  26
ENDBRANCH  22  25
ENDBRANCH  19  22
ENDBRANCH   9  19
TORSDOF 6
ENDMDL
MODEL 9
REMARK VINA RESULT:      -5.5     10.853     13.731
REMARK  6 active torsions:
REMARK  status: ('A' for Active; 'I' for Inactive)
REMARK       I    between atoms: N_1  and  C_2 
REMARK    1  A    between atoms: C_9  and  C_16 
REMARK    2  A    between atoms: C_16  and  O_17 
REMARK    3  A    between atoms: C_16  and  C_18 
REMARK    4  A    between atoms: C_18  and  O_19 
REMARK    5  A    between atoms: C_18  and  C_20 
REMARK    6  A    between atoms: C_20  and  O_21 
ROOT
HETATM    1  N   UNK N   1      31.718  15.756   3.423  0.00  0.00    -0.234 N 
HETATM    2  C   UNK N   1      32.306  15.886   4.696  0.00  0.00     0.680 A 
HETATM    3  N   UNK N   1      32.140  14.903   5.622  0.00  0.00    -0.174 N 
ATOM      4  HN  UNK N   1      31.581  14.082   5.390  1.00  0.00     0.186 HD
HETATM    5  C   UNK N   1      32.709  15.002   6.851  0.00  0.00     0.153 A 
HETATM    6  N   UNK N   1      32.557  14.005   7.758  0.00  0.00    -0.348 N 
ATOM      7  HN  UNK N   1      31.989  13.191   7.522  1.00  0.00     0.167 HD
HETATM    8  C   UNK N   1      33.154  14.077   8.977  0.00  0.00     0.117 A 
HETATM    9  C   UNK N   1      33.912  15.204   9.322  0.00  0.00     0.057 A 
HETATM   10  N   UNK N   1      34.057  16.211   8.413  0.00  0.00    -0.349 N 
ATOM     11  HN  UNK N   1      34.606  17.035   8.656  1.00  0.00     0.166 HD
HETATM   12  C   UNK N   1      33.476  16.130   7.182  0.00  0.00     0.147 A 
HETATM   13  C   UNK N   1      33.638  17.132   6.221  0.00  0.00     0.290 A 
HETATM   14  O   UNK N   1      34.304  18.123   6.463  0.00  0.00    -0.265 OA
HETATM   15  N   UNK N   1      33.048  16.988   4.992  0.00  0.00    -0.154 N 
HETATM   16  H   UNK N   1      31.114  15.002   3.233  0.00  0.00     0.174 HD
HETATM   17  H   UNK N   1      31.912  16.419   2.721  0.00  0.00     0.174 HD
HETATM   18  H   UNK N   1      33.163  17.692   4.313  0.00  0.00     0.187 HD
ENDROOT
BRANCH   9  19
HETATM   19  C   UNK N   1      34.646  15.253  10.645  0.00  0.00     0.200 C 
BRANCH  19  20
HETATM   20  O   UNK N   1      34.027  14.401  11.565  0.00  0.00    -0.387 OA
HETATM   21  H   UNK N   1      34.436  13.553  11.798  0.00  0.00     0.210 HD
ENDBRANCH  19  20
BRANCH  19  22
HETATM   22  C   UNK N   1      36.152  14.941  10.567  0.00  0.00     0.176 C 
BRANCH  22  23
HETATM   23  O   UNK N   1      36.892  15.986  11.122  0.00  0.00    -0.390 OA
HETATM   24  H   UNK N   1      36.945  16.841  10.666  0.00  0.00     0.210 HD
ENDBRANCH  22  23
BRANCH  22  25
HETATM   25  C   UNK N   1      36.485  13.682  11.361  0.00  0.00     0.198 C 
BRANCH  25  26
HETATM   26  O   UNK N   1      36.981  14.000  12.625  0.00  0.00    -0.398 OA
HETATM   27  H   UNK N   1      36.420  14.416  13.298  0.00  0.00     0.209 HD
ENDBRANCH  25  26
ENDBRANCH  22  25
ENDBRANCH  19  22
ENDBRANCH   9  19
TORSDOF 6
ENDMDL
