MODEL 1
REMARK VINA RESULT:      -6.2      0.000      0.000
REMARK  6 active torsions:
REMARK  status: ('A' for Active; 'I' for Inactive)
REMARK    1  A    between atoms: C_6  and  C_5 
REMARK    2  A    between atoms: N_17  and  C_5 
REMARK    3  A    between atoms: C_9  and  C_7 
REMARK    4  A    between atoms: C_11  and  C_7 
REMARK    5  A    between atoms: C_12  and  C_8 
REMARK    6  A    between atoms: N_14  and  C_8 
ROOT
HETATM    1  C   UNK N   1      34.725  15.193  11.496  0.00  0.00     0.176 A 
HETATM    2  C   UNK N   1      33.379  15.494   9.694  0.00  0.00     0.100 A 
HETATM    3  C   UNK N   1      35.388  16.018  10.423  0.00  0.00     0.248 A 
HETATM    4  N   UNK N   1      33.444  14.928  10.846  0.00  0.00    -0.365 N 
ATOM      5  HN  UNK N   1      32.697  14.367  11.253  1.00  0.00     0.161 HD
HETATM    6  N   UNK N   1      34.566  16.182   9.382  0.00  0.00    -0.298 N 
HETATM    7  O   UNK N   1      36.510  16.500  10.479  0.00  0.00    -0.271 OA
ENDROOT
BRANCH   1   8
HETATM    8  C   UNK N   1      35.470  13.888  11.801  0.00  0.00     0.047 C 
BRANCH   8   9
HETATM    9  C   UNK N   1      35.306  13.504  13.272  0.00  0.00     0.033 C 
HETATM   10  C   UNK N   1      34.755  12.116  13.491  0.00  0.00    -0.014 C 
HETATM   11  C   UNK N   1      35.080  11.397  14.576  0.00  0.00     0.051 C 
HETATM   12  C   UNK N   1      36.050  11.924  15.554  0.00  0.00     0.171 C 
HETATM   13  C   UNK N   1      36.771  13.175  15.260  0.00  0.00     0.051 C 
HETATM   14  O   UNK N   1      36.273  11.316  16.587  0.00  0.00    -0.289 OA
HETATM   15  C   UNK N   1      36.448  13.900  14.184  0.00  0.00    -0.014 C 
ENDBRANCH   8   9
ENDBRANCH   1   8
BRANCH   6  16
HETATM   16  C   UNK N   1      34.893  16.915   8.181  0.00  0.00     0.202 C 
BRANCH  16  17
HETATM   17  C   UNK N   1      34.463  18.339   8.310  0.00  0.00     0.251 C 
HETATM   18  O   UNK N   1      35.293  19.208   8.518  0.00  0.00    -0.305 OA
ENDBRANCH  16  17
ENDBRANCH   6  16
BRANCH   2  19
HETATM   19  C   UNK N   1      32.136  15.394   8.846  0.00  0.00     0.188 C 
BRANCH  19  20
HETATM   20  N   UNK N   1      31.214  16.498   9.046  0.00  0.00    -0.424 N 
HETATM   21  H   UNK N   1      30.726  16.637   9.930  0.00  0.00     0.150 HD
HETATM   22  H   UNK N   1      31.051  17.153   8.281  0.00  0.00     0.150 HD
ENDBRANCH  19  20
ENDBRANCH   2  19
TORSDOF 6
ENDMDL
MODEL 2
REMARK VINA RESULT:      -6.1      2.785      4.320
REMARK  6 active torsions:
REMARK  status: ('A' for Active; 'I' for Inactive)
REMARK    1  A    between atoms: C_6  and  C_5 
REMARK    2  A    between atoms: N_17  and  C_5 
REMARK    3  A    between atoms: C_9  and  C_7 
REMARK    4  A    between atoms: C_11  and  C_7 
REMARK    5  A    between atoms: C_12  and  C_8 
REMARK    6  A    between atoms: N_14  and  C_8 
ROOT
HETATM    1  C   UNK N   1      36.619  12.150  13.399  0.00  0.00     0.176 A 
HETATM    2  C   UNK N   1      37.406  12.977  11.438  0.00  0.00     0.100 A 
HETATM    3  C   UNK N   1      35.605  13.021  12.702  0.00  0.00     0.248 A 
HETATM    4  N   UNK N   1      37.724  12.252  12.450  0.00  0.00    -0.365 N 
ATOM      5  HN  UNK N   1      38.631  11.803  12.573  1.00  0.00     0.161 HD
HETATM    6  N   UNK N   1      36.098  13.483  11.549  0.00  0.00    -0.298 N 
HETATM    7  O   UNK N   1      34.476  13.268  13.100  0.00  0.00    -0.271 OA
ENDROOT
BRANCH   1   8
HETATM    8  C   UNK N   1      37.023  12.683  14.779  0.00  0.00     0.047 C 
BRANCH   8   9
HETATM    9  C   UNK N   1      36.026  12.231  15.845  0.00  0.00     0.033 C 
HETATM   10  C   UNK N   1      36.374  10.916  16.501  0.00  0.00    -0.014 C 
HETATM   11  C   UNK N   1      36.027  10.653  17.771  0.00  0.00     0.051 C 
HETATM   12  C   UNK N   1      35.354  11.682  18.585  0.00  0.00     0.171 C 
HETATM   13  C   UNK N   1      35.197  13.045  18.050  0.00  0.00     0.051 C 
HETATM   14  O   UNK N   1      34.952  11.413  19.704  0.00  0.00    -0.289 OA
HETATM   15  C   UNK N   1      35.535  13.313  16.783  0.00  0.00    -0.014 C 
ENDBRANCH   8   9
ENDBRANCH   1   8
BRANCH   6  16
HETATM   16  C   UNK N   1      35.389  14.353  10.639  0.00  0.00     0.202 C 
BRANCH  16  17
HETATM   17  C   UNK N   1      35.522  15.775  11.070  0.00  0.00     0.251 C 
HETATM   18  O   UNK N   1      36.497  16.424  10.733  0.00  0.00    -0.305 OA
ENDBRANCH  16  17
ENDBRANCH   6  16
BRANCH   2  19
HETATM   19  C   UNK N   1      38.374  13.199  10.303  0.00  0.00     0.188 C 
BRANCH  19  20
HETATM   20  N   UNK N   1      38.699  14.598  10.092  0.00  0.00    -0.424 N 
HETATM   21  H   UNK N   1      39.006  15.200  10.856  0.00  0.00     0.150 HD
HETATM   22  H   UNK N   1      38.618  14.990   9.154  0.00  0.00     0.150 HD
ENDBRANCH  19  20
ENDBRANCH   2  19
TORSDOF 6
ENDMDL
MODEL 3
REMARK VINA RESULT:      -6.1      6.995      9.953
REMARK  6 active torsions:
REMARK  status: ('A' for Active; 'I' for Inactive)
REMARK    1  A    between atoms: C_6  and  C_5 
REMARK    2  A    between atoms: N_17  and  C_5 
REMARK    3  A    between atoms: C_9  and  C_7 
REMARK    4  A    between atoms: C_11  and  C_7 
REMARK    5  A    between atoms: C_12  and  C_8 
REMARK    6  A    between atoms: N_14  and  C_8 
ROOT
HETATM    1  C   UNK N   1      28.747  18.486   5.563  0.00  0.00     0.176 A 
HETATM    2  C   UNK N   1      27.078  19.987   5.900  0.00  0.00     0.100 A 
HETATM    3  C   UNK N   1      27.660  18.371   4.525  0.00  0.00     0.248 A 
HETATM    4  N   UNK N   1      28.194  19.566   6.378  0.00  0.00    -0.365 N 
ATOM      5  HN  UNK N   1      28.638  19.937   7.217  1.00  0.00     0.161 HD
HETATM    6  N   UNK N   1      26.700  19.274   4.749  0.00  0.00    -0.298 N 
HETATM    7  O   UNK N   1      27.644  17.588   3.587  0.00  0.00    -0.271 OA
ENDROOT
BRANCH   1   8
HETATM    8  C   UNK N   1      28.930  17.207   6.389  0.00  0.00     0.047 C 
BRANCH   8   9
HETATM    9  C   UNK N   1      30.411  16.851   6.510  0.00  0.00     0.033 C 
HETATM   10  C   UNK N   1      31.199  17.037   5.235  0.00  0.00    -0.014 C 
HETATM   11  C   UNK N   1      32.501  17.358   5.257  0.00  0.00     0.051 C 
HETATM   12  C   UNK N   1      33.184  17.608   6.540  0.00  0.00     0.171 C 
HETATM   13  C   UNK N   1      32.396  17.651   7.785  0.00  0.00     0.051 C 
HETATM   14  O   UNK N   1      34.386  17.804   6.569  0.00  0.00    -0.289 OA
HETATM   15  C   UNK N   1      31.099  17.327   7.771  0.00  0.00    -0.014 C 
ENDBRANCH   8   9
ENDBRANCH   1   8
BRANCH   6  16
HETATM   16  C   UNK N   1      25.510  19.428   3.944  0.00  0.00     0.202 C 
BRANCH  16  17
HETATM   17  C   UNK N   1      25.726  20.465   2.892  0.00  0.00     0.251 C 
HETATM   18  O   UNK N   1      24.792  20.830   2.199  0.00  0.00    -0.305 OA
ENDBRANCH  16  17
ENDBRANCH   6  16
BRANCH   2  19
HETATM   19  C   UNK N   1      26.334  21.126   6.551  0.00  0.00     0.188 C 
BRANCH  19  20
HETATM   20  N   UNK N   1      26.010  20.878   7.945  0.00  0.00    -0.424 N 
HETATM   21  H   UNK N   1      26.724  20.614   8.624  0.00  0.00     0.150 HD
HETATM   22  H   UNK N   1      25.042  20.970   8.253  0.00  0.00     0.150 HD
ENDBRANCH  19  20
ENDBRANCH   2  19
TORSDOF 6
ENDMDL
MODEL 4
REMARK VINA RESULT:      -5.9      2.625      3.754
REMARK  6 active torsions:
REMARK  status: ('A' for Active; 'I' for Inactive)
REMARK    1  A    between atoms: C_6  and  C_5 
REMARK    2  A    between atoms: N_17  and  C_5 
REMARK    3  A    between atoms: C_9  and  C_7 
REMARK    4  A    between atoms: C_11  and  C_7 
REMARK    5  A    between atoms: C_12  and  C_8 
REMARK    6  A    between atoms: N_14  and  C_8 
ROOT
HETATM    1  C   UNK N   1      34.980  12.905  13.820  0.00  0.00     0.176 A 
HETATM    2  C   UNK N   1      35.019  12.544  11.580  0.00  0.00     0.100 A 
HETATM    3  C   UNK N   1      35.912  13.852  13.108  0.00  0.00     0.248 A 
HETATM    4  N   UNK N   1      34.507  12.123  12.681  0.00  0.00    -0.365 N 
ATOM      5  HN  UNK N   1      33.853  11.344  12.750  1.00  0.00     0.161 HD
HETATM    6  N   UNK N   1      35.904  13.616  11.793  0.00  0.00    -0.298 N 
HETATM    7  O   UNK N   1      36.577  14.734  13.632  0.00  0.00    -0.271 OA
ENDROOT
BRANCH   1   8
HETATM    8  C   UNK N   1      35.692  12.015  14.846  0.00  0.00     0.047 C 
BRANCH   8   9
HETATM    9  C   UNK N   1      35.061  12.174  16.229  0.00  0.00     0.033 C 
HETATM   10  C   UNK N   1      35.427  11.082  17.206  0.00  0.00    -0.014 C 
HETATM   11  C   UNK N   1      35.496  11.316  18.525  0.00  0.00     0.051 C 
HETATM   12  C   UNK N   1      35.284  12.678  19.050  0.00  0.00     0.171 C 
HETATM   13  C   UNK N   1      35.143  13.805  18.111  0.00  0.00     0.051 C 
HETATM   14  O   UNK N   1      35.251  12.875  20.252  0.00  0.00    -0.289 OA
HETATM   15  C   UNK N   1      35.067  13.578  16.795  0.00  0.00    -0.014 C 
ENDBRANCH   8   9
ENDBRANCH   1   8
BRANCH   6  16
HETATM   16  C   UNK N   1      36.691  14.340  10.821  0.00  0.00     0.202 C 
BRANCH  16  17
HETATM   17  C   UNK N   1      35.953  15.549  10.352  0.00  0.00     0.251 C 
HETATM   18  O   UNK N   1      36.336  16.660  10.680  0.00  0.00    -0.305 OA
ENDBRANCH  16  17
ENDBRANCH   6  16
BRANCH   2  19
HETATM   19  C   UNK N   1      34.652  11.914  10.260  0.00  0.00     0.188 C 
BRANCH  19  20
HETATM   20  N   UNK N   1      33.414  12.430   9.703  0.00  0.00    -0.424 N 
HETATM   21  H   UNK N   1      32.797  13.040  10.239  0.00  0.00     0.150 HD
HETATM   22  H   UNK N   1      33.153  12.174   8.751  0.00  0.00     0.150 HD
ENDBRANCH  19  20
ENDBRANCH   2  19
TORSDOF 6
ENDMDL
MODEL 5
REMARK VINA RESULT:      -5.9      9.856     13.256
REMARK  6 active torsions:
REMARK  status: ('A' for Active; 'I' for Inactive)
REMARK    1  A    between atoms: C_6  and  C_5 
REMARK    2  A    between atoms: N_17  and  C_5 
REMARK    3  A    between atoms: C_9  and  C_7 
REMARK    4  A    between atoms: C_11  and  C_7 
REMARK    5  A    between atoms: C_12  and  C_8 
REMARK    6  A    between atoms: N_14  and  C_8 
ROOT
HETATM    1  C   UNK N   1      25.169  19.946   4.254  0.00  0.00     0.176 A 
HETATM    2  C   UNK N   1      23.290  18.708   4.545  0.00  0.00     0.100 A 
HETATM    3  C   UNK N   1      24.135  20.225   3.193  0.00  0.00     0.248 A 
HETATM    4  N   UNK N   1      24.460  18.931   5.028  0.00  0.00    -0.365 N 
ATOM      5  HN  UNK N   1      24.843  18.459   5.846  1.00  0.00     0.161 HD
HETATM    6  N   UNK N   1      23.040  19.486   3.400  0.00  0.00    -0.298 N 
HETATM    7  O   UNK N   1      24.246  21.024   2.275  0.00  0.00    -0.271 OA
ENDROOT
BRANCH   1   8
HETATM    8  C   UNK N   1      26.481  19.393   3.685  0.00  0.00     0.047 C 
BRANCH   8   9
HETATM    9  C   UNK N   1      27.555  19.330   4.771  0.00  0.00     0.033 C 
HETATM   10  C   UNK N   1      27.423  20.393   5.835  0.00  0.00    -0.014 C 
HETATM   11  C   UNK N   1      27.829  20.177   7.096  0.00  0.00     0.051 C 
HETATM   12  C   UNK N   1      28.354  18.857   7.492  0.00  0.00     0.171 C 
HETATM   13  C   UNK N   1      28.292  17.735   6.538  0.00  0.00     0.051 C 
HETATM   14  O   UNK N   1      28.812  18.688   8.608  0.00  0.00    -0.289 OA
HETATM   15  C   UNK N   1      27.894  17.945   5.279  0.00  0.00    -0.014 C 
ENDBRANCH   8   9
ENDBRANCH   1   8
BRANCH   6  16
HETATM   16  C   UNK N   1      21.863  19.505   2.563  0.00  0.00     0.202 C 
BRANCH  16  17
HETATM   17  C   UNK N   1      20.958  20.622   2.965  0.00  0.00     0.251 C 
HETATM   18  O   UNK N   1      20.312  20.540   3.996  0.00  0.00    -0.305 OA
ENDBRANCH  16  17
ENDBRANCH   6  16
BRANCH   2  19
HETATM   19  C   UNK N   1      22.353  17.723   5.198  0.00  0.00     0.188 C 
BRANCH  19  20
HETATM   20  N   UNK N   1      21.338  18.356   6.021  0.00  0.00    -0.424 N 
HETATM   21  H   UNK N   1      20.934  17.886   6.832  0.00  0.00     0.150 HD
HETATM   22  H   UNK N   1      21.020  19.295   5.783  0.00  0.00     0.150 HD
ENDBRANCH  19  20
ENDBRANCH   2  19
TORSDOF 6
ENDMDL
MODEL 6
REMARK VINA RESULT:      -5.7      2.815      7.252
REMARK  6 active torsions:
REMARK  status: ('A' for Active; 'I' for Inactive)
REMARK    1  A    between atoms: C_6  and  C_5 
REMARK    2  A    between atoms: N_17  and  C_5 
REMARK    3  A    between atoms: C_9  and  C_7 
REMARK    4  A    between atoms: C_11  and  C_7 
REMARK    5  A    between atoms: C_12  and  C_8 
REMARK    6  A    between atoms: N_14  and  C_8 
ROOT
HETATM    1  C   UNK N   1      33.986  15.677   9.618  0.00  0.00     0.176 A 
HETATM    2  C   UNK N   1      35.033  14.452  11.216  0.00  0.00     0.100 A 
HETATM    3  C   UNK N   1      34.914  14.646   9.027  0.00  0.00     0.248 A 
HETATM    4  N   UNK N   1      34.205  15.419  11.039  0.00  0.00    -0.365 N 
ATOM      5  HN  UNK N   1      33.758  15.939  11.793  1.00  0.00     0.161 HD
HETATM    6  N   UNK N   1      35.506  13.940   9.994  0.00  0.00    -0.298 N 
HETATM    7  O   UNK N   1      35.101  14.448   7.836  0.00  0.00    -0.271 OA
ENDROOT
BRANCH   1   8
HETATM    8  C   UNK N   1      34.369  17.115   9.250  0.00  0.00     0.047 C 
BRANCH   8   9
HETATM    9  C   UNK N   1      33.439  17.662   8.168  0.00  0.00     0.033 C 
HETATM   10  C   UNK N   1      33.986  17.547   6.765  0.00  0.00    -0.014 C 
HETATM   11  C   UNK N   1      33.175  17.397   5.707  0.00  0.00     0.051 C 
HETATM   12  C   UNK N   1      31.718  17.268   5.900  0.00  0.00     0.171 C 
HETATM   13  C   UNK N   1      31.173  17.156   7.264  0.00  0.00     0.051 C 
HETATM   14  O   UNK N   1      30.972  17.230   4.937  0.00  0.00    -0.289 OA
HETATM   15  C   UNK N   1      31.975  17.310   8.323  0.00  0.00    -0.014 C 
ENDBRANCH   8   9
ENDBRANCH   1   8
BRANCH   6  16
HETATM   16  C   UNK N   1      36.460  12.878   9.773  0.00  0.00     0.202 C 
BRANCH  16  17
HETATM   17  C   UNK N   1      37.853  13.405   9.860  0.00  0.00     0.251 C 
HETATM   18  O   UNK N   1      38.552  13.122  10.818  0.00  0.00    -0.305 OA
ENDBRANCH  16  17
ENDBRANCH   6  16
BRANCH   2  19
HETATM   19  C   UNK N   1      35.390  13.977  12.602  0.00  0.00     0.188 C 
BRANCH  19  20
HETATM   20  N   UNK N   1      36.684  14.455  13.056  0.00  0.00    -0.424 N 
HETATM   21  H   UNK N   1      37.178  15.207  12.576  0.00  0.00     0.150 HD
HETATM   22  H   UNK N   1      37.110  14.026  13.877  0.00  0.00     0.150 HD
ENDBRANCH  19  20
ENDBRANCH   2  19
TORSDOF 6
ENDMDL
MODEL 7
REMARK VINA RESULT:      -5.6      6.021     10.562
REMARK  6 active torsions:
REMARK  status: ('A' for Active; 'I' for Inactive)
REMARK    1  A    between atoms: C_6  and  C_5 
REMARK    2  A    between atoms: N_17  and  C_5 
REMARK    3  A    between atoms: C_9  and  C_7 
REMARK    4  A    between atoms: C_11  and  C_7 
REMARK    5  A    between atoms: C_12  and  C_8 
REMARK    6  A    between atoms: N_14  and  C_8 
ROOT
HETATM    1  C   UNK N   1      29.633  16.832   6.029  0.00  0.00     0.176 A 
HETATM    2  C   UNK N   1      30.219  17.625   8.073  0.00  0.00     0.100 A 
HETATM    3  C   UNK N   1      31.090  16.594   6.334  0.00  0.00     0.248 A 
HETATM    4  N   UNK N   1      29.235  17.524   7.252  0.00  0.00    -0.365 N 
ATOM      5  HN  UNK N   1      28.297  17.879   7.433  1.00  0.00     0.161 HD
HETATM    6  N   UNK N   1      31.397  17.065   7.547  0.00  0.00    -0.298 N 
HETATM    7  O   UNK N   1      31.894  16.033   5.605  0.00  0.00    -0.271 OA
ENDROOT
BRANCH   1   8
HETATM    8  C   UNK N   1      29.412  17.717   4.796  0.00  0.00     0.047 C 
BRANCH   8   9
HETATM    9  C   UNK N   1      28.003  18.310   4.803  0.00  0.00     0.033 C 
HETATM   10  C   UNK N   1      27.953  19.793   4.521  0.00  0.00    -0.014 C 
HETATM   11  C   UNK N   1      26.897  20.355   3.914  0.00  0.00     0.051 C 
HETATM   12  C   UNK N   1      25.779  19.518   3.441  0.00  0.00     0.171 C 
HETATM   13  C   UNK N   1      25.894  18.050   3.502  0.00  0.00     0.051 C 
HETATM   14  O   UNK N   1      24.777  20.035   2.978  0.00  0.00    -0.289 OA
HETATM   15  C   UNK N   1      26.942  17.483   4.110  0.00  0.00    -0.014 C 
ENDBRANCH   8   9
ENDBRANCH   1   8
BRANCH   6  16
HETATM   16  C   UNK N   1      32.711  17.006   8.145  0.00  0.00     0.202 C 
BRANCH  16  17
HETATM   17  C   UNK N   1      33.512  18.205   7.760  0.00  0.00     0.251 C 
HETATM   18  O   UNK N   1      34.496  18.077   7.052  0.00  0.00    -0.305 OA
ENDBRANCH  16  17
ENDBRANCH   6  16
BRANCH   2  19
HETATM   19  C   UNK N   1      30.043  18.271   9.424  0.00  0.00     0.188 C 
BRANCH  19  20
HETATM   20  N   UNK N   1      29.641  17.335  10.459  0.00  0.00    -0.424 N 
HETATM   21  H   UNK N   1      29.783  17.535  11.449  0.00  0.00     0.150 HD
HETATM   22  H   UNK N   1      29.206  16.453  10.189  0.00  0.00     0.150 HD
ENDBRANCH  19  20
ENDBRANCH   2  19
TORSDOF 6
ENDMDL
MODEL 8
REMARK VINA RESULT:      -5.6      6.696     11.199
REMARK  6 active torsions:
REMARK  status: ('A' for Active; 'I' for Inactive)
REMARK    1  A    between atoms: C_6  and  C_5 
REMARK    2  A    between atoms: N_17  and  C_5 
REMARK    3  A    between atoms: C_9  and  C_7 
REMARK    4  A    between atoms: C_11  and  C_7 
REMARK    5  A    between atoms: C_12  and  C_8 
REMARK    6  A    between atoms: N_14  and  C_8 
ROOT
HETATM    1  C   UNK N   1      28.920  17.466   5.494  0.00  0.00     0.176 A 
HETATM    2  C   UNK N   1      30.502  17.024   7.061  0.00  0.00     0.100 A 
HETATM    3  C   UNK N   1      30.224  17.027   4.877  0.00  0.00     0.248 A 
HETATM    4  N   UNK N   1      29.290  17.423   6.907  0.00  0.00    -0.365 N 
ATOM      5  HN  UNK N   1      28.667  17.677   7.672  1.00  0.00     0.161 HD
HETATM    6  N   UNK N   1      31.128  16.768   5.827  0.00  0.00    -0.298 N 
HETATM    7  O   UNK N   1      30.444  16.897   3.683  0.00  0.00    -0.271 OA
ENDROOT
BRANCH   1   8
HETATM    8  C   UNK N   1      28.501  18.880   5.075  0.00  0.00     0.047 C 
BRANCH   8   9
HETATM    9  C   UNK N   1      27.240  18.835   4.212  0.00  0.00     0.033 C 
HETATM   10  C   UNK N   1      26.077  18.113   4.852  0.00  0.00    -0.014 C 
HETATM   11  C   UNK N   1      24.808  18.454   4.583  0.00  0.00     0.051 C 
HETATM   12  C   UNK N   1      24.517  19.599   3.700  0.00  0.00     0.171 C 
HETATM   13  C   UNK N   1      25.620  20.458   3.236  0.00  0.00     0.051 C 
HETATM   14  O   UNK N   1      23.368  19.849   3.377  0.00  0.00    -0.289 OA
HETATM   15  C   UNK N   1      26.889  20.121   3.496  0.00  0.00    -0.014 C 
ENDBRANCH   8   9
ENDBRANCH   1   8
BRANCH   6  16
HETATM   16  C   UNK N   1      32.483  16.332   5.578  0.00  0.00     0.202 C 
BRANCH  16  17
HETATM   17  C   UNK N   1      33.386  17.510   5.419  0.00  0.00     0.251 C 
HETATM   18  O   UNK N   1      34.128  17.834   6.331  0.00  0.00    -0.305 OA
ENDBRANCH  16  17
ENDBRANCH   6  16
BRANCH   2  19
HETATM   19  C   UNK N   1      31.100  16.863   8.436  0.00  0.00     0.188 C 
BRANCH  19  20
HETATM   20  N   UNK N   1      32.085  17.881   8.755  0.00  0.00    -0.424 N 
HETATM   21  H   UNK N   1      33.063  17.647   8.929  0.00  0.00     0.150 HD
HETATM   22  H   UNK N   1      31.792  18.856   8.807  0.00  0.00     0.150 HD
ENDBRANCH  19  20
ENDBRANCH   2  19
TORSDOF 6
ENDMDL
MODEL 9
REMARK VINA RESULT:      -5.6      2.771      4.114
REMARK  6 active torsions:
REMARK  status: ('A' for Active; 'I' for Inactive)
REMARK    1  A    between atoms: C_6  and  C_5 
REMARK    2  A    between atoms: N_17  and  C_5 
REMARK    3  A    between atoms: C_9  and  C_7 
REMARK    4  A    between atoms: C_11  and  C_7 
REMARK    5  A    between atoms: C_12  and  C_8 
REMARK    6  A    between atoms: N_14  and  C_8 
ROOT
HETATM    1  C   UNK N   1      36.344  13.219  13.743  0.00  0.00     0.176 A 
HETATM    2  C   UNK N   1      35.367  14.108  11.897  0.00  0.00     0.100 A 
HETATM    3  C   UNK N   1      36.930  12.668  12.468  0.00  0.00     0.248 A 
HETATM    4  N   UNK N   1      35.339  14.119  13.182  0.00  0.00    -0.365 N 
ATOM      5  HN  UNK N   1      34.698  14.683  13.738  1.00  0.00     0.161 HD
HETATM    6  N   UNK N   1      36.338  13.218  11.403  0.00  0.00    -0.298 N 
HETATM    7  O   UNK N   1      37.833  11.849  12.389  0.00  0.00    -0.271 OA
ENDROOT
BRANCH   1   8
HETATM    8  C   UNK N   1      35.695  12.144  14.623  0.00  0.00     0.047 C 
BRANCH   8   9
HETATM    9  C   UNK N   1      36.029  12.379  16.096  0.00  0.00     0.033 C 
HETATM   10  C   UNK N   1      35.656  13.751  16.604  0.00  0.00    -0.014 C 
HETATM   11  C   UNK N   1      35.310  13.953  17.885  0.00  0.00     0.051 C 
HETATM   12  C   UNK N   1      35.217  12.815  18.818  0.00  0.00     0.171 C 
HETATM   13  C   UNK N   1      35.360  11.441  18.305  0.00  0.00     0.051 C 
HETATM   14  O   UNK N   1      34.998  13.008  20.001  0.00  0.00    -0.289 OA
HETATM   15  C   UNK N   1      35.710  11.233  17.031  0.00  0.00    -0.014 C 
ENDBRANCH   8   9
ENDBRANCH   1   8
BRANCH   6  16
HETATM   16  C   UNK N   1      36.657  12.905  10.029  0.00  0.00     0.202 C 
BRANCH  16  17
HETATM   17  C   UNK N   1      37.497  13.985   9.433  0.00  0.00     0.251 C 
HETATM   18  O   UNK N   1      38.663  14.104   9.771  0.00  0.00    -0.305 OA
ENDBRANCH  16  17
ENDBRANCH   6  16
BRANCH   2  19
HETATM   19  C   UNK N   1      34.444  14.987  11.091  0.00  0.00     0.188 C 
BRANCH  19  20
HETATM   20  N   UNK N   1      34.888  16.367  11.013  0.00  0.00    -0.424 N 
HETATM   21  H   UNK N   1      35.729  16.689  11.493  0.00  0.00     0.150 HD
HETATM   22  H   UNK N   1      34.344  17.033  10.464  0.00  0.00     0.150 HD
ENDBRANCH  19  20
ENDBRANCH   2  19
TORSDOF 6
ENDMDL
