MODEL 1
REMARK VINA RESULT:      -7.1      0.000      0.000
REMARK  4 active torsions:
REMARK  status: ('A' for Active; 'I' for Inactive)
REMARK    1  A    between atoms: C_8  and  C_9 
REMARK    2  A    between atoms: O_20  and  C_9 
REMARK    3  A    between atoms: O_21  and  C_10 
REMARK    4  A    between atoms: O_22  and  C_11 
ROOT
HETATM    1  C   UNK N   1      31.148  16.904   3.680  0.00  0.00     0.045 A 
HETATM    2  C   UNK N   1      30.100  17.084   4.589  0.00  0.00     0.040 A 
HETATM    3  C   UNK N   1      32.751  17.039   5.490  0.00  0.00     0.055 A 
HETATM    4  C   UNK N   1      30.768  17.978   8.641  0.00  0.00     0.086 C 
HETATM    5  C   UNK N   1      32.470  16.873   4.131  0.00  0.00     0.117 A 
HETATM    6  C   UNK N   1      31.708  17.238   6.408  0.00  0.00     0.015 A 
HETATM    7  C   UNK N   1      30.373  17.240   5.952  0.00  0.00     0.079 A 
HETATM    8  C   UNK N   1      29.523  17.213   8.193  0.00  0.00     0.206 C 
HETATM    9  C   UNK N   1      32.608  16.245   8.541  0.00  0.00     0.152 A 
HETATM   10  C   UNK N   1      34.076  17.798   8.651  0.00  0.00     0.220 A 
HETATM   11  C   UNK N   1      32.006  17.468   7.881  0.00  0.00     0.131 A 
HETATM   12  F   UNK N   1      33.482  16.698   3.248  0.00  0.00    -0.206 F 
HETATM   13  N   UNK N   1      33.789  16.469   8.966  0.00  0.00    -0.304 N 
ATOM     14  HN  UNK N   1      34.402  15.808   9.443  1.00  0.00     0.171 HD
HETATM   15  N   UNK N   1      33.113  18.394   8.054  0.00  0.00    -0.335 N 
ATOM     16  HN  UNK N   1      33.121  19.367   7.748  1.00  0.00     0.164 HD
HETATM   17  O   UNK N   1      29.348  17.389   6.829  0.00  0.00    -0.337 OA
ENDROOT
BRANCH   9  18
HETATM   18  O   UNK N   1      31.997  15.053   8.683  0.00  0.00    -0.347 OA
HETATM   19  H   UNK N   1      31.201  14.579   8.820  0.00  0.00     0.219 HD
ENDBRANCH   9  18
BRANCH   8  20
HETATM   20  C   UNK N   1      28.311  17.658   8.962  0.00  0.00     0.139 C 
HETATM   21  N   UNK N   1      27.798  18.817   8.763  0.00  0.00    -0.382 N 
HETATM   22  H   UNK N   1      26.976  19.145   9.195  0.00  0.00     0.158 HD
ATOM     23  HN  UNK N   1      28.274  19.442   8.112  1.00  0.00     0.158 HD
BRANCH  20  24
HETATM   24  O   UNK N   1      27.741  16.824   9.853  0.00  0.00    -0.348 OA
HETATM   25  H   UNK N   1      27.464  17.149  10.687  0.00  0.00     0.219 HD
ENDBRANCH  20  24
ENDBRANCH   8  20
BRANCH  10  26
HETATM   26  O   UNK N   1      35.247  18.395   8.939  0.00  0.00    -0.332 OA
HETATM   27  H   UNK N   1      35.665  19.048   8.412  0.00  0.00     0.220 HD
ENDBRANCH  10  26
TORSDOF 4
ENDMDL
MODEL 2
REMARK VINA RESULT:      -6.7      3.725      5.152
REMARK  4 active torsions:
REMARK  status: ('A' for Active; 'I' for Inactive)
REMARK    1  A    between atoms: C_8  and  C_9 
REMARK    2  A    between atoms: O_20  and  C_9 
REMARK    3  A    between atoms: O_21  and  C_10 
REMARK    4  A    between atoms: O_22  and  C_11 
ROOT
HETATM    1  C   UNK N   1      26.419  21.067   5.624  0.00  0.00     0.045 A 
HETATM    2  C   UNK N   1      27.030  20.642   6.808  0.00  0.00     0.040 A 
HETATM    3  C   UNK N   1      27.537  19.298   4.405  0.00  0.00     0.055 A 
HETATM    4  C   UNK N   1      29.961  17.632   6.872  0.00  0.00     0.086 C 
HETATM    5  C   UNK N   1      26.666  20.391   4.426  0.00  0.00     0.117 A 
HETATM    6  C   UNK N   1      28.170  18.875   5.584  0.00  0.00     0.015 A 
HETATM    7  C   UNK N   1      27.895  19.544   6.797  0.00  0.00     0.079 A 
HETATM    8  C   UNK N   1      29.045  17.871   8.072  0.00  0.00     0.206 C 
HETATM    9  C   UNK N   1      28.487  16.402   5.224  0.00  0.00     0.152 A 
HETATM   10  C   UNK N   1      29.896  16.806   3.664  0.00  0.00     0.220 A 
HETATM   11  C   UNK N   1      29.155  17.719   5.563  0.00  0.00     0.131 A 
HETATM   12  F   UNK N   1      26.072  20.804   3.281  0.00  0.00    -0.206 F 
HETATM   13  N   UNK N   1      28.932  15.913   4.135  0.00  0.00    -0.304 N 
ATOM     14  HN  UNK N   1      28.642  15.039   3.694  1.00  0.00     0.171 HD
HETATM   15  N   UNK N   1      30.058  17.820   4.428  0.00  0.00    -0.335 N 
ATOM     16  HN  UNK N   1      30.718  18.580   4.266  1.00  0.00     0.164 HD
HETATM   17  O   UNK N   1      28.463  19.124   7.956  0.00  0.00    -0.337 OA
ENDROOT
BRANCH   9  18
HETATM   18  O   UNK N   1      27.540  15.793   5.963  0.00  0.00    -0.347 OA
HETATM   19  H   UNK N   1      26.629  15.675   6.147  0.00  0.00     0.219 HD
ENDBRANCH   9  18
BRANCH   8  20
HETATM   20  C   UNK N   1      29.802  17.737   9.363  0.00  0.00     0.139 C 
HETATM   21  N   UNK N   1      30.591  16.746   9.561  0.00  0.00    -0.382 N 
HETATM   22  H   UNK N   1      31.154  16.631  10.362  0.00  0.00     0.158 HD
ATOM     23  HN  UNK N   1      30.641  16.026   8.840  1.00  0.00     0.158 HD
BRANCH  20  24
HETATM   24  O   UNK N   1      29.670  18.681  10.315  0.00  0.00    -0.348 OA
HETATM   25  H   UNK N   1      29.668  18.436  11.220  0.00  0.00     0.219 HD
ENDBRANCH  20  24
ENDBRANCH   8  20
BRANCH  10  26
HETATM   26  O   UNK N   1      30.583  16.626   2.521  0.00  0.00    -0.332 OA
HETATM   27  H   UNK N   1      30.208  16.606   1.662  0.00  0.00     0.220 HD
ENDBRANCH  10  26
TORSDOF 4
ENDMDL
MODEL 3
REMARK VINA RESULT:      -6.7      2.705      4.877
REMARK  4 active torsions:
REMARK  status: ('A' for Active; 'I' for Inactive)
REMARK    1  A    between atoms: C_8  and  C_9 
REMARK    2  A    between atoms: O_20  and  C_9 
REMARK    3  A    between atoms: O_21  and  C_10 
REMARK    4  A    between atoms: O_22  and  C_11 
ROOT
HETATM    1  C   UNK N   1      28.487  17.499   8.218  0.00  0.00     0.045 A 
HETATM    2  C   UNK N   1      29.738  17.737   8.795  0.00  0.00     0.040 A 
HETATM    3  C   UNK N   1      29.553  16.955   6.114  0.00  0.00     0.055 A 
HETATM    4  C   UNK N   1      33.290  17.724   6.549  0.00  0.00     0.086 C 
HETATM    5  C   UNK N   1      28.395  17.100   6.881  0.00  0.00     0.117 A 
HETATM    6  C   UNK N   1      30.813  17.209   6.678  0.00  0.00     0.015 A 
HETATM    7  C   UNK N   1      30.902  17.584   8.036  0.00  0.00     0.079 A 
HETATM    8  C   UNK N   1      33.287  17.341   8.029  0.00  0.00     0.206 C 
HETATM    9  C   UNK N   1      32.349  15.678   5.397  0.00  0.00     0.152 A 
HETATM   10  C   UNK N   1      32.023  16.828   3.622  0.00  0.00     0.220 A 
HETATM   11  C   UNK N   1      32.075  17.100   5.838  0.00  0.00     0.131 A 
HETATM   12  F   UNK N   1      27.182  16.870   6.326  0.00  0.00    -0.206 F 
HETATM   13  N   UNK N   1      32.309  15.560   4.128  0.00  0.00    -0.304 N 
ATOM     14  HN  UNK N   1      32.459  14.706   3.589  1.00  0.00     0.171 HD
HETATM   15  N   UNK N   1      31.892  17.716   4.534  0.00  0.00    -0.335 N 
ATOM     16  HN  UNK N   1      31.690  18.703   4.371  1.00  0.00     0.164 HD
HETATM   17  O   UNK N   1      32.112  17.793   8.613  0.00  0.00    -0.337 OA
ENDROOT
BRANCH   9  18
HETATM   18  O   UNK N   1      32.611  14.642   6.217  0.00  0.00    -0.347 OA
HETATM   19  H   UNK N   1      32.621  14.301   7.090  0.00  0.00     0.219 HD
ENDBRANCH   9  18
BRANCH   8  20
HETATM   20  C   UNK N   1      34.494  17.896   8.732  0.00  0.00     0.139 C 
HETATM   21  N   UNK N   1      35.009  17.283   9.734  0.00  0.00    -0.382 N 
HETATM   22  H   UNK N   1      35.828  17.566  10.201  0.00  0.00     0.158 HD
ATOM     23  HN  UNK N   1      34.538  16.443  10.071  1.00  0.00     0.158 HD
BRANCH  20  24
HETATM   24  O   UNK N   1      35.058  19.037   8.291  0.00  0.00    -0.348 OA
HETATM   25  H   UNK N   1      35.989  19.099   8.212  0.00  0.00     0.219 HD
ENDBRANCH  20  24
ENDBRANCH   8  20
BRANCH  10  26
HETATM   26  O   UNK N   1      31.893  17.094   2.309  0.00  0.00    -0.332 OA
HETATM   27  H   UNK N   1      31.554  16.500   1.668  0.00  0.00     0.220 HD
ENDBRANCH  10  26
TORSDOF 4
ENDMDL
MODEL 4
REMARK VINA RESULT:      -6.6      9.506     10.743
REMARK  4 active torsions:
REMARK  status: ('A' for Active; 'I' for Inactive)
REMARK    1  A    between atoms: C_8  and  C_9 
REMARK    2  A    between atoms: O_20  and  C_9 
REMARK    3  A    between atoms: O_21  and  C_10 
REMARK    4  A    between atoms: O_22  and  C_11 
ROOT
HETATM    1  C   UNK N   1      21.790  10.884   5.954  0.00  0.00     0.045 A 
HETATM    2  C   UNK N   1      21.001  11.998   6.256  0.00  0.00     0.040 A 
HETATM    3  C   UNK N   1      23.008  11.175   8.026  0.00  0.00     0.055 A 
HETATM    4  C   UNK N   1      21.769  14.465   9.570  0.00  0.00     0.086 C 
HETATM    5  C   UNK N   1      22.786  10.468   6.841  0.00  0.00     0.117 A 
HETATM    6  C   UNK N   1      22.234  12.306   8.331  0.00  0.00     0.015 A 
HETATM    7  C   UNK N   1      21.210  12.705   7.444  0.00  0.00     0.079 A 
HETATM    8  C   UNK N   1      20.353  14.292   9.024  0.00  0.00     0.206 C 
HETATM    9  C   UNK N   1      22.187  12.323  10.849  0.00  0.00     0.152 A 
HETATM   10  C   UNK N   1      24.282  12.756  10.890  0.00  0.00     0.220 A 
HETATM   11  C   UNK N   1      22.498  13.109   9.593  0.00  0.00     0.131 A 
HETATM   12  F   UNK N   1      23.548   9.389   6.545  0.00  0.00    -0.206 F 
HETATM   13  N   UNK N   1      23.227  12.138  11.563  0.00  0.00    -0.304 N 
ATOM     14  HN  UNK N   1      23.278  11.639  12.451  1.00  0.00     0.171 HD
HETATM   15  N   UNK N   1      23.924  13.314   9.795  0.00  0.00    -0.335 N 
ATOM     16  HN  UNK N   1      24.542  13.823   9.163  1.00  0.00     0.164 HD
HETATM   17  O   UNK N   1      20.422  13.769   7.741  0.00  0.00    -0.337 OA
ENDROOT
BRANCH   9  18
HETATM   18  O   UNK N   1      20.971  11.863  11.203  0.00  0.00    -0.347 OA
HETATM   19  H   UNK N   1      20.044  11.995  11.211  0.00  0.00     0.219 HD
ENDBRANCH   9  18
BRANCH   8  20
HETATM   20  C   UNK N   1      19.604  15.595   9.043  0.00  0.00     0.139 C 
HETATM   21  N   UNK N   1      20.181  16.688   8.698  0.00  0.00    -0.382 N 
HETATM   22  H   UNK N   1      19.731  17.562   8.639  0.00  0.00     0.158 HD
ATOM     23  HN  UNK N   1      21.174  16.649   8.470  1.00  0.00     0.158 HD
BRANCH  20  24
HETATM   24  O   UNK N   1      18.306  15.615   9.403  0.00  0.00    -0.348 OA
HETATM   25  H   UNK N   1      17.905  14.842   9.750  0.00  0.00     0.219 HD
ENDBRANCH  20  24
ENDBRANCH   8  20
BRANCH  10  26
HETATM   26  O   UNK N   1      25.551  12.763  11.340  0.00  0.00    -0.332 OA
HETATM   27  H   UNK N   1      26.212  13.375  11.084  0.00  0.00     0.220 HD
ENDBRANCH  10  26
TORSDOF 4
ENDMDL
MODEL 5
REMARK VINA RESULT:      -6.5      2.402      4.613
REMARK  4 active torsions:
REMARK  status: ('A' for Active; 'I' for Inactive)
REMARK    1  A    between atoms: C_8  and  C_9 
REMARK    2  A    between atoms: O_20  and  C_9 
REMARK    3  A    between atoms: O_21  and  C_10 
REMARK    4  A    between atoms: O_22  and  C_11 
ROOT
HETATM    1  C   UNK N   1      33.404  17.214   5.316  0.00  0.00     0.045 A 
HETATM    2  C   UNK N   1      32.722  17.362   6.528  0.00  0.00     0.040 A 
HETATM    3  C   UNK N   1      31.294  17.096   4.134  0.00  0.00     0.055 A 
HETATM    4  C   UNK N   1      28.542  17.021   6.811  0.00  0.00     0.086 C 
HETATM    5  C   UNK N   1      32.691  17.090   4.121  0.00  0.00     0.117 A 
HETATM    6  C   UNK N   1      30.599  17.226   5.347  0.00  0.00     0.015 A 
HETATM    7  C   UNK N   1      31.324  17.379   6.548  0.00  0.00     0.079 A 
HETATM    8  C   UNK N   1      29.332  17.907   7.774  0.00  0.00     0.206 C 
HETATM    9  C   UNK N   1      28.461  18.377   4.677  0.00  0.00     0.152 A 
HETATM   10  C   UNK N   1      27.857  16.633   3.593  0.00  0.00     0.220 A 
HETATM   11  C   UNK N   1      29.080  17.186   5.378  0.00  0.00     0.131 A 
HETATM   12  F   UNK N   1      33.356  16.947   2.949  0.00  0.00    -0.206 F 
HETATM   13  N   UNK N   1      27.773  18.024   3.663  0.00  0.00    -0.304 N 
ATOM     14  HN  UNK N   1      27.261  18.639   3.029  1.00  0.00     0.171 HD
HETATM   15  N   UNK N   1      28.566  16.124   4.528  0.00  0.00    -0.335 N 
ATOM     16  HN  UNK N   1      28.743  15.127   4.658  1.00  0.00     0.164 HD
HETATM   17  O   UNK N   1      30.671  17.549   7.726  0.00  0.00    -0.337 OA
ENDROOT
BRANCH   9  18
HETATM   18  O   UNK N   1      28.596  19.663   5.053  0.00  0.00    -0.347 OA
HETATM   19  H   UNK N   1      29.137  20.328   5.431  0.00  0.00     0.219 HD
ENDBRANCH   9  18
BRANCH   8  20
HETATM   20  C   UNK N   1      28.788  17.802   9.171  0.00  0.00     0.139 C 
HETATM   21  N   UNK N   1      29.560  17.519  10.156  0.00  0.00    -0.382 N 
HETATM   22  H   UNK N   1      29.275  17.489  11.098  0.00  0.00     0.158 HD
ATOM     23  HN  UNK N   1      30.537  17.312   9.950  1.00  0.00     0.158 HD
BRANCH  20  24
HETATM   24  O   UNK N   1      27.480  18.030   9.398  0.00  0.00    -0.348 OA
HETATM   25  H   UNK N   1      27.197  18.873   9.694  0.00  0.00     0.219 HD
ENDBRANCH  20  24
ENDBRANCH   8  20
BRANCH  10  26
HETATM   26  O   UNK N   1      27.258  15.898   2.638  0.00  0.00    -0.332 OA
HETATM   27  H   UNK N   1      27.701  15.439   1.951  0.00  0.00     0.220 HD
ENDBRANCH  10  26
TORSDOF 4
ENDMDL
MODEL 6
REMARK VINA RESULT:      -6.3      2.925      4.661
REMARK  4 active torsions:
REMARK  status: ('A' for Active; 'I' for Inactive)
REMARK    1  A    between atoms: C_8  and  C_9 
REMARK    2  A    between atoms: O_20  and  C_9 
REMARK    3  A    between atoms: O_21  and  C_10 
REMARK    4  A    between atoms: O_22  and  C_11 
ROOT
HETATM    1  C   UNK N   1      28.394  18.102   7.011  0.00  0.00     0.045 A 
HETATM    2  C   UNK N   1      29.190  17.730   5.923  0.00  0.00     0.040 A 
HETATM    3  C   UNK N   1      30.114  17.343   8.537  0.00  0.00     0.055 A 
HETATM    4  C   UNK N   1      32.811  15.651   6.392  0.00  0.00     0.086 C 
HETATM    5  C   UNK N   1      28.859  17.916   8.316  0.00  0.00     0.117 A 
HETATM    6  C   UNK N   1      30.913  16.950   7.453  0.00  0.00     0.015 A 
HETATM    7  C   UNK N   1      30.451  17.165   6.136  0.00  0.00     0.079 A 
HETATM    8  C   UNK N   1      32.585  16.590   5.208  0.00  0.00     0.206 C 
HETATM    9  C   UNK N   1      33.260  17.218   8.326  0.00  0.00     0.152 A 
HETATM   10  C   UNK N   1      32.937  15.611   9.703  0.00  0.00     0.220 A 
HETATM   11  C   UNK N   1      32.259  16.282   7.683  0.00  0.00     0.131 A 
HETATM   12  F   UNK N   1      28.086  18.277   9.367  0.00  0.00    -0.206 F 
HETATM   13  N   UNK N   1      33.622  16.805   9.477  0.00  0.00    -0.304 N 
ATOM     14  HN  UNK N   1      34.285  17.258  10.108  1.00  0.00     0.171 HD
HETATM   15  N   UNK N   1      32.173  15.278   8.731  0.00  0.00    -0.335 N 
ATOM     16  HN  UNK N   1      31.595  14.438   8.697  1.00  0.00     0.164 HD
HETATM   17  O   UNK N   1      31.226  16.832   5.073  0.00  0.00    -0.337 OA
ENDROOT
BRANCH   9  18
HETATM   18  O   UNK N   1      33.735  18.352   7.777  0.00  0.00    -0.347 OA
HETATM   19  H   UNK N   1      33.582  19.092   7.223  0.00  0.00     0.219 HD
ENDBRANCH   9  18
BRANCH   8  20
HETATM   20  C   UNK N   1      33.165  16.016   3.946  0.00  0.00     0.139 C 
HETATM   21  N   UNK N   1      32.781  16.437   2.797  0.00  0.00    -0.382 N 
HETATM   22  H   UNK N   1      33.160  16.139   1.938  0.00  0.00     0.158 HD
ATOM     23  HN  UNK N   1      32.031  17.128   2.770  1.00  0.00     0.158 HD
BRANCH  20  24
HETATM   24  O   UNK N   1      34.117  15.066   4.020  0.00  0.00    -0.348 OA
HETATM   25  H   UNK N   1      33.878  14.177   4.198  0.00  0.00     0.219 HD
ENDBRANCH  20  24
ENDBRANCH   8  20
BRANCH  10  26
HETATM   26  O   UNK N   1      33.058  14.883  10.828  0.00  0.00    -0.332 OA
HETATM   27  H   UNK N   1      33.188  13.956  10.861  0.00  0.00     0.220 HD
ENDBRANCH  10  26
TORSDOF 4
ENDMDL
MODEL 7
REMARK VINA RESULT:      -6.3      4.195      6.599
REMARK  4 active torsions:
REMARK  status: ('A' for Active; 'I' for Inactive)
REMARK    1  A    between atoms: C_8  and  C_9 
REMARK    2  A    between atoms: O_20  and  C_9 
REMARK    3  A    between atoms: O_21  and  C_10 
REMARK    4  A    between atoms: O_22  and  C_11 
ROOT
HETATM    1  C   UNK N   1      37.605  13.302   7.546  0.00  0.00     0.045 A 
HETATM    2  C   UNK N   1      37.597  13.212   8.942  0.00  0.00     0.040 A 
HETATM    3  C   UNK N   1      35.655  14.735   7.621  0.00  0.00     0.055 A 
HETATM    4  C   UNK N   1      34.501  14.824  11.282  0.00  0.00     0.086 C 
HETATM    5  C   UNK N   1      36.640  14.069   6.888  0.00  0.00     0.117 A 
HETATM    6  C   UNK N   1      35.627  14.637   9.021  0.00  0.00     0.015 A 
HETATM    7  C   UNK N   1      36.620  13.884   9.683  0.00  0.00     0.079 A 
HETATM    8  C   UNK N   1      35.924  14.702  11.826  0.00  0.00     0.206 C 
HETATM    9  C   UNK N   1      34.615  16.828   9.743  0.00  0.00     0.152 A 
HETATM   10  C   UNK N   1      32.747  16.259   8.866  0.00  0.00     0.220 A 
HETATM   11  C   UNK N   1      34.531  15.318   9.825  0.00  0.00     0.131 A 
HETATM   12  F   UNK N   1      36.651  14.155   5.537  0.00  0.00    -0.206 F 
HETATM   13  N   UNK N   1      33.582  17.330   9.189  0.00  0.00    -0.304 N 
ATOM     14  HN  UNK N   1      33.402  18.319   9.017  1.00  0.00     0.171 HD
HETATM   15  N   UNK N   1      33.230  15.124   9.206  0.00  0.00    -0.335 N 
ATOM     16  HN  UNK N   1      32.772  14.223   9.066  1.00  0.00     0.164 HD
HETATM   17  O   UNK N   1      36.637  13.811  11.038  0.00  0.00    -0.337 OA
ENDROOT
BRANCH   9  18
HETATM   18  O   UNK N   1      35.637  17.580  10.194  0.00  0.00    -0.347 OA
HETATM   19  H   UNK N   1      36.220  18.298  10.048  0.00  0.00     0.219 HD
ENDBRANCH   9  18
BRANCH   8  20
HETATM   20  C   UNK N   1      35.916  14.272  13.266  0.00  0.00     0.139 C 
HETATM   21  N   UNK N   1      36.832  14.665  14.074  0.00  0.00    -0.382 N 
HETATM   22  H   UNK N   1      36.851  14.461  15.037  0.00  0.00     0.158 HD
ATOM     23  HN  UNK N   1      37.592  15.228  13.692  1.00  0.00     0.158 HD
BRANCH  20  24
HETATM   24  O   UNK N   1      34.923  13.483  13.722  0.00  0.00    -0.348 OA
HETATM   25  H   UNK N   1      35.008  13.057  14.552  0.00  0.00     0.219 HD
ENDBRANCH  20  24
ENDBRANCH   8  20
BRANCH  10  26
HETATM   26  O   UNK N   1      31.557  16.401   8.254  0.00  0.00    -0.332 OA
HETATM   27  H   UNK N   1      31.362  16.125   7.380  0.00  0.00     0.220 HD
ENDBRANCH  10  26
TORSDOF 4
ENDMDL
MODEL 8
REMARK VINA RESULT:      -6.2     13.993     15.873
REMARK  4 active torsions:
REMARK  status: ('A' for Active; 'I' for Inactive)
REMARK    1  A    between atoms: C_8  and  C_9 
REMARK    2  A    between atoms: O_20  and  C_9 
REMARK    3  A    between atoms: O_21  and  C_10 
REMARK    4  A    between atoms: O_22  and  C_11 
ROOT
HETATM    1  C   UNK N   1      25.187  28.041  -4.649  0.00  0.00     0.045 A 
HETATM    2  C   UNK N   1      24.853  27.037  -5.563  0.00  0.00     0.040 A 
HETATM    3  C   UNK N   1      27.080  26.734  -3.894  0.00  0.00     0.055 A 
HETATM    4  C   UNK N   1      26.833  23.331  -5.656  0.00  0.00     0.086 C 
HETATM    5  C   UNK N   1      26.304  27.893  -3.821  0.00  0.00     0.117 A 
HETATM    6  C   UNK N   1      26.743  25.712  -4.795  0.00  0.00     0.015 A 
HETATM    7  C   UNK N   1      25.631  25.878  -5.648  0.00  0.00     0.079 A 
HETATM    8  C   UNK N   1      26.213  23.930  -6.918  0.00  0.00     0.206 C 
HETATM    9  C   UNK N   1      28.964  24.658  -5.344  0.00  0.00     0.152 A 
HETATM   10  C   UNK N   1      29.121  23.932  -3.337  0.00  0.00     0.220 A 
HETATM   11  C   UNK N   1      27.552  24.427  -4.847  0.00  0.00     0.131 A 
HETATM   12  F   UNK N   1      26.625  28.868  -2.938  0.00  0.00    -0.206 F 
HETATM   13  N   UNK N   1      29.832  24.368  -4.456  0.00  0.00    -0.304 N 
ATOM     14  HN  UNK N   1      30.846  24.440  -4.547  1.00  0.00     0.171 HD
HETATM   15  N   UNK N   1      27.853  23.941  -3.510  0.00  0.00    -0.335 N 
ATOM     16  HN  UNK N   1      27.161  23.653  -2.818  1.00  0.00     0.164 HD
HETATM   17  O   UNK N   1      25.313  24.921  -6.556  0.00  0.00    -0.337 OA
ENDROOT
BRANCH   9  18
HETATM   18  O   UNK N   1      29.298  25.109  -6.568  0.00  0.00    -0.347 OA
HETATM   19  H   UNK N   1      29.276  24.981  -7.496  0.00  0.00     0.219 HD
ENDBRANCH   9  18
BRANCH   8  20
HETATM   20  C   UNK N   1      25.551  22.868  -7.750  0.00  0.00     0.139 C 
HETATM   21  N   UNK N   1      25.960  21.653  -7.709  0.00  0.00    -0.382 N 
HETATM   22  H   UNK N   1      25.535  20.905  -8.187  0.00  0.00     0.158 HD
ATOM     23  HN  UNK N   1      26.782  21.447  -7.141  1.00  0.00     0.158 HD
BRANCH  20  24
HETATM   24  O   UNK N   1      24.501  23.189  -8.530  0.00  0.00    -0.348 OA
HETATM   25  H   UNK N   1      23.852  23.789  -8.218  0.00  0.00     0.219 HD
ENDBRANCH  20  24
ENDBRANCH   8  20
BRANCH  10  26
HETATM   26  O   UNK N   1      29.706  23.546  -2.187  0.00  0.00    -0.332 OA
HETATM   27  H   UNK N   1      29.725  24.047  -1.396  0.00  0.00     0.220 HD
ENDBRANCH  10  26
TORSDOF 4
ENDMDL
MODEL 9
REMARK VINA RESULT:      -6.2     12.622     14.797
REMARK  4 active torsions:
REMARK  status: ('A' for Active; 'I' for Inactive)
REMARK    1  A    between atoms: C_8  and  C_9 
REMARK    2  A    between atoms: O_20  and  C_9 
REMARK    3  A    between atoms: O_21  and  C_10 
REMARK    4  A    between atoms: O_22  and  C_11 
ROOT
HETATM    1  C   UNK N   1      30.425  28.052  -3.672  0.00  0.00     0.045 A 
HETATM    2  C   UNK N   1      30.961  26.800  -3.354  0.00  0.00     0.040 A 
HETATM    3  C   UNK N   1      28.428  26.986  -4.530  0.00  0.00     0.055 A 
HETATM    4  C   UNK N   1      29.090  23.205  -4.463  0.00  0.00     0.086 C 
HETATM    5  C   UNK N   1      29.157  28.145  -4.252  0.00  0.00     0.117 A 
HETATM    6  C   UNK N   1      28.964  25.724  -4.232  0.00  0.00     0.015 A 
HETATM    7  C   UNK N   1      30.234  25.637  -3.621  0.00  0.00     0.079 A 
HETATM    8  C   UNK N   1      29.963  23.290  -3.211  0.00  0.00     0.206 C 
HETATM    9  C   UNK N   1      26.927  24.317  -3.765  0.00  0.00     0.152 A 
HETATM   10  C   UNK N   1      26.345  24.471  -5.819  0.00  0.00     0.220 A 
HETATM   11  C   UNK N   1      28.200  24.456  -4.575  0.00  0.00     0.131 A 
HETATM   12  F   UNK N   1      28.641  29.359  -4.558  0.00  0.00    -0.206 F 
HETATM   13  N   UNK N   1      25.891  24.332  -4.507  0.00  0.00    -0.304 N 
ATOM     14  HN  UNK N   1      24.920  24.256  -4.201  1.00  0.00     0.171 HD
HETATM   15  N   UNK N   1      27.620  24.537  -5.906  0.00  0.00    -0.335 N 
ATOM     16  HN  UNK N   1      28.148  24.631  -6.774  1.00  0.00     0.164 HD
HETATM   17  O   UNK N   1      30.752  24.428  -3.285  0.00  0.00    -0.337 OA
ENDROOT
BRANCH   9  18
HETATM   18  O   UNK N   1      26.863  24.187  -2.426  0.00  0.00    -0.347 OA
HETATM   19  H   UNK N   1      27.032  24.557  -1.582  0.00  0.00     0.219 HD
ENDBRANCH   9  18
BRANCH   8  20
HETATM   20  C   UNK N   1      30.802  22.053  -3.054  0.00  0.00     0.139 C 
HETATM   21  N   UNK N   1      30.552  21.000  -3.741  0.00  0.00    -0.382 N 
HETATM   22  H   UNK N   1      31.096  20.179  -3.722  0.00  0.00     0.158 HD
ATOM     23  HN  UNK N   1      29.734  21.012  -4.350  1.00  0.00     0.158 HD
BRANCH  20  24
HETATM   24  O   UNK N   1      31.843  22.057  -2.198  0.00  0.00    -0.348 OA
HETATM   25  H   UNK N   1      32.608  21.552  -2.391  0.00  0.00     0.219 HD
ENDBRANCH  20  24
ENDBRANCH   8  20
BRANCH  10  26
HETATM   26  O   UNK N   1      25.529  24.535  -6.887  0.00  0.00    -0.332 OA
HETATM   27  H   UNK N   1      24.956  23.850  -7.171  0.00  0.00     0.220 HD
ENDBRANCH  10  26
TORSDOF 4
ENDMDL
