REMARK  0 active torsions:
REMARK  status: ('A' for Active; 'I' for Inactive)
ROOT
HETATM    1  C   UNK N   1      -0.239   1.320  -0.000  0.00  0.00     0.182 A 
HETATM    2  C   UNK N   1       4.125   0.680   0.000  0.00  0.00     0.183 A 
HETATM    3  C   UNK N   1       1.768   2.041  -0.000  0.00  0.00     0.112 A 
HETATM    4  C   UNK N   1       2.956   2.761  -0.000  0.00  0.00     0.111 A 
HETATM    5  C   UNK N   1       1.792   0.695   0.000  0.00  0.00     0.137 A 
HETATM    6 Br   UNK N   1       2.994   4.670  -0.000  0.00  0.00    -0.029 Br
HETATM    7  N   UNK N   1       0.497   2.467  -0.000  0.00  0.00    -0.347 N 
ATOM      8  HN  UNK N   1       0.158   3.430  -0.000  1.00  0.00     0.167 HD
HETATM    9  N   UNK N   1       4.125   2.054   0.000  0.00  0.00    -0.344 N 
ATOM     10  HN  UNK N   1       5.014   2.555   0.000  1.00  0.00     0.167 HD
HETATM   11  N   UNK N   1       0.546   0.208   0.000  0.00  0.00    -0.337 N 
ATOM     12  HN  UNK N   1       0.252  -0.769   0.000  1.00  0.00     0.168 HD
HETATM   13  N   UNK N   1       2.945  -0.013   0.000  0.00  0.00    -0.337 N 
HETATM   14  H   UNK N   1       2.935  -0.998   0.000  0.00  0.00     0.168 HD
ENDROOT
TORSDOF 0
