MODEL 1
REMARK VINA RESULT:      -4.8      0.000      0.000
REMARK  9 active torsions:
REMARK  status: ('A' for Active; 'I' for Inactive)
REMARK    1  A    between atoms: C_2  and  N_1 
REMARK    2  A    between atoms: C_2  and  C_3 
REMARK    3  A    between atoms: C_2  and  C_10 
REMARK    4  A    between atoms: C_3  and  S_4 
REMARK    5  A    between atoms: S_4  and  C_5 
REMARK    6  A    between atoms: C_5  and  P_6 
REMARK    7  A    between atoms: P_6  and  O_7 
REMARK    8  A    between atoms: P_6  and  O_8 
REMARK    9  A    between atoms: C_10  and  O_11 
ROOT
HETATM    1  C   UNK N   1      34.682  15.727   8.359  0.00  0.00     0.110 C 
ENDROOT
BRANCH   1   2
HETATM    2  C   UNK N   1      34.221  17.049   8.941  0.00  0.00     0.182 C 
BRANCH   2   3
HETATM    3  N   UNK N   1      34.770  17.206  10.277  0.00  0.00    -0.417 N 
HETATM    4  H   UNK N   1      35.754  17.380  10.485  0.00  0.00     0.150 HD
HETATM    5  H   UNK N   1      34.125  17.140  11.065  0.00  0.00     0.150 HD
ENDBRANCH   2   3
BRANCH   2   6
HETATM    6  C   UNK N   1      34.639  18.189   8.054  0.00  0.00     0.163 C 
HETATM    7  O   UNK N   1      34.386  18.160   6.862  0.00  0.00    -0.648 OA
BRANCH   6   8
HETATM    8  O   UNK N   1      35.286  19.254   8.570  0.00  0.00    -0.775 OA
HETATM    9  H   UNK N   1      36.088  19.639   8.272  0.00  0.00     0.167 HD
ENDBRANCH   6   8
ENDBRANCH   2   6
ENDBRANCH   1   2
BRANCH   1  10
HETATM   10  S   UNK N   1      34.223  14.377   9.490  0.00  0.00    -0.155 SA
BRANCH  10  11
HETATM   11  C   UNK N   1      35.870  13.624   9.365  0.00  0.00     0.198 C 
BRANCH  11  12
HETATM   12  P   UNK N   1      37.006  14.107  10.769  0.00  0.00     0.245 P 
HETATM   13  O   UNK N   1      36.383  13.816  12.161  0.00  0.00    -0.653 OA
BRANCH  12  14
HETATM   14  O   UNK N   1      38.615  13.449  10.845  0.00  0.00    -0.329 OA
HETATM   15  H   UNK N   1      39.192  12.877  11.373  0.00  0.00     0.220 HD
ENDBRANCH  12  14
BRANCH  12  16
HETATM   16  O   UNK N   1      37.200  15.826  10.784  0.00  0.00    -0.329 OA
HETATM   17  H   UNK N   1      37.742  16.566  11.104  0.00  0.00     0.220 HD
ENDBRANCH  12  16
ENDBRANCH  11  12
ENDBRANCH  10  11
ENDBRANCH   1  10
TORSDOF 9
ENDMDL
MODEL 2
REMARK VINA RESULT:      -4.7      1.055      1.890
REMARK  9 active torsions:
REMARK  status: ('A' for Active; 'I' for Inactive)
REMARK    1  A    between atoms: C_2  and  N_1 
REMARK    2  A    between atoms: C_2  and  C_3 
REMARK    3  A    between atoms: C_2  and  C_10 
REMARK    4  A    between atoms: C_3  and  S_4 
REMARK    5  A    between atoms: S_4  and  C_5 
REMARK    6  A    between atoms: C_5  and  P_6 
REMARK    7  A    between atoms: P_6  and  O_7 
REMARK    8  A    between atoms: P_6  and  O_8 
REMARK    9  A    between atoms: C_10  and  O_11 
ROOT
HETATM    1  C   UNK N   1      34.745  15.780   8.573  0.00  0.00     0.110 C 
ENDROOT
BRANCH   1   2
HETATM    2  C   UNK N   1      34.363  17.130   9.149  0.00  0.00     0.182 C 
BRANCH   2   3
HETATM    3  N   UNK N   1      35.045  17.324  10.418  0.00  0.00    -0.417 N 
HETATM    4  H   UNK N   1      34.677  17.866  11.200  0.00  0.00     0.150 HD
HETATM    5  H   UNK N   1      35.958  16.883  10.537  0.00  0.00     0.150 HD
ENDBRANCH   2   3
BRANCH   2   6
HETATM    6  C   UNK N   1      34.709  18.230   8.185  0.00  0.00     0.163 C 
HETATM    7  O   UNK N   1      35.285  19.229   8.579  0.00  0.00    -0.648 OA
BRANCH   6   8
HETATM    8  O   UNK N   1      34.396  18.116   6.877  0.00  0.00    -0.775 OA
HETATM    9  H   UNK N   1      34.810  17.575   6.233  0.00  0.00     0.167 HD
ENDBRANCH   6   8
ENDBRANCH   2   6
ENDBRANCH   1   2
BRANCH   1  10
HETATM   10  S   UNK N   1      33.891  14.466   9.498  0.00  0.00    -0.155 SA
BRANCH  10  11
HETATM   11  C   UNK N   1      35.460  13.678   9.958  0.00  0.00     0.198 C 
BRANCH  11  12
HETATM   12  P   UNK N   1      35.855  13.837  11.778  0.00  0.00     0.245 P 
HETATM   13  O   UNK N   1      36.936  12.822  12.240  0.00  0.00    -0.653 OA
BRANCH  12  14
HETATM   14  O   UNK N   1      36.367  15.370  12.421  0.00  0.00    -0.329 OA
HETATM   15  H   UNK N   1      36.236  16.327  12.337  0.00  0.00     0.220 HD
ENDBRANCH  12  14
BRANCH  12  16
HETATM   16  O   UNK N   1      34.470  13.376  12.708  0.00  0.00    -0.329 OA
HETATM   17  H   UNK N   1      34.155  12.862  13.468  0.00  0.00     0.220 HD
ENDBRANCH  12  16
ENDBRANCH  11  12
ENDBRANCH  10  11
ENDBRANCH   1  10
TORSDOF 9
ENDMDL
MODEL 3
REMARK VINA RESULT:      -4.6      2.727      5.672
REMARK  9 active torsions:
REMARK  status: ('A' for Active; 'I' for Inactive)
REMARK    1  A    between atoms: C_2  and  N_1 
REMARK    2  A    between atoms: C_2  and  C_3 
REMARK    3  A    between atoms: C_2  and  C_10 
REMARK    4  A    between atoms: C_3  and  S_4 
REMARK    5  A    between atoms: S_4  and  C_5 
REMARK    6  A    between atoms: C_5  and  P_6 
REMARK    7  A    between atoms: P_6  and  O_7 
REMARK    8  A    between atoms: P_6  and  O_8 
REMARK    9  A    between atoms: C_10  and  O_11 
ROOT
HETATM    1  C   UNK N   1      34.746  14.845  11.012  0.00  0.00     0.110 C 
ENDROOT
BRANCH   1   2
HETATM    2  C   UNK N   1      35.899  14.067  11.618  0.00  0.00     0.182 C 
BRANCH   2   3
HETATM    3  N   UNK N   1      37.154  14.582  11.097  0.00  0.00    -0.417 N 
HETATM    4  H   UNK N   1      37.515  15.521  11.270  0.00  0.00     0.150 HD
HETATM    5  H   UNK N   1      37.717  13.959  10.517  0.00  0.00     0.150 HD
ENDBRANCH   2   3
BRANCH   2   6
HETATM    6  C   UNK N   1      35.865  14.158  13.118  0.00  0.00     0.163 C 
HETATM    7  O   UNK N   1      34.980  13.601  13.743  0.00  0.00    -0.648 OA
BRANCH   6   8
HETATM    8  O   UNK N   1      36.818  14.845  13.782  0.00  0.00    -0.775 OA
HETATM    9  H   UNK N   1      36.698  15.511  14.431  0.00  0.00     0.167 HD
ENDBRANCH   6   8
ENDBRANCH   2   6
ENDBRANCH   1   2
BRANCH   1  10
HETATM   10  S   UNK N   1      35.313  16.515  10.566  0.00  0.00    -0.155 SA
BRANCH  10  11
HETATM   11  C   UNK N   1      34.788  16.304   8.841  0.00  0.00     0.198 C 
BRANCH  11  12
HETATM   12  P   UNK N   1      34.234  17.901   8.042  0.00  0.00     0.245 P 
HETATM   13  O   UNK N   1      34.424  17.889   6.501  0.00  0.00    -0.653 OA
BRANCH  12  14
HETATM   14  O   UNK N   1      32.612  18.477   8.295  0.00  0.00    -0.329 OA
HETATM   15  H   UNK N   1      32.057  19.270   8.247  0.00  0.00     0.220 HD
ENDBRANCH  12  14
BRANCH  12  16
HETATM   16  O   UNK N   1      35.274  19.187   8.550  0.00  0.00    -0.329 OA
HETATM   17  H   UNK N   1      35.752  19.578   9.299  0.00  0.00     0.220 HD
ENDBRANCH  12  16
ENDBRANCH  11  12
ENDBRANCH  10  11
ENDBRANCH   1  10
TORSDOF 9
ENDMDL
MODEL 4
REMARK VINA RESULT:      -4.6      4.861      6.423
REMARK  9 active torsions:
REMARK  status: ('A' for Active; 'I' for Inactive)
REMARK    1  A    between atoms: C_2  and  N_1 
REMARK    2  A    between atoms: C_2  and  C_3 
REMARK    3  A    between atoms: C_2  and  C_10 
REMARK    4  A    between atoms: C_3  and  S_4 
REMARK    5  A    between atoms: S_4  and  C_5 
REMARK    6  A    between atoms: C_5  and  P_6 
REMARK    7  A    between atoms: P_6  and  O_7 
REMARK    8  A    between atoms: P_6  and  O_8 
REMARK    9  A    between atoms: C_10  and  O_11 
ROOT
HETATM    1  C   UNK N   1      31.962  17.423   6.892  0.00  0.00     0.110 C 
ENDROOT
BRANCH   1   2
HETATM    2  C   UNK N   1      32.725  18.043   8.047  0.00  0.00     0.182 C 
BRANCH   2   3
HETATM    3  N   UNK N   1      32.626  17.178   9.210  0.00  0.00    -0.417 N 
HETATM    4  H   UNK N   1      31.792  17.073   9.789  0.00  0.00     0.150 HD
HETATM    5  H   UNK N   1      33.450  16.634   9.467  0.00  0.00     0.150 HD
ENDBRANCH   2   3
BRANCH   2   6
HETATM    6  C   UNK N   1      34.162  18.266   7.668  0.00  0.00     0.163 C 
HETATM    7  O   UNK N   1      34.869  18.986   8.351  0.00  0.00    -0.648 OA
BRANCH   6   8
HETATM    8  O   UNK N   1      34.684  17.662   6.580  0.00  0.00    -0.775 OA
HETATM    9  H   UNK N   1      35.362  17.015   6.552  0.00  0.00     0.167 HD
ENDBRANCH   6   8
ENDBRANCH   2   6
ENDBRANCH   1   2
BRANCH   1  10
HETATM   10  S   UNK N   1      30.812  16.167   7.533  0.00  0.00    -0.155 SA
BRANCH  10  11
HETATM   11  C   UNK N   1      29.388  17.276   7.343  0.00  0.00     0.198 C 
BRANCH  11  12
HETATM   12  P   UNK N   1      28.755  17.944   8.970  0.00  0.00     0.245 P 
HETATM   13  O   UNK N   1      27.941  16.888   9.766  0.00  0.00    -0.653 OA
BRANCH  12  14
HETATM   14  O   UNK N   1      29.872  18.618  10.121  0.00  0.00    -0.329 OA
HETATM   15  H   UNK N   1      30.400  19.407  10.315  0.00  0.00     0.220 HD
ENDBRANCH  12  14
BRANCH  12  16
HETATM   16  O   UNK N   1      27.588  19.184   8.666  0.00  0.00    -0.329 OA
HETATM   17  H   UNK N   1      27.402  20.003   8.179  0.00  0.00     0.220 HD
ENDBRANCH  12  16
ENDBRANCH  11  12
ENDBRANCH  10  11
ENDBRANCH   1  10
TORSDOF 9
ENDMDL
MODEL 5
REMARK VINA RESULT:      -4.4      4.988      6.850
REMARK  9 active torsions:
REMARK  status: ('A' for Active; 'I' for Inactive)
REMARK    1  A    between atoms: C_2  and  N_1 
REMARK    2  A    between atoms: C_2  and  C_3 
REMARK    3  A    between atoms: C_2  and  C_10 
REMARK    4  A    between atoms: C_3  and  S_4 
REMARK    5  A    between atoms: S_4  and  C_5 
REMARK    6  A    between atoms: C_5  and  P_6 
REMARK    7  A    between atoms: P_6  and  O_7 
REMARK    8  A    between atoms: P_6  and  O_8 
REMARK    9  A    between atoms: C_10  and  O_11 
ROOT
HETATM    1  C   UNK N   1      32.407  16.421   7.382  0.00  0.00     0.110 C 
ENDROOT
BRANCH   1   2
HETATM    2  C   UNK N   1      32.989  17.472   8.308  0.00  0.00     0.182 C 
BRANCH   2   3
HETATM    3  N   UNK N   1      33.401  16.844   9.552  0.00  0.00    -0.417 N 
HETATM    4  H   UNK N   1      32.764  16.524  10.282  0.00  0.00     0.150 HD
HETATM    5  H   UNK N   1      34.401  16.710   9.706  0.00  0.00     0.150 HD
ENDBRANCH   2   3
BRANCH   2   6
HETATM    6  C   UNK N   1      34.149  18.168   7.652  0.00  0.00     0.163 C 
HETATM    7  O   UNK N   1      34.438  17.914   6.495  0.00  0.00    -0.648 OA
BRANCH   6   8
HETATM    8  O   UNK N   1      34.869  19.085   8.330  0.00  0.00    -0.775 OA
HETATM    9  H   UNK N   1      35.546  18.932   8.961  0.00  0.00     0.167 HD
ENDBRANCH   6   8
ENDBRANCH   2   6
ENDBRANCH   1   2
BRANCH   1  10
HETATM   10  S   UNK N   1      30.944  17.102   6.541  0.00  0.00    -0.155 SA
BRANCH  10  11
HETATM   11  C   UNK N   1      30.154  17.529   8.118  0.00  0.00     0.198 C 
BRANCH  11  12
HETATM   12  P   UNK N   1      28.359  18.019   7.931  0.00  0.00     0.245 P 
HETATM   13  O   UNK N   1      28.195  19.461   7.379  0.00  0.00    -0.653 OA
BRANCH  12  14
HETATM   14  O   UNK N   1      27.292  17.040   6.969  0.00  0.00    -0.329 OA
HETATM   15  H   UNK N   1      26.504  17.080   6.405  0.00  0.00     0.220 HD
ENDBRANCH  12  14
BRANCH  12  16
HETATM   16  O   UNK N   1      27.626  18.118   9.495  0.00  0.00    -0.329 OA
HETATM   17  H   UNK N   1      27.668  18.534  10.371  0.00  0.00     0.220 HD
ENDBRANCH  12  16
ENDBRANCH  11  12
ENDBRANCH  10  11
ENDBRANCH   1  10
TORSDOF 9
ENDMDL
MODEL 6
REMARK VINA RESULT:      -4.3      3.901      5.200
REMARK  9 active torsions:
REMARK  status: ('A' for Active; 'I' for Inactive)
REMARK    1  A    between atoms: C_2  and  N_1 
REMARK    2  A    between atoms: C_2  and  C_3 
REMARK    3  A    between atoms: C_2  and  C_10 
REMARK    4  A    between atoms: C_3  and  S_4 
REMARK    5  A    between atoms: S_4  and  C_5 
REMARK    6  A    between atoms: C_5  and  P_6 
REMARK    7  A    between atoms: P_6  and  O_7 
REMARK    8  A    between atoms: P_6  and  O_8 
REMARK    9  A    between atoms: C_10  and  O_11 
ROOT
HETATM    1  C   UNK N   1      34.127  15.845   8.474  0.00  0.00     0.110 C 
ENDROOT
BRANCH   1   2
HETATM    2  C   UNK N   1      34.123  17.223   9.108  0.00  0.00     0.182 C 
BRANCH   2   3
HETATM    3  N   UNK N   1      34.932  17.202  10.315  0.00  0.00    -0.417 N 
HETATM    4  H   UNK N   1      34.982  17.960  10.996  0.00  0.00     0.150 HD
HETATM    5  H   UNK N   1      35.490  16.367  10.496  0.00  0.00     0.150 HD
ENDBRANCH   2   3
BRANCH   2   6
HETATM    6  C   UNK N   1      34.638  18.250   8.138  0.00  0.00     0.163 C 
HETATM    7  O   UNK N   1      35.271  19.209   8.544  0.00  0.00    -0.648 OA
BRANCH   6   8
HETATM    8  O   UNK N   1      34.416  18.112   6.815  0.00  0.00    -0.775 OA
HETATM    9  H   UNK N   1      34.416  17.321   6.312  0.00  0.00     0.167 HD
ENDBRANCH   6   8
ENDBRANCH   2   6
ENDBRANCH   1   2
BRANCH   1  10
HETATM   10  S   UNK N   1      32.615  14.955   8.954  0.00  0.00    -0.155 SA
BRANCH  10  11
HETATM   11  C   UNK N   1      31.986  14.970   7.251  0.00  0.00     0.198 C 
BRANCH  11  12
HETATM   12  P   UNK N   1      31.041  16.527   6.831  0.00  0.00     0.245 P 
HETATM   13  O   UNK N   1      29.645  16.226   6.223  0.00  0.00    -0.653 OA
BRANCH  12  14
HETATM   14  O   UNK N   1      30.753  17.722   8.061  0.00  0.00    -0.329 OA
HETATM   15  H   UNK N   1      30.067  18.295   8.437  0.00  0.00     0.220 HD
ENDBRANCH  12  14
BRANCH  12  16
HETATM   16  O   UNK N   1      31.850  17.360   5.547  0.00  0.00    -0.329 OA
HETATM   17  H   UNK N   1      32.046  18.227   5.158  0.00  0.00     0.220 HD
ENDBRANCH  12  16
ENDBRANCH  11  12
ENDBRANCH  10  11
ENDBRANCH   1  10
TORSDOF 9
ENDMDL
MODEL 7
REMARK VINA RESULT:      -4.3     15.050     15.924
REMARK  9 active torsions:
REMARK  status: ('A' for Active; 'I' for Inactive)
REMARK    1  A    between atoms: C_2  and  N_1 
REMARK    2  A    between atoms: C_2  and  C_3 
REMARK    3  A    between atoms: C_2  and  C_10 
REMARK    4  A    between atoms: C_3  and  S_4 
REMARK    5  A    between atoms: S_4  and  C_5 
REMARK    6  A    between atoms: C_5  and  P_6 
REMARK    7  A    between atoms: P_6  and  O_7 
REMARK    8  A    between atoms: P_6  and  O_8 
REMARK    9  A    between atoms: C_10  and  O_11 
ROOT
HETATM    1  C   UNK N   1      21.272  18.735   3.339  0.00  0.00     0.110 C 
ENDROOT
BRANCH   1   2
HETATM    2  C   UNK N   1      20.570  19.186   2.072  0.00  0.00     0.182 C 
BRANCH   2   3
HETATM    3  N   UNK N   1      19.139  19.254   2.312  0.00  0.00    -0.417 N 
HETATM    4  H   UNK N   1      18.698  19.186   3.230  0.00  0.00     0.150 HD
HETATM    5  H   UNK N   1      18.529  19.380   1.504  0.00  0.00     0.150 HD
ENDBRANCH   2   3
BRANCH   2   6
HETATM    6  C   UNK N   1      21.100  20.519   1.623  0.00  0.00     0.163 C 
HETATM    7  O   UNK N   1      21.249  20.747   0.435  0.00  0.00    -0.648 OA
BRANCH   6   8
HETATM    8  O   UNK N   1      21.402  21.474   2.527  0.00  0.00    -0.775 OA
HETATM    9  H   UNK N   1      21.241  21.462   3.450  0.00  0.00     0.167 HD
ENDBRANCH   6   8
ENDBRANCH   2   6
ENDBRANCH   1   2
BRANCH   1  10
HETATM   10  S   UNK N   1      21.307  16.917   3.396  0.00  0.00    -0.155 SA
BRANCH  10  11
HETATM   11  C   UNK N   1      20.330  16.880   4.926  0.00  0.00     0.198 C 
BRANCH  11  12
HETATM   12  P   UNK N   1      21.315  17.368   6.438  0.00  0.00     0.245 P 
HETATM   13  O   UNK N   1      21.024  18.824   6.890  0.00  0.00    -0.653 OA
BRANCH  12  14
HETATM   14  O   UNK N   1      21.204  16.412   7.887  0.00  0.00    -0.329 OA
HETATM   15  H   UNK N   1      20.627  15.799   8.366  0.00  0.00     0.220 HD
ENDBRANCH  12  14
BRANCH  12  16
HETATM   16  O   UNK N   1      22.997  17.417   6.035  0.00  0.00    -0.329 OA
HETATM   17  H   UNK N   1      23.887  17.120   6.285  0.00  0.00     0.220 HD
ENDBRANCH  12  16
ENDBRANCH  11  12
ENDBRANCH  10  11
ENDBRANCH   1  10
TORSDOF 9
ENDMDL
MODEL 8
REMARK VINA RESULT:      -4.3      2.789      4.720
REMARK  9 active torsions:
REMARK  status: ('A' for Active; 'I' for Inactive)
REMARK    1  A    between atoms: C_2  and  N_1 
REMARK    2  A    between atoms: C_2  and  C_3 
REMARK    3  A    between atoms: C_2  and  C_10 
REMARK    4  A    between atoms: C_3  and  S_4 
REMARK    5  A    between atoms: S_4  and  C_5 
REMARK    6  A    between atoms: C_5  and  P_6 
REMARK    7  A    between atoms: P_6  and  O_7 
REMARK    8  A    between atoms: P_6  and  O_8 
REMARK    9  A    between atoms: C_10  and  O_11 
ROOT
HETATM    1  C   UNK N   1      34.016  15.045   9.370  0.00  0.00     0.110 C 
ENDROOT
BRANCH   1   2
HETATM    2  C   UNK N   1      34.491  15.527  10.727  0.00  0.00     0.182 C 
BRANCH   2   3
HETATM    3  N   UNK N   1      34.862  14.383  11.543  0.00  0.00    -0.417 N 
HETATM    4  H   UNK N   1      34.244  13.918  12.208  0.00  0.00     0.150 HD
HETATM    5  H   UNK N   1      35.809  14.017  11.442  0.00  0.00     0.150 HD
ENDBRANCH   2   3
BRANCH   2   6
HETATM    6  C   UNK N   1      35.650  16.472  10.574  0.00  0.00     0.163 C 
HETATM    7  O   UNK N   1      35.466  17.600  10.152  0.00  0.00    -0.648 OA
BRANCH   6   8
HETATM    8  O   UNK N   1      36.897  16.085  10.914  0.00  0.00    -0.775 OA
HETATM    9  H   UNK N   1      37.586  16.614  11.266  0.00  0.00     0.167 HD
ENDBRANCH   6   8
ENDBRANCH   2   6
ENDBRANCH   1   2
BRANCH   1  10
HETATM   10  S   UNK N   1      32.470  15.899   8.933  0.00  0.00    -0.155 SA
BRANCH  10  11
HETATM   11  C   UNK N   1      32.735  15.614   7.160  0.00  0.00     0.198 C 
BRANCH  11  12
HETATM   12  P   UNK N   1      33.967  16.799   6.403  0.00  0.00     0.245 P 
HETATM   13  O   UNK N   1      33.426  17.470   5.111  0.00  0.00    -0.653 OA
BRANCH  12  14
HETATM   14  O   UNK N   1      34.611  18.104   7.357  0.00  0.00    -0.329 OA
HETATM   15  H   UNK N   1      34.366  18.780   8.006  0.00  0.00     0.220 HD
ENDBRANCH  12  14
BRANCH  12  16
HETATM   16  O   UNK N   1      35.339  15.913   5.832  0.00  0.00    -0.329 OA
HETATM   17  H   UNK N   1      36.307  15.837   5.857  0.00  0.00     0.220 HD
ENDBRANCH  12  16
ENDBRANCH  11  12
ENDBRANCH  10  11
ENDBRANCH   1  10
TORSDOF 9
ENDMDL
MODEL 9
REMARK VINA RESULT:      -4.2      2.735      5.044
REMARK  9 active torsions:
REMARK  status: ('A' for Active; 'I' for Inactive)
REMARK    1  A    between atoms: C_2  and  N_1 
REMARK    2  A    between atoms: C_2  and  C_3 
REMARK    3  A    between atoms: C_2  and  C_10 
REMARK    4  A    between atoms: C_3  and  S_4 
REMARK    5  A    between atoms: S_4  and  C_5 
REMARK    6  A    between atoms: C_5  and  P_6 
REMARK    7  A    between atoms: P_6  and  O_7 
REMARK    8  A    between atoms: P_6  and  O_8 
REMARK    9  A    between atoms: C_10  and  O_11 
ROOT
HETATM    1  C   UNK N   1      36.506  12.540   9.756  0.00  0.00     0.110 C 
ENDROOT
BRANCH   1   2
HETATM    2  C   UNK N   1      37.662  12.592  10.736  0.00  0.00     0.182 C 
BRANCH   2   3
HETATM    3  N   UNK N   1      38.497  13.744  10.437  0.00  0.00    -0.417 N 
HETATM    4  H   UNK N   1      38.615  14.552  11.048  0.00  0.00     0.150 HD
HETATM    5  H   UNK N   1      39.003  13.743   9.551  0.00  0.00     0.150 HD
ENDBRANCH   2   3
BRANCH   2   6
HETATM    6  C   UNK N   1      37.153  12.656  12.149  0.00  0.00     0.163 C 
HETATM    7  O   UNK N   1      36.836  11.632  12.730  0.00  0.00    -0.648 OA
BRANCH   6   8
HETATM    8  O   UNK N   1      37.053  13.840  12.788  0.00  0.00    -0.775 OA
HETATM    9  H   UNK N   1      37.118  14.699  12.417  0.00  0.00     0.167 HD
ENDBRANCH   6   8
ENDBRANCH   2   6
ENDBRANCH   1   2
BRANCH   1  10
HETATM   10  S   UNK N   1      36.757  13.791   8.459  0.00  0.00    -0.155 SA
BRANCH  10  11
HETATM   11  C   UNK N   1      35.172  14.593   8.833  0.00  0.00     0.198 C 
BRANCH  11  12
HETATM   12  P   UNK N   1      35.244  15.690  10.345  0.00  0.00     0.245 P 
HETATM   13  O   UNK N   1      34.481  15.083  11.553  0.00  0.00    -0.653 OA
BRANCH  12  14
HETATM   14  O   UNK N   1      36.785  16.185  10.982  0.00  0.00    -0.329 OA
HETATM   15  H   UNK N   1      37.222  16.507  11.786  0.00  0.00     0.220 HD
ENDBRANCH  12  14
BRANCH  12  16
HETATM   16  O   UNK N   1      34.373  17.153  10.034  0.00  0.00    -0.329 OA
HETATM   17  H   UNK N   1      33.646  17.558   9.534  0.00  0.00     0.220 HD
ENDBRANCH  12  16
ENDBRANCH  11  12
ENDBRANCH  10  11
ENDBRANCH   1  10
TORSDOF 9
ENDMDL
