MODEL 1
REMARK VINA RESULT:      -9.7      0.000      0.000
REMARK  8 active torsions:
REMARK  status: ('A' for Active; 'I' for Inactive)
REMARK    1  A    between atoms: C_17  and  C_14 
REMARK    2  A    between atoms: C_22  and  C_14 
REMARK    3  A    between atoms: C_18  and  C_15 
REMARK    4  A    between atoms: C_26  and  C_15 
REMARK    5  A    between atoms: C_23  and  C_19 
REMARK    6  A    between atoms: O_32  and  C_20 
REMARK    7  A    between atoms: O_33  and  C_21 
REMARK    8  A    between atoms: C_26  and  O_35 
ROOT
HETATM    1  C   UNK N   1      21.223  13.578   7.284  0.00  0.00     0.132 A 
HETATM    2  C   UNK N   1      20.545  16.235   7.725  0.00  0.00     0.059 A 
HETATM    3  C   UNK N   1      21.304  14.133   8.578  0.00  0.00     0.059 A 
HETATM    4  C   UNK N   1      20.440  15.651   6.463  0.00  0.00     0.136 A 
HETATM    5  C   UNK N   1      20.618  14.108   4.963  0.00  0.00     0.285 A 
HETATM    6  C   UNK N   1      20.085  15.333   4.258  0.00  0.00     0.221 A 
HETATM    7  N   UNK N   1      20.979  15.452   8.758  0.00  0.00    -0.354 N 
ATOM      8  HN  UNK N   1      21.065  15.861   9.688  1.00  0.00     0.166 HD
HETATM    9  N   UNK N   1      20.036  16.241   5.399  0.00  0.00    -0.335 N 
ATOM     10  HN  UNK N   1      19.724  17.211   5.357  1.00  0.00     0.164 HD
HETATM   11  N   UNK N   1      20.790  14.376   6.276  0.00  0.00    -0.271 N 
HETATM   12  O   UNK N   1      20.853  13.024   4.453  0.00  0.00    -0.267 OA
ENDROOT
BRANCH   6  13
HETATM   13  C   UNK N   1      21.016  15.927   3.198  0.00  0.00     0.110 C 
BRANCH  13  14
HETATM   14  C   UNK N   1      21.086  17.420   3.128  0.00  0.00    -0.053 A 
HETATM   15  C   UNK N   1      22.219  18.066   3.637  0.00  0.00     0.010 A 
HETATM   16  C   UNK N   1      22.351  19.453   3.519  0.00  0.00     0.037 A 
HETATM   17  C   UNK N   1      21.352  20.197   2.886  0.00  0.00     0.065 A 
HETATM   18  C   UNK N   1      20.217  19.555   2.381  0.00  0.00     0.037 A 
HETATM   19  C   UNK N   1      20.086  18.167   2.497  0.00  0.00     0.010 A 
BRANCH  17  20
HETATM   20  O   UNK N   1      21.486  21.527   2.758  0.00  0.00    -0.361 OA
HETATM   21  H   UNK N   1      22.247  21.891   2.351  0.00  0.00     0.217 HD
ENDBRANCH  17  20
ENDBRANCH  13  14
ENDBRANCH   6  13
BRANCH   6  22
HETATM   22  O   UNK N   1      18.800  15.111   3.759  0.00  0.00    -0.363 OA
HETATM   23  H   UNK N   1      17.830  15.117   3.761  0.00  0.00     0.213 HD
ENDBRANCH   6  22
BRANCH   2  24
HETATM   24  C   UNK N   1      20.261  17.697   7.926  0.00  0.00     0.099 C 
BRANCH  24  25
HETATM   25  C   UNK N   1      19.296  18.023   9.023  0.00  0.00    -0.052 A 
HETATM   26  C   UNK N   1      18.071  17.350   9.092  0.00  0.00     0.007 A 
HETATM   27  C   UNK N   1      17.130  17.701  10.066  0.00  0.00     0.001 A 
HETATM   28  C   UNK N   1      17.410  18.729  10.972  0.00  0.00     0.000 A 
HETATM   29  C   UNK N   1      18.631  19.407  10.903  0.00  0.00     0.001 A 
HETATM   30  C   UNK N   1      19.567  19.062   9.925  0.00  0.00     0.007 A 
ENDBRANCH  24  25
ENDBRANCH   2  24
BRANCH   3  31
HETATM   31  C   UNK N   1      21.652  13.295   9.745  0.00  0.00    -0.008 A 
HETATM   32  C   UNK N   1      20.655  12.812  10.607  0.00  0.00     0.016 A 
HETATM   33  C   UNK N   1      21.003  12.094  11.757  0.00  0.00     0.037 A 
HETATM   34  C   UNK N   1      22.349  11.864  12.057  0.00  0.00     0.065 A 
HETATM   35  C   UNK N   1      23.346  12.332  11.198  0.00  0.00     0.037 A 
HETATM   36  C   UNK N   1      22.999  13.044  10.047  0.00  0.00     0.016 A 
BRANCH  34  37
HETATM   37  O   UNK N   1      22.682  11.199  13.174  0.00  0.00    -0.361 OA
HETATM   38  H   UNK N   1      22.044  10.678  13.621  0.00  0.00     0.217 HD
ENDBRANCH  34  37
ENDBRANCH   3  31
TORSDOF 8
ENDMDL
MODEL 2
REMARK VINA RESULT:      -8.5      8.943     12.408
REMARK  8 active torsions:
REMARK  status: ('A' for Active; 'I' for Inactive)
REMARK    1  A    between atoms: C_17  and  C_14 
REMARK    2  A    between atoms: C_22  and  C_14 
REMARK    3  A    between atoms: C_18  and  C_15 
REMARK    4  A    between atoms: C_26  and  C_15 
REMARK    5  A    between atoms: C_23  and  C_19 
REMARK    6  A    between atoms: O_32  and  C_20 
REMARK    7  A    between atoms: O_33  and  C_21 
REMARK    8  A    between atoms: C_26  and  O_35 
ROOT
HETATM    1  C   UNK N   1      27.796  18.869   6.415  0.00  0.00     0.132 A 
HETATM    2  C   UNK N   1      28.948  16.534   5.449  0.00  0.00     0.059 A 
HETATM    3  C   UNK N   1      27.400  18.335   5.171  0.00  0.00     0.059 A 
HETATM    4  C   UNK N   1      29.295  17.064   6.692  0.00  0.00     0.136 A 
HETATM    5  C   UNK N   1      29.291  18.477   8.324  0.00  0.00     0.285 A 
HETATM    6  C   UNK N   1      30.279  17.397   8.694  0.00  0.00     0.221 A 
HETATM    7  N   UNK N   1      28.002  17.191   4.715  0.00  0.00    -0.354 N 
ATOM      8  HN  UNK N   1      27.736  16.821   3.803  1.00  0.00     0.166 HD
HETATM    9  N   UNK N   1      30.149  16.561   7.505  0.00  0.00    -0.335 N 
ATOM     10  HN  UNK N   1      30.666  15.697   7.343  1.00  0.00     0.164 HD
HETATM   11  N   UNK N   1      28.738  18.197   7.123  0.00  0.00    -0.271 N 
HETATM   12  O   UNK N   1      29.003  19.457   8.994  0.00  0.00    -0.267 OA
ENDROOT
BRANCH   6  13
HETATM   13  C   UNK N   1      31.733  17.862   8.810  0.00  0.00     0.110 C 
BRANCH  13  14
HETATM   14  C   UNK N   1      32.744  17.108   8.005  0.00  0.00    -0.053 A 
HETATM   15  C   UNK N   1      33.250  17.693   6.838  0.00  0.00     0.010 A 
HETATM   16  C   UNK N   1      34.251  17.049   6.104  0.00  0.00     0.037 A 
HETATM   17  C   UNK N   1      34.754  15.820   6.540  0.00  0.00     0.065 A 
HETATM   18  C   UNK N   1      34.248  15.231   7.703  0.00  0.00     0.037 A 
HETATM   19  C   UNK N   1      33.247  15.877   8.438  0.00  0.00     0.010 A 
BRANCH  17  20
HETATM   20  O   UNK N   1      35.727  15.210   5.845  0.00  0.00    -0.361 OA
HETATM   21  H   UNK N   1      36.202  14.496   6.219  0.00  0.00     0.217 HD
ENDBRANCH  17  20
ENDBRANCH  13  14
ENDBRANCH   6  13
BRANCH   6  22
HETATM   22  O   UNK N   1      29.864  16.697   9.829  0.00  0.00    -0.363 OA
HETATM   23  H   UNK N   1      29.432  16.567  10.687  0.00  0.00     0.213 HD
ENDBRANCH   6  22
BRANCH   2  24
HETATM   24  C   UNK N   1      29.649  15.320   4.905  0.00  0.00     0.099 C 
BRANCH  24  25
HETATM   25  C   UNK N   1      30.958  15.582   4.225  0.00  0.00    -0.052 A 
HETATM   26  C   UNK N   1      31.192  16.825   3.627  0.00  0.00     0.007 A 
HETATM   27  C   UNK N   1      32.380  17.053   2.923  0.00  0.00     0.001 A 
HETATM   28  C   UNK N   1      33.334  16.037   2.812  0.00  0.00     0.000 A 
HETATM   29  C   UNK N   1      33.101  14.792   3.404  0.00  0.00     0.001 A 
HETATM   30  C   UNK N   1      31.912  14.562   4.100  0.00  0.00     0.007 A 
ENDBRANCH  24  25
ENDBRANCH   2  24
BRANCH   3  31
HETATM   31  C   UNK N   1      26.296  18.943   4.399  0.00  0.00    -0.008 A 
HETATM   32  C   UNK N   1      26.541  19.986   3.491  0.00  0.00     0.016 A 
HETATM   33  C   UNK N   1      25.478  20.612   2.831  0.00  0.00     0.037 A 
HETATM   34  C   UNK N   1      24.163  20.209   3.082  0.00  0.00     0.065 A 
HETATM   35  C   UNK N   1      23.912  19.165   3.976  0.00  0.00     0.037 A 
HETATM   36  C   UNK N   1      24.973  18.535   4.632  0.00  0.00     0.016 A 
BRANCH  34  37
HETATM   37  O   UNK N   1      23.143  20.828   2.469  0.00  0.00    -0.361 OA
HETATM   38  H   UNK N   1      22.342  20.987   2.929  0.00  0.00     0.217 HD
ENDBRANCH  34  37
ENDBRANCH   3  31
TORSDOF 8
ENDMDL
MODEL 3
REMARK VINA RESULT:      -8.4     16.245     17.960
REMARK  8 active torsions:
REMARK  status: ('A' for Active; 'I' for Inactive)
REMARK    1  A    between atoms: C_17  and  C_14 
REMARK    2  A    between atoms: C_22  and  C_14 
REMARK    3  A    between atoms: C_18  and  C_15 
REMARK    4  A    between atoms: C_26  and  C_15 
REMARK    5  A    between atoms: C_23  and  C_19 
REMARK    6  A    between atoms: O_32  and  C_20 
REMARK    7  A    between atoms: O_33  and  C_21 
REMARK    8  A    between atoms: C_26  and  O_35 
ROOT
HETATM    1  C   UNK N   1      28.309  22.754  -6.454  0.00  0.00     0.132 A 
HETATM    2  C   UNK N   1      26.611  24.563  -5.207  0.00  0.00     0.059 A 
HETATM    3  C   UNK N   1      28.599  23.235  -5.161  0.00  0.00     0.059 A 
HETATM    4  C   UNK N   1      26.329  24.043  -6.471  0.00  0.00     0.136 A 
HETATM    5  C   UNK N   1      26.658  22.893  -8.268  0.00  0.00     0.285 A 
HETATM    6  C   UNK N   1      25.348  23.619  -8.457  0.00  0.00     0.221 A 
HETATM    7  N   UNK N   1      27.749  24.141  -4.581  0.00  0.00    -0.354 N 
ATOM      8  HN  UNK N   1      27.974  24.511  -3.658  1.00  0.00     0.166 HD
HETATM    9  N   UNK N   1      25.299  24.323  -7.180  0.00  0.00    -0.335 N 
ATOM     10  HN  UNK N   1      24.549  24.951  -6.892  1.00  0.00     0.164 HD
HETATM   11  N   UNK N   1      27.173  23.188  -7.054  0.00  0.00    -0.271 N 
HETATM   12  O   UNK N   1      27.190  22.137  -9.066  0.00  0.00    -0.267 OA
ENDROOT
BRANCH   6  13
HETATM   13  C   UNK N   1      25.337  24.651  -9.587  0.00  0.00     0.110 C 
BRANCH  13  14
HETATM   14  C   UNK N   1      26.628  25.355  -9.865  0.00  0.00    -0.053 A 
HETATM   15  C   UNK N   1      27.392  24.954 -10.967  0.00  0.00     0.010 A 
HETATM   16  C   UNK N   1      28.564  25.639 -11.299  0.00  0.00     0.037 A 
HETATM   17  C   UNK N   1      28.972  26.734 -10.532  0.00  0.00     0.065 A 
HETATM   18  C   UNK N   1      28.214  27.135  -9.428  0.00  0.00     0.037 A 
HETATM   19  C   UNK N   1      27.040  26.450  -9.097  0.00  0.00     0.010 A 
BRANCH  17  20
HETATM   20  O   UNK N   1      30.089  27.403 -10.861  0.00  0.00    -0.361 OA
HETATM   21  H   UNK N   1      30.146  27.862 -11.675  0.00  0.00     0.217 HD
ENDBRANCH  17  20
ENDBRANCH  13  14
ENDBRANCH   6  13
BRANCH   6  22
HETATM   22  O   UNK N   1      24.282  22.722  -8.559  0.00  0.00    -0.363 OA
HETATM   23  H   UNK N   1      23.729  21.965  -8.313  0.00  0.00     0.213 HD
ENDBRANCH   6  22
BRANCH   2  24
HETATM   24  C   UNK N   1      25.726  25.610  -4.589  0.00  0.00     0.099 C 
BRANCH  24  25
HETATM   25  C   UNK N   1      26.245  27.013  -4.653  0.00  0.00    -0.052 A 
HETATM   26  C   UNK N   1      25.899  27.926  -3.651  0.00  0.00     0.007 A 
HETATM   27  C   UNK N   1      26.314  29.260  -3.741  0.00  0.00     0.001 A 
HETATM   28  C   UNK N   1      27.074  29.684  -4.836  0.00  0.00     0.000 A 
HETATM   29  C   UNK N   1      27.417  28.775  -5.842  0.00  0.00     0.001 A 
HETATM   30  C   UNK N   1      26.995  27.446  -5.756  0.00  0.00     0.007 A 
ENDBRANCH  24  25
ENDBRANCH   2  24
BRANCH   3  31
HETATM   31  C   UNK N   1      29.754  22.717  -4.397  0.00  0.00    -0.008 A 
HETATM   32  C   UNK N   1      30.399  21.531  -4.782  0.00  0.00     0.016 A 
HETATM   33  C   UNK N   1      31.434  21.004  -4.001  0.00  0.00     0.037 A 
HETATM   34  C   UNK N   1      31.823  21.653  -2.826  0.00  0.00     0.065 A 
HETATM   35  C   UNK N   1      31.193  22.839  -2.441  0.00  0.00     0.037 A 
HETATM   36  C   UNK N   1      30.163  23.369  -3.223  0.00  0.00     0.016 A 
BRANCH  34  37
HETATM   37  O   UNK N   1      32.797  21.132  -2.064  0.00  0.00    -0.361 OA
HETATM   38  H   UNK N   1      33.580  20.803  -2.459  0.00  0.00     0.217 HD
ENDBRANCH  34  37
ENDBRANCH   3  31
TORSDOF 8
ENDMDL
MODEL 4
REMARK VINA RESULT:      -8.1      7.561     10.121
REMARK  8 active torsions:
REMARK  status: ('A' for Active; 'I' for Inactive)
REMARK    1  A    between atoms: C_17  and  C_14 
REMARK    2  A    between atoms: C_22  and  C_14 
REMARK    3  A    between atoms: C_18  and  C_15 
REMARK    4  A    between atoms: C_26  and  C_15 
REMARK    5  A    between atoms: C_23  and  C_19 
REMARK    6  A    between atoms: O_32  and  C_20 
REMARK    7  A    between atoms: O_33  and  C_21 
REMARK    8  A    between atoms: C_26  and  O_35 
ROOT
HETATM    1  C   UNK N   1      26.483  16.526   3.497  0.00  0.00     0.132 A 
HETATM    2  C   UNK N   1      27.512  18.367   5.303  0.00  0.00     0.059 A 
HETATM    3  C   UNK N   1      25.622  17.360   4.239  0.00  0.00     0.059 A 
HETATM    4  C   UNK N   1      28.342  17.555   4.530  0.00  0.00     0.136 A 
HETATM    5  C   UNK N   1      28.853  16.011   3.111  0.00  0.00     0.285 A 
HETATM    6  C   UNK N   1      30.158  16.559   3.637  0.00  0.00     0.221 A 
HETATM    7  N   UNK N   1      26.161  18.245   5.135  0.00  0.00    -0.354 N 
ATOM      8  HN  UNK N   1      25.537  18.828   5.693  1.00  0.00     0.166 HD
HETATM    9  N   UNK N   1      29.623  17.559   4.556  0.00  0.00    -0.335 N 
ATOM     10  HN  UNK N   1      30.190  18.175   5.138  1.00  0.00     0.164 HD
HETATM   11  N   UNK N   1      27.819  16.666   3.682  0.00  0.00    -0.271 N 
HETATM   12  O   UNK N   1      28.722  15.121   2.284  0.00  0.00    -0.267 OA
ENDROOT
BRANCH   6  13
HETATM   13  C   UNK N   1      31.005  15.564   4.434  0.00  0.00     0.110 C 
BRANCH  13  14
HETATM   14  C   UNK N   1      31.607  16.066   5.709  0.00  0.00    -0.053 A 
HETATM   15  C   UNK N   1      31.219  15.475   6.917  0.00  0.00     0.010 A 
HETATM   16  C   UNK N   1      31.817  15.868   8.118  0.00  0.00     0.037 A 
HETATM   17  C   UNK N   1      32.812  16.849   8.112  0.00  0.00     0.065 A 
HETATM   18  C   UNK N   1      33.199  17.444   6.908  0.00  0.00     0.037 A 
HETATM   19  C   UNK N   1      32.601  17.050   5.706  0.00  0.00     0.010 A 
BRANCH  17  20
HETATM   20  O   UNK N   1      33.399  17.214   9.263  0.00  0.00    -0.361 OA
HETATM   21  H   UNK N   1      33.283  16.703  10.039  0.00  0.00     0.217 HD
ENDBRANCH  17  20
ENDBRANCH  13  14
ENDBRANCH   6  13
BRANCH   6  22
HETATM   22  O   UNK N   1      30.895  17.176   2.623  0.00  0.00    -0.363 OA
HETATM   23  H   UNK N   1      31.690  17.470   2.153  0.00  0.00     0.213 HD
ENDBRANCH   6  22
BRANCH   2  24
HETATM   24  C   UNK N   1      28.085  19.292   6.340  0.00  0.00     0.099 C 
BRANCH  24  25
HETATM   25  C   UNK N   1      28.505  18.643   7.623  0.00  0.00    -0.052 A 
HETATM   26  C   UNK N   1      27.766  17.568   8.129  0.00  0.00     0.007 A 
HETATM   27  C   UNK N   1      28.102  17.004   9.365  0.00  0.00     0.001 A 
HETATM   28  C   UNK N   1      29.176  17.517  10.100  0.00  0.00     0.000 A 
HETATM   29  C   UNK N   1      29.913  18.594   9.600  0.00  0.00     0.001 A 
HETATM   30  C   UNK N   1      29.572  19.162   8.369  0.00  0.00     0.007 A 
ENDBRANCH  24  25
ENDBRANCH   2  24
BRANCH   3  31
HETATM   31  C   UNK N   1      24.162  17.348   4.004  0.00  0.00    -0.008 A 
HETATM   32  C   UNK N   1      23.504  16.171   3.614  0.00  0.00     0.016 A 
HETATM   33  C   UNK N   1      22.139  16.193   3.309  0.00  0.00     0.037 A 
HETATM   34  C   UNK N   1      21.424  17.392   3.383  0.00  0.00     0.065 A 
HETATM   35  C   UNK N   1      22.069  18.566   3.782  0.00  0.00     0.037 A 
HETATM   36  C   UNK N   1      23.432  18.544   4.091  0.00  0.00     0.016 A 
BRANCH  34  37
HETATM   37  O   UNK N   1      20.121  17.417   3.066  0.00  0.00    -0.361 OA
HETATM   38  H   UNK N   1      19.658  18.231   3.035  0.00  0.00     0.217 HD
ENDBRANCH  34  37
ENDBRANCH   3  31
TORSDOF 8
ENDMDL
MODEL 5
REMARK VINA RESULT:      -8.0     14.271     18.385
REMARK  8 active torsions:
REMARK  status: ('A' for Active; 'I' for Inactive)
REMARK    1  A    between atoms: C_17  and  C_14 
REMARK    2  A    between atoms: C_22  and  C_14 
REMARK    3  A    between atoms: C_18  and  C_15 
REMARK    4  A    between atoms: C_26  and  C_15 
REMARK    5  A    between atoms: C_23  and  C_19 
REMARK    6  A    between atoms: O_32  and  C_20 
REMARK    7  A    between atoms: O_33  and  C_21 
REMARK    8  A    between atoms: C_26  and  O_35 
ROOT
HETATM    1  C   UNK N   1      37.649  12.558  10.911  0.00  0.00     0.132 A 
HETATM    2  C   UNK N   1      36.303  14.987  10.944  0.00  0.00     0.059 A 
HETATM    3  C   UNK N   1      37.475  13.297   9.723  0.00  0.00     0.059 A 
HETATM    4  C   UNK N   1      36.521  14.253  12.109  0.00  0.00     0.136 A 
HETATM    5  C   UNK N   1      37.183  12.594  13.322  0.00  0.00     0.285 A 
HETATM    6  C   UNK N   1      36.517  13.572  14.260  0.00  0.00     0.221 A 
HETATM    7  N   UNK N   1      36.790  14.483   9.770  0.00  0.00    -0.354 N 
ATOM      8  HN  UNK N   1      36.639  15.004   8.906  1.00  0.00     0.166 HD
HETATM    9  N   UNK N   1      36.144  14.593  13.287  0.00  0.00    -0.335 N 
ATOM     10  HN  UNK N   1      35.652  15.458  13.511  1.00  0.00     0.164 HD
HETATM   11  N   UNK N   1      37.155  13.079  12.062  0.00  0.00    -0.271 N 
HETATM   12  O   UNK N   1      37.690  11.526  13.629  0.00  0.00    -0.267 OA
ENDROOT
BRANCH   6  13
HETATM   13  C   UNK N   1      35.246  13.055  14.939  0.00  0.00     0.110 C 
BRANCH  13  14
HETATM   14  C   UNK N   1      35.366  12.664  16.378  0.00  0.00    -0.053 A 
HETATM   15  C   UNK N   1      35.096  13.621  17.363  0.00  0.00     0.010 A 
HETATM   16  C   UNK N   1      35.125  13.269  18.715  0.00  0.00     0.037 A 
HETATM   17  C   UNK N   1      35.419  11.954  19.087  0.00  0.00     0.065 A 
HETATM   18  C   UNK N   1      35.694  10.996  18.106  0.00  0.00     0.037 A 
HETATM   19  C   UNK N   1      35.663  11.349  16.752  0.00  0.00     0.010 A 
BRANCH  17  20
HETATM   20  O   UNK N   1      35.430  11.611  20.385  0.00  0.00    -0.361 OA
HETATM   21  H   UNK N   1      36.076  11.018  20.714  0.00  0.00     0.217 HD
ENDBRANCH  17  20
ENDBRANCH  13  14
ENDBRANCH   6  13
BRANCH   6  22
HETATM   22  O   UNK N   1      37.428  14.090  15.183  0.00  0.00    -0.363 OA
HETATM   23  H   UNK N   1      37.751  14.376  16.051  0.00  0.00     0.213 HD
ENDBRANCH   6  22
BRANCH   2  24
HETATM   24  C   UNK N   1      35.493  16.253  10.969  0.00  0.00     0.099 C 
BRANCH  24  25
HETATM   25  C   UNK N   1      34.560  16.446   9.813  0.00  0.00    -0.052 A 
HETATM   26  C   UNK N   1      34.692  17.576   8.998  0.00  0.00     0.007 A 
HETATM   27  C   UNK N   1      33.778  17.806   7.963  0.00  0.00     0.001 A 
HETATM   28  C   UNK N   1      32.728  16.908   7.744  0.00  0.00     0.000 A 
HETATM   29  C   UNK N   1      32.591  15.781   8.560  0.00  0.00     0.001 A 
HETATM   30  C   UNK N   1      33.498  15.556   9.598  0.00  0.00     0.007 A 
ENDBRANCH  24  25
ENDBRANCH   2  24
BRANCH   3  31
HETATM   31  C   UNK N   1      38.087  12.852   8.453  0.00  0.00    -0.008 A 
HETATM   32  C   UNK N   1      39.131  11.914   8.446  0.00  0.00     0.016 A 
HETATM   33  C   UNK N   1      39.762  11.567   7.246  0.00  0.00     0.037 A 
HETATM   34  C   UNK N   1      39.361  12.163   6.047  0.00  0.00     0.065 A 
HETATM   35  C   UNK N   1      38.315  13.090   6.044  0.00  0.00     0.037 A 
HETATM   36  C   UNK N   1      37.682  13.433   7.241  0.00  0.00     0.016 A 
BRANCH  34  37
HETATM   37  O   UNK N   1      39.984  11.850   4.901  0.00  0.00    -0.361 OA
HETATM   38  H   UNK N   1      40.848  11.486   4.918  0.00  0.00     0.217 HD
ENDBRANCH  34  37
ENDBRANCH   3  31
TORSDOF 8
ENDMDL
MODEL 6
REMARK VINA RESULT:      -8.0      6.351      8.912
REMARK  8 active torsions:
REMARK  status: ('A' for Active; 'I' for Inactive)
REMARK    1  A    between atoms: C_17  and  C_14 
REMARK    2  A    between atoms: C_22  and  C_14 
REMARK    3  A    between atoms: C_18  and  C_15 
REMARK    4  A    between atoms: C_26  and  C_15 
REMARK    5  A    between atoms: C_23  and  C_19 
REMARK    6  A    between atoms: O_32  and  C_20 
REMARK    7  A    between atoms: O_33  and  C_21 
REMARK    8  A    between atoms: C_26  and  O_35 
ROOT
HETATM    1  C   UNK N   1      28.321  18.429   5.253  0.00  0.00     0.132 A 
HETATM    2  C   UNK N   1      27.454  16.647   3.308  0.00  0.00     0.059 A 
HETATM    3  C   UNK N   1      29.185  17.431   4.760  0.00  0.00     0.059 A 
HETATM    4  C   UNK N   1      26.632  17.667   3.787  0.00  0.00     0.136 A 
HETATM    5  C   UNK N   1      26.053  19.343   5.018  0.00  0.00     0.285 A 
HETATM    6  C   UNK N   1      24.865  19.023   4.143  0.00  0.00     0.221 A 
HETATM    7  N   UNK N   1      28.720  16.556   3.813  0.00  0.00    -0.354 N 
ATOM      8  HN  UNK N   1      29.336  15.815   3.477  1.00  0.00     0.166 HD
HETATM    9  N   UNK N   1      25.430  17.898   3.406  0.00  0.00    -0.335 N 
ATOM     10  HN  UNK N   1      24.937  17.367   2.688  1.00  0.00     0.164 HD
HETATM   11  N   UNK N   1      27.069  18.498   4.736  0.00  0.00    -0.271 N 
HETATM   12  O   UNK N   1      26.119  20.232   5.853  0.00  0.00    -0.267 OA
ENDROOT
BRANCH   6  13
HETATM   13  C   UNK N   1      23.619  18.544   4.892  0.00  0.00     0.110 C 
BRANCH  13  14
HETATM   14  C   UNK N   1      22.406  18.260   4.062  0.00  0.00    -0.053 A 
HETATM   15  C   UNK N   1      21.550  19.318   3.735  0.00  0.00     0.010 A 
HETATM   16  C   UNK N   1      20.450  19.102   2.900  0.00  0.00     0.037 A 
HETATM   17  C   UNK N   1      20.207  17.827   2.383  0.00  0.00     0.065 A 
HETATM   18  C   UNK N   1      21.058  16.767   2.711  0.00  0.00     0.037 A 
HETATM   19  C   UNK N   1      22.160  16.983   3.546  0.00  0.00     0.010 A 
BRANCH  17  20
HETATM   20  O   UNK N   1      19.161  17.623   1.567  0.00  0.00    -0.361 OA
HETATM   21  H   UNK N   1      19.270  17.158   0.761  0.00  0.00     0.217 HD
ENDBRANCH  17  20
ENDBRANCH  13  14
ENDBRANCH   6  13
BRANCH   6  22
HETATM   22  O   UNK N   1      24.578  20.078   3.273  0.00  0.00    -0.363 OA
HETATM   23  H   UNK N   1      24.720  20.924   2.822  0.00  0.00     0.213 HD
ENDBRANCH   6  22
BRANCH   2  24
HETATM   24  C   UNK N   1      26.936  15.637   2.322  0.00  0.00     0.099 C 
BRANCH  24  25
HETATM   25  C   UNK N   1      25.790  14.799   2.798  0.00  0.00    -0.052 A 
HETATM   26  C   UNK N   1      24.708  14.555   1.945  0.00  0.00     0.007 A 
HETATM   27  C   UNK N   1      23.598  13.839   2.406  0.00  0.00     0.001 A 
HETATM   28  C   UNK N   1      23.564  13.369   3.722  0.00  0.00     0.000 A 
HETATM   29  C   UNK N   1      24.641  13.616   4.579  0.00  0.00     0.001 A 
HETATM   30  C   UNK N   1      25.746  14.338   4.122  0.00  0.00     0.007 A 
ENDBRANCH  24  25
ENDBRANCH   2  24
BRANCH   3  31
HETATM   31  C   UNK N   1      30.599  17.368   5.188  0.00  0.00    -0.008 A 
HETATM   32  C   UNK N   1      30.936  17.191   6.539  0.00  0.00     0.016 A 
HETATM   33  C   UNK N   1      32.275  17.222   6.943  0.00  0.00     0.037 A 
HETATM   34  C   UNK N   1      33.285  17.440   6.002  0.00  0.00     0.065 A 
HETATM   35  C   UNK N   1      32.959  17.606   4.653  0.00  0.00     0.037 A 
HETATM   36  C   UNK N   1      31.622  17.571   4.248  0.00  0.00     0.016 A 
BRANCH  34  37
HETATM   37  O   UNK N   1      34.567  17.496   6.395  0.00  0.00    -0.361 OA
HETATM   38  H   UNK N   1      35.029  18.311   6.382  0.00  0.00     0.217 HD
ENDBRANCH  34  37
ENDBRANCH   3  31
TORSDOF 8
ENDMDL
MODEL 7
REMARK VINA RESULT:      -7.9     16.602     18.457
REMARK  8 active torsions:
REMARK  status: ('A' for Active; 'I' for Inactive)
REMARK    1  A    between atoms: C_17  and  C_14 
REMARK    2  A    between atoms: C_22  and  C_14 
REMARK    3  A    between atoms: C_18  and  C_15 
REMARK    4  A    between atoms: C_26  and  C_15 
REMARK    5  A    between atoms: C_23  and  C_19 
REMARK    6  A    between atoms: O_32  and  C_20 
REMARK    7  A    between atoms: O_33  and  C_21 
REMARK    8  A    between atoms: C_26  and  O_35 
ROOT
HETATM    1  C   UNK N   1      27.400  22.026  -8.089  0.00  0.00     0.132 A 
HETATM    2  C   UNK N   1      29.066  23.244  -6.230  0.00  0.00     0.059 A 
HETATM    3  C   UNK N   1      28.699  21.529  -7.856  0.00  0.00     0.059 A 
HETATM    4  C   UNK N   1      27.765  23.693  -6.454  0.00  0.00     0.136 A 
HETATM    5  C   UNK N   1      25.818  23.768  -7.384  0.00  0.00     0.285 A 
HETATM    6  C   UNK N   1      25.849  24.880  -6.363  0.00  0.00     0.221 A 
HETATM    7  N   UNK N   1      29.502  22.165  -6.945  0.00  0.00    -0.354 N 
ATOM      8  HN  UNK N   1      30.452  21.822  -6.797  1.00  0.00     0.166 HD
HETATM    9  N   UNK N   1      27.201  24.677  -5.856  0.00  0.00    -0.335 N 
ATOM     10  HN  UNK N   1      27.639  25.241  -5.127  1.00  0.00     0.164 HD
HETATM   11  N   UNK N   1      26.992  23.099  -7.366  0.00  0.00    -0.271 N 
HETATM   12  O   UNK N   1      24.884  23.483  -8.118  0.00  0.00    -0.267 OA
ENDROOT
BRANCH   6  13
HETATM   13  C   UNK N   1      25.748  26.293  -6.942  0.00  0.00     0.110 C 
BRANCH  13  14
HETATM   14  C   UNK N   1      26.231  27.410  -6.071  0.00  0.00    -0.053 A 
HETATM   15  C   UNK N   1      27.308  28.190  -6.509  0.00  0.00     0.010 A 
HETATM   16  C   UNK N   1      27.735  29.288  -5.756  0.00  0.00     0.037 A 
HETATM   17  C   UNK N   1      27.080  29.613  -4.565  0.00  0.00     0.065 A 
HETATM   18  C   UNK N   1      26.006  28.834  -4.122  0.00  0.00     0.037 A 
HETATM   19  C   UNK N   1      25.578  27.736  -4.877  0.00  0.00     0.010 A 
BRANCH  17  20
HETATM   20  O   UNK N   1      27.479  30.677  -3.850  0.00  0.00    -0.361 OA
HETATM   21  H   UNK N   1      26.893  31.391  -3.693  0.00  0.00     0.217 HD
ENDBRANCH  17  20
ENDBRANCH  13  14
ENDBRANCH   6  13
BRANCH   6  22
HETATM   22  O   UNK N   1      24.912  24.664  -5.350  0.00  0.00    -0.363 OA
HETATM   23  H   UNK N   1      24.575  24.323  -4.507  0.00  0.00     0.213 HD
ENDBRANCH   6  22
BRANCH   2  24
HETATM   24  C   UNK N   1      29.982  23.973  -5.286  0.00  0.00     0.099 C 
BRANCH  24  25
HETATM   25  C   UNK N   1      31.019  23.128  -4.612  0.00  0.00    -0.052 A 
HETATM   26  C   UNK N   1      32.331  23.122  -5.098  0.00  0.00     0.007 A 
HETATM   27  C   UNK N   1      33.288  22.278  -4.524  0.00  0.00     0.001 A 
HETATM   28  C   UNK N   1      32.935  21.436  -3.465  0.00  0.00     0.000 A 
HETATM   29  C   UNK N   1      31.624  21.435  -2.981  0.00  0.00     0.001 A 
HETATM   30  C   UNK N   1      30.666  22.272  -3.559  0.00  0.00     0.007 A 
ENDBRANCH  24  25
ENDBRANCH   2  24
BRANCH   3  31
HETATM   31  C   UNK N   1      29.171  20.294  -8.516  0.00  0.00    -0.008 A 
HETATM   32  C   UNK N   1      29.542  19.170  -7.761  0.00  0.00     0.016 A 
HETATM   33  C   UNK N   1      30.070  18.038  -8.392  0.00  0.00     0.037 A 
HETATM   34  C   UNK N   1      30.240  18.026  -9.779  0.00  0.00     0.065 A 
HETATM   35  C   UNK N   1      29.864  19.136 -10.539  0.00  0.00     0.037 A 
HETATM   36  C   UNK N   1      29.332  20.265  -9.911  0.00  0.00     0.016 A 
BRANCH  34  37
HETATM   37  O   UNK N   1      30.772  16.950 -10.380  0.00  0.00    -0.361 OA
HETATM   38  H   UNK N   1      31.351  16.384  -9.909  0.00  0.00     0.217 HD
ENDBRANCH  34  37
ENDBRANCH   3  31
TORSDOF 8
ENDMDL
MODEL 8
REMARK VINA RESULT:      -7.8      3.258      9.376
REMARK  8 active torsions:
REMARK  status: ('A' for Active; 'I' for Inactive)
REMARK    1  A    between atoms: C_17  and  C_14 
REMARK    2  A    between atoms: C_22  and  C_14 
REMARK    3  A    between atoms: C_18  and  C_15 
REMARK    4  A    between atoms: C_26  and  C_15 
REMARK    5  A    between atoms: C_23  and  C_19 
REMARK    6  A    between atoms: O_32  and  C_20 
REMARK    7  A    between atoms: O_33  and  C_21 
REMARK    8  A    between atoms: C_26  and  O_35 
ROOT
HETATM    1  C   UNK N   1      21.362  16.647   4.724  0.00  0.00     0.132 A 
HETATM    2  C   UNK N   1      20.658  14.531   3.069  0.00  0.00     0.059 A 
HETATM    3  C   UNK N   1      20.981  16.879   3.386  0.00  0.00     0.059 A 
HETATM    4  C   UNK N   1      21.003  14.333   4.406  0.00  0.00     0.136 A 
HETATM    5  C   UNK N   1      21.666  14.868   6.390  0.00  0.00     0.285 A 
HETATM    6  C   UNK N   1      21.469  13.371   6.392  0.00  0.00     0.221 A 
HETATM    7  N   UNK N   1      20.657  15.811   2.591  0.00  0.00    -0.354 N 
ATOM      8  HN  UNK N   1      20.410  15.976   1.615  1.00  0.00     0.166 HD
HETATM    9  N   UNK N   1      21.037  13.202   5.009  0.00  0.00    -0.335 N 
ATOM     10  HN  UNK N   1      20.794  12.309   4.580  1.00  0.00     0.164 HD
HETATM   11  N   UNK N   1      21.355  15.367   5.173  0.00  0.00    -0.271 N 
HETATM   12  O   UNK N   1      22.036  15.552   7.332  0.00  0.00    -0.267 OA
ENDROOT
BRANCH   6  13
HETATM   13  C   UNK N   1      22.743  12.550   6.610  0.00  0.00     0.110 C 
BRANCH  13  14
HETATM   14  C   UNK N   1      23.317  12.559   7.992  0.00  0.00    -0.053 A 
HETATM   15  C   UNK N   1      22.714  11.769   8.978  0.00  0.00     0.010 A 
HETATM   16  C   UNK N   1      23.270  11.695  10.259  0.00  0.00     0.037 A 
HETATM   17  C   UNK N   1      24.436  12.406  10.555  0.00  0.00     0.065 A 
HETATM   18  C   UNK N   1      25.038  13.199   9.574  0.00  0.00     0.037 A 
HETATM   19  C   UNK N   1      24.483  13.272   8.291  0.00  0.00     0.010 A 
BRANCH  17  20
HETATM   20  O   UNK N   1      24.979  12.322  11.780  0.00  0.00    -0.361 OA
HETATM   21  H   UNK N   1      24.482  12.559  12.537  0.00  0.00     0.217 HD
ENDBRANCH  17  20
ENDBRANCH  13  14
ENDBRANCH   6  13
BRANCH   6  22
HETATM   22  O   UNK N   1      20.450  12.995   7.269  0.00  0.00    -0.363 OA
HETATM   23  H   UNK N   1      19.626  12.564   7.546  0.00  0.00     0.213 HD
ENDBRANCH   6  22
BRANCH   2  24
HETATM   24  C   UNK N   1      20.369  13.364   2.166  0.00  0.00     0.099 C 
BRANCH  24  25
HETATM   25  C   UNK N   1      21.498  12.939   1.279  0.00  0.00    -0.052 A 
HETATM   26  C   UNK N   1      21.601  11.601   0.881  0.00  0.00     0.007 A 
HETATM   27  C   UNK N   1      22.694  11.178   0.117  0.00  0.00     0.001 A 
HETATM   28  C   UNK N   1      23.688  12.090  -0.249  0.00  0.00     0.000 A 
HETATM   29  C   UNK N   1      23.591  13.426   0.151  0.00  0.00     0.001 A 
HETATM   30  C   UNK N   1      22.504  13.847   0.922  0.00  0.00     0.007 A 
ENDBRANCH  24  25
ENDBRANCH   2  24
BRANCH   3  31
HETATM   31  C   UNK N   1      20.850  18.254   2.860  0.00  0.00    -0.008 A 
HETATM   32  C   UNK N   1      20.550  18.482   1.507  0.00  0.00     0.016 A 
HETATM   33  C   UNK N   1      20.515  19.786   1.001  0.00  0.00     0.037 A 
HETATM   34  C   UNK N   1      20.789  20.870   1.841  0.00  0.00     0.065 A 
HETATM   35  C   UNK N   1      21.077  20.652   3.191  0.00  0.00     0.037 A 
HETATM   36  C   UNK N   1      21.108  19.350   3.698  0.00  0.00     0.016 A 
BRANCH  34  37
HETATM   37  O   UNK N   1      20.781  22.118   1.349  0.00  0.00    -0.361 OA
HETATM   38  H   UNK N   1      20.196  22.760   1.700  0.00  0.00     0.217 HD
ENDBRANCH  34  37
ENDBRANCH   3  31
TORSDOF 8
ENDMDL
MODEL 9
REMARK VINA RESULT:      -7.8     14.125     16.139
REMARK  8 active torsions:
REMARK  status: ('A' for Active; 'I' for Inactive)
REMARK    1  A    between atoms: C_17  and  C_14 
REMARK    2  A    between atoms: C_22  and  C_14 
REMARK    3  A    between atoms: C_18  and  C_15 
REMARK    4  A    between atoms: C_26  and  C_15 
REMARK    5  A    between atoms: C_23  and  C_19 
REMARK    6  A    between atoms: O_32  and  C_20 
REMARK    7  A    between atoms: O_33  and  C_21 
REMARK    8  A    between atoms: C_26  and  O_35 
ROOT
HETATM    1  C   UNK N   1      34.915  10.650  11.446  0.00  0.00     0.132 A 
HETATM    2  C   UNK N   1      35.917  12.085  13.603  0.00  0.00     0.059 A 
HETATM    3  C   UNK N   1      35.441   9.980  12.570  0.00  0.00     0.059 A 
HETATM    4  C   UNK N   1      35.359  12.720  12.494  0.00  0.00     0.136 A 
HETATM    5  C   UNK N   1      34.460  12.886  10.538  0.00  0.00     0.285 A 
HETATM    6  C   UNK N   1      34.639  14.296  11.048  0.00  0.00     0.221 A 
HETATM    7  N   UNK N   1      35.944  10.719  13.610  0.00  0.00    -0.354 N 
ATOM      8  HN  UNK N   1      36.351  10.235  14.411  1.00  0.00     0.166 HD
HETATM    9  N   UNK N   1      35.243  13.988  12.341  0.00  0.00    -0.335 N 
ATOM     10  HN  UNK N   1      35.533  14.684  13.027  1.00  0.00     0.164 HD
HETATM   11  N   UNK N   1      34.901  12.006  11.464  0.00  0.00    -0.271 N 
HETATM   12  O   UNK N   1      33.980  12.560   9.463  0.00  0.00    -0.267 OA
ENDROOT
BRANCH   6  13
HETATM   13  C   UNK N   1      35.616  15.157  10.243  0.00  0.00     0.110 C 
BRANCH  13  14
HETATM   14  C   UNK N   1      35.057  15.871   9.054  0.00  0.00    -0.053 A 
HETATM   15  C   UNK N   1      34.675  17.211   9.190  0.00  0.00     0.010 A 
HETATM   16  C   UNK N   1      34.220  17.930   8.081  0.00  0.00     0.037 A 
HETATM   17  C   UNK N   1      34.152  17.312   6.829  0.00  0.00     0.065 A 
HETATM   18  C   UNK N   1      34.529  15.972   6.691  0.00  0.00     0.037 A 
HETATM   19  C   UNK N   1      34.986  15.253   7.801  0.00  0.00     0.010 A 
BRANCH  17  20
HETATM   20  O   UNK N   1      33.731  18.007   5.761  0.00  0.00    -0.361 OA
HETATM   21  H   UNK N   1      34.347  18.352   5.145  0.00  0.00     0.217 HD
ENDBRANCH  17  20
ENDBRANCH  13  14
ENDBRANCH   6  13
BRANCH   6  22
HETATM   22  O   UNK N   1      33.408  14.931  11.226  0.00  0.00    -0.363 OA
HETATM   23  H   UNK N   1      32.690  15.552  11.030  0.00  0.00     0.213 HD
ENDBRANCH   6  22
BRANCH   2  24
HETATM   24  C   UNK N   1      36.536  12.880  14.718  0.00  0.00     0.099 C 
BRANCH  24  25
HETATM   25  C   UNK N   1      36.016  12.582  16.090  0.00  0.00    -0.052 A 
HETATM   26  C   UNK N   1      35.531  13.623  16.889  0.00  0.00     0.007 A 
HETATM   27  C   UNK N   1      35.115  13.367  18.201  0.00  0.00     0.001 A 
HETATM   28  C   UNK N   1      35.186  12.070  18.717  0.00  0.00     0.000 A 
HETATM   29  C   UNK N   1      35.675  11.028  17.924  0.00  0.00     0.001 A 
HETATM   30  C   UNK N   1      36.098  11.285  16.617  0.00  0.00     0.007 A 
ENDBRANCH  24  25
ENDBRANCH   2  24
BRANCH   3  31
HETATM   31  C   UNK N   1      35.382   8.507  12.676  0.00  0.00    -0.008 A 
HETATM   32  C   UNK N   1      34.701   7.743  11.715  0.00  0.00     0.016 A 
HETATM   33  C   UNK N   1      34.577   6.358  11.873  0.00  0.00     0.037 A 
HETATM   34  C   UNK N   1      35.123   5.730  12.996  0.00  0.00     0.065 A 
HETATM   35  C   UNK N   1      35.811   6.482  13.951  0.00  0.00     0.037 A 
HETATM   36  C   UNK N   1      35.940   7.864  13.792  0.00  0.00     0.016 A 
BRANCH  34  37
HETATM   37  O   UNK N   1      34.980   4.406  13.159  0.00  0.00    -0.361 OA
HETATM   38  H   UNK N   1      34.634   4.064  13.960  0.00  0.00     0.217 HD
ENDBRANCH  34  37
ENDBRANCH   3  31
TORSDOF 8
ENDMDL
