MODEL 1
REMARK VINA RESULT:      -4.4      0.000      0.000
REMARK  5 active torsions:
REMARK  status: ('A' for Active; 'I' for Inactive)
REMARK    1  A    between atoms: N_1  and  C_2 
REMARK    2  A    between atoms: C_2  and  C_3 
REMARK    3  A    between atoms: C_2  and  C_6 
REMARK    4  A    between atoms: C_3  and  O_4 
REMARK    5  A    between atoms: C_6  and  O_7 
ROOT
HETATM    1  C   UNK N   1      34.092  17.258   9.101  0.00  0.00     0.272 C 
ENDROOT
BRANCH   1   2
HETATM    2  N   UNK N   1      32.731  16.775   8.919  0.00  0.00    -0.409 N 
HETATM    3  H   UNK N   1      32.532  15.776   8.982  0.00  0.00     0.151 HD
HETATM    4  H   UNK N   1      31.977  17.434   8.728  0.00  0.00     0.151 HD
ENDBRANCH   1   2
BRANCH   1   5
HETATM    5  C   UNK N   1      34.624  18.256   8.117  0.00  0.00     0.173 C 
HETATM    6  O   UNK N   1      34.409  18.118   6.922  0.00  0.00    -0.648 OA
BRANCH   5   7
HETATM    7  O   UNK N   1      35.343  19.310   8.543  0.00  0.00    -0.774 OA
HETATM    8  H   UNK N   1      35.592  19.982   7.938  0.00  0.00     0.167 HD
ENDBRANCH   5   7
ENDBRANCH   1   5
BRANCH   1   9
HETATM    9  C   UNK N   1      34.881  16.728  10.263  0.00  0.00     0.173 C 
HETATM   10  O   UNK N   1      35.974  17.202  10.530  0.00  0.00    -0.648 OA
BRANCH   9  11
HETATM   11  O   UNK N   1      34.389  15.728  11.016  0.00  0.00    -0.774 OA
HETATM   12  H   UNK N   1      33.574  15.326  10.787  0.00  0.00     0.167 HD
ENDBRANCH   9  11
ENDBRANCH   1   9
TORSDOF 5
ENDMDL
MODEL 2
REMARK VINA RESULT:      -4.4      0.108      3.280
REMARK  5 active torsions:
REMARK  status: ('A' for Active; 'I' for Inactive)
REMARK    1  A    between atoms: N_1  and  C_2 
REMARK    2  A    between atoms: C_2  and  C_3 
REMARK    3  A    between atoms: C_2  and  C_6 
REMARK    4  A    between atoms: C_3  and  O_4 
REMARK    5  A    between atoms: C_6  and  O_7 
ROOT
HETATM    1  C   UNK N   1      34.126  17.248   9.144  0.00  0.00     0.272 C 
ENDROOT
BRANCH   1   2
HETATM    2  N   UNK N   1      32.736  16.839   9.004  0.00  0.00    -0.409 N 
HETATM    3  H   UNK N   1      32.511  15.928   8.603  0.00  0.00     0.151 HD
HETATM    4  H   UNK N   1      31.988  17.462   9.306  0.00  0.00     0.151 HD
ENDBRANCH   1   2
BRANCH   1   5
HETATM    5  C   UNK N   1      34.930  16.649  10.259  0.00  0.00     0.173 C 
HETATM    6  O   UNK N   1      36.079  17.014  10.454  0.00  0.00    -0.648 OA
BRANCH   5   7
HETATM    7  O   UNK N   1      34.390  15.705  11.051  0.00  0.00    -0.774 OA
HETATM    8  H   UNK N   1      34.437  15.795  11.983  0.00  0.00     0.167 HD
ENDBRANCH   5   7
ENDBRANCH   1   5
BRANCH   1   9
HETATM    9  C   UNK N   1      34.672  18.246   8.164  0.00  0.00     0.173 C 
HETATM   10  O   UNK N   1      34.482  18.097   6.967  0.00  0.00    -0.648 OA
BRANCH   9  11
HETATM   11  O   UNK N   1      35.373  19.308   8.599  0.00  0.00    -0.774 OA
HETATM   12  H   UNK N   1      35.279  19.601   9.484  0.00  0.00     0.167 HD
ENDBRANCH   9  11
ENDBRANCH   1   9
TORSDOF 5
ENDMDL
MODEL 3
REMARK VINA RESULT:      -4.2     15.393     16.201
REMARK  5 active torsions:
REMARK  status: ('A' for Active; 'I' for Inactive)
REMARK    1  A    between atoms: N_1  and  C_2 
REMARK    2  A    between atoms: C_2  and  C_3 
REMARK    3  A    between atoms: C_2  and  C_6 
REMARK    4  A    between atoms: C_3  and  O_4 
REMARK    5  A    between atoms: C_6  and  O_7 
ROOT
HETATM    1  C   UNK N   1      20.095  19.598   2.168  0.00  0.00     0.272 C 
ENDROOT
BRANCH   1   2
HETATM    2  N   UNK N   1      18.936  18.769   2.465  0.00  0.00    -0.409 N 
HETATM    3  H   UNK N   1      18.200  18.653   1.768  0.00  0.00     0.151 HD
HETATM    4  H   UNK N   1      18.859  18.305   3.369  0.00  0.00     0.151 HD
ENDBRANCH   1   2
BRANCH   1   5
HETATM    5  C   UNK N   1      20.721  20.366   3.295  0.00  0.00     0.173 C 
HETATM    6  O   UNK N   1      20.708  19.912   4.430  0.00  0.00    -0.648 OA
BRANCH   5   7
HETATM    7  O   UNK N   1      21.300  21.557   3.064  0.00  0.00    -0.774 OA
HETATM    8  H   UNK N   1      22.061  21.609   2.520  0.00  0.00     0.167 HD
ENDBRANCH   5   7
ENDBRANCH   1   5
BRANCH   1   9
HETATM    9  C   UNK N   1      20.594  19.636   0.754  0.00  0.00     0.173 C 
HETATM   10  O   UNK N   1      21.200  20.613   0.342  0.00  0.00    -0.648 OA
BRANCH   9  11
HETATM   11  O   UNK N   1      20.377  18.594  -0.069  0.00  0.00    -0.774 OA
HETATM   12  H   UNK N   1      21.036  17.935  -0.175  0.00  0.00     0.167 HD
ENDBRANCH   9  11
ENDBRANCH   1   9
TORSDOF 5
ENDMDL
MODEL 4
REMARK VINA RESULT:      -4.2     15.147     15.997
REMARK  5 active torsions:
REMARK  status: ('A' for Active; 'I' for Inactive)
REMARK    1  A    between atoms: N_1  and  C_2 
REMARK    2  A    between atoms: C_2  and  C_3 
REMARK    3  A    between atoms: C_2  and  C_6 
REMARK    4  A    between atoms: C_3  and  O_4 
REMARK    5  A    between atoms: C_6  and  O_7 
ROOT
HETATM    1  C   UNK N   1      20.704  20.022   1.468  0.00  0.00     0.272 C 
ENDROOT
BRANCH   1   2
HETATM    2  N   UNK N   1      20.513  20.891   0.317  0.00  0.00    -0.409 N 
HETATM    3  H   UNK N   1      21.237  20.955  -0.399  0.00  0.00     0.151 HD
HETATM    4  H   UNK N   1      19.656  21.436   0.226  0.00  0.00     0.151 HD
ENDBRANCH   1   2
BRANCH   1   5
HETATM    5  C   UNK N   1      20.419  18.559   1.303  0.00  0.00     0.173 C 
HETATM    6  O   UNK N   1      20.231  17.854   2.284  0.00  0.00    -0.648 OA
BRANCH   5   7
HETATM    7  O   UNK N   1      20.367  18.012   0.075  0.00  0.00    -0.774 OA
HETATM    8  H   UNK N   1      20.055  17.136  -0.034  0.00  0.00     0.167 HD
ENDBRANCH   5   7
ENDBRANCH   1   5
BRANCH   1   9
HETATM    9  C   UNK N   1      21.175  20.641   2.752  0.00  0.00     0.173 C 
HETATM   10  O   UNK N   1      22.194  21.314   2.771  0.00  0.00    -0.648 OA
BRANCH   9  11
HETATM   11  O   UNK N   1      20.478  20.457   3.888  0.00  0.00    -0.774 OA
HETATM   12  H   UNK N   1      19.892  19.730   3.966  0.00  0.00     0.167 HD
ENDBRANCH   9  11
ENDBRANCH   1   9
TORSDOF 5
ENDMDL
MODEL 5
REMARK VINA RESULT:      -4.2      2.698      3.771
REMARK  5 active torsions:
REMARK  status: ('A' for Active; 'I' for Inactive)
REMARK    1  A    between atoms: N_1  and  C_2 
REMARK    2  A    between atoms: C_2  and  C_3 
REMARK    3  A    between atoms: C_2  and  C_6 
REMARK    4  A    between atoms: C_3  and  O_4 
REMARK    5  A    between atoms: C_6  and  O_7 
ROOT
HETATM    1  C   UNK N   1      35.061  15.142  11.492  0.00  0.00     0.272 C 
ENDROOT
BRANCH   1   2
HETATM    2  N   UNK N   1      33.693  15.023  11.011  0.00  0.00    -0.409 N 
HETATM    3  H   UNK N   1      32.976  15.665  11.350  0.00  0.00     0.151 HD
HETATM    4  H   UNK N   1      33.451  14.300  10.335  0.00  0.00     0.151 HD
ENDBRANCH   1   2
BRANCH   1   5
HETATM    5  C   UNK N   1      35.940  16.186  10.870  0.00  0.00     0.173 C 
HETATM    6  O   UNK N   1      35.465  17.250  10.502  0.00  0.00    -0.648 OA
BRANCH   5   7
HETATM    7  O   UNK N   1      37.256  15.958  10.714  0.00  0.00    -0.774 OA
HETATM    8  H   UNK N   1      37.553  15.365  10.052  0.00  0.00     0.167 HD
ENDBRANCH   5   7
ENDBRANCH   1   5
BRANCH   1   9
HETATM    9  C   UNK N   1      35.511  14.212  12.581  0.00  0.00     0.173 C 
HETATM   10  O   UNK N   1      34.709  13.467  13.122  0.00  0.00    -0.648 OA
BRANCH   9  11
HETATM   11  O   UNK N   1      36.799  14.195  12.968  0.00  0.00    -0.774 OA
HETATM   12  H   UNK N   1      37.460  13.882  12.382  0.00  0.00     0.167 HD
ENDBRANCH   9  11
ENDBRANCH   1   9
TORSDOF 5
ENDMDL
MODEL 6
REMARK VINA RESULT:      -4.1      1.682      3.239
REMARK  5 active torsions:
REMARK  status: ('A' for Active; 'I' for Inactive)
REMARK    1  A    between atoms: N_1  and  C_2 
REMARK    2  A    between atoms: C_2  and  C_3 
REMARK    3  A    between atoms: C_2  and  C_6 
REMARK    4  A    between atoms: C_3  and  O_4 
REMARK    5  A    between atoms: C_6  and  O_7 
ROOT
HETATM    1  C   UNK N   1      34.273  17.180   9.131  0.00  0.00     0.272 C 
ENDROOT
BRANCH   1   2
HETATM    2  N   UNK N   1      34.929  17.140  10.430  0.00  0.00    -0.409 N 
HETATM    3  H   UNK N   1      35.083  16.246  10.896  0.00  0.00     0.151 HD
HETATM    4  H   UNK N   1      35.234  18.006  10.874  0.00  0.00     0.151 HD
ENDBRANCH   1   2
BRANCH   1   5
HETATM    5  C   UNK N   1      33.227  16.147   8.837  0.00  0.00     0.173 C 
HETATM    6  O   UNK N   1      33.027  15.784   7.688  0.00  0.00    -0.648 OA
BRANCH   5   7
HETATM    7  O   UNK N   1      32.501  15.615   9.836  0.00  0.00    -0.774 OA
HETATM    8  H   UNK N   1      31.641  15.283   9.664  0.00  0.00     0.167 HD
ENDBRANCH   5   7
ENDBRANCH   1   5
BRANCH   1   9
HETATM    9  C   UNK N   1      34.683  18.252   8.164  0.00  0.00     0.173 C 
HETATM   10  O   UNK N   1      35.284  19.239   8.561  0.00  0.00    -0.648 OA
BRANCH   9  11
HETATM   11  O   UNK N   1      34.392  18.132   6.857  0.00  0.00    -0.774 OA
HETATM   12  H   UNK N   1      34.705  17.394   6.373  0.00  0.00     0.167 HD
ENDBRANCH   9  11
ENDBRANCH   1   9
TORSDOF 5
ENDMDL
MODEL 7
REMARK VINA RESULT:      -4.1      2.640      4.680
REMARK  5 active torsions:
REMARK  status: ('A' for Active; 'I' for Inactive)
REMARK    1  A    between atoms: N_1  and  C_2 
REMARK    2  A    between atoms: C_2  and  C_3 
REMARK    3  A    between atoms: C_2  and  C_6 
REMARK    4  A    between atoms: C_3  and  O_4 
REMARK    5  A    between atoms: C_6  and  O_7 
ROOT
HETATM    1  C   UNK N   1      34.833  15.102  11.378  0.00  0.00     0.272 C 
ENDROOT
BRANCH   1   2
HETATM    2  N   UNK N   1      33.486  15.003  10.835  0.00  0.00    -0.409 N 
HETATM    3  H   UNK N   1      33.210  15.588  10.046  0.00  0.00     0.151 HD
HETATM    4  H   UNK N   1      32.818  14.350  11.244  0.00  0.00     0.151 HD
ENDBRANCH   1   2
BRANCH   1   5
HETATM    5  C   UNK N   1      35.273  14.065  12.369  0.00  0.00     0.173 C 
HETATM    6  O   UNK N   1      36.399  14.105  12.841  0.00  0.00    -0.648 OA
BRANCH   5   7
HETATM    7  O   UNK N   1      34.431  13.086  12.744  0.00  0.00    -0.774 OA
HETATM    8  H   UNK N   1      33.516  13.156  12.551  0.00  0.00     0.167 HD
ENDBRANCH   5   7
ENDBRANCH   1   5
BRANCH   1   9
HETATM    9  C   UNK N   1      35.701  16.235  10.914  0.00  0.00     0.173 C 
HETATM   10  O   UNK N   1      35.200  17.304  10.602  0.00  0.00    -0.648 OA
BRANCH   9  11
HETATM   11  O   UNK N   1      37.035  16.079  10.839  0.00  0.00    -0.774 OA
HETATM   12  H   UNK N   1      37.603  16.793  11.051  0.00  0.00     0.167 HD
ENDBRANCH   9  11
ENDBRANCH   1   9
TORSDOF 5
ENDMDL
MODEL 8
REMARK VINA RESULT:      -4.1      1.745      2.408
REMARK  5 active torsions:
REMARK  status: ('A' for Active; 'I' for Inactive)
REMARK    1  A    between atoms: N_1  and  C_2 
REMARK    2  A    between atoms: C_2  and  C_3 
REMARK    3  A    between atoms: C_2  and  C_6 
REMARK    4  A    between atoms: C_3  and  O_4 
REMARK    5  A    between atoms: C_6  and  O_7 
ROOT
HETATM    1  C   UNK N   1      34.284  17.156   9.112  0.00  0.00     0.272 C 
ENDROOT
BRANCH   1   2
HETATM    2  N   UNK N   1      34.933  17.114  10.414  0.00  0.00    -0.409 N 
HETATM    3  H   UNK N   1      34.641  17.759  11.149  0.00  0.00     0.151 HD
HETATM    4  H   UNK N   1      35.678  16.442  10.592  0.00  0.00     0.151 HD
ENDBRANCH   1   2
BRANCH   1   5
HETATM    5  C   UNK N   1      34.696  18.232   8.152  0.00  0.00     0.173 C 
HETATM    6  O   UNK N   1      35.266  19.234   8.559  0.00  0.00    -0.648 OA
BRANCH   5   7
HETATM    7  O   UNK N   1      34.441  18.102   6.838  0.00  0.00    -0.774 OA
HETATM    8  H   UNK N   1      35.145  18.130   6.220  0.00  0.00     0.167 HD
ENDBRANCH   5   7
ENDBRANCH   1   5
BRANCH   1   9
HETATM    9  C   UNK N   1      33.242  16.119   8.807  0.00  0.00     0.173 C 
HETATM   10  O   UNK N   1      33.270  15.514   7.747  0.00  0.00    -0.648 OA
BRANCH   9  11
HETATM   11  O   UNK N   1      32.271  15.852   9.700  0.00  0.00    -0.774 OA
HETATM   12  H   UNK N   1      32.122  14.970   9.979  0.00  0.00     0.167 HD
ENDBRANCH   9  11
ENDBRANCH   1   9
TORSDOF 5
ENDMDL
MODEL 9
REMARK VINA RESULT:      -4.1     15.653     16.309
REMARK  5 active torsions:
REMARK  status: ('A' for Active; 'I' for Inactive)
REMARK    1  A    between atoms: N_1  and  C_2 
REMARK    2  A    between atoms: C_2  and  C_3 
REMARK    3  A    between atoms: C_2  and  C_6 
REMARK    4  A    between atoms: C_3  and  O_4 
REMARK    5  A    between atoms: C_6  and  O_7 
ROOT
HETATM    1  C   UNK N   1      20.435  18.954   1.860  0.00  0.00     0.272 C 
ENDROOT
BRANCH   1   2
HETATM    2  N   UNK N   1      20.243  18.976   3.303  0.00  0.00    -0.409 N 
HETATM    3  H   UNK N   1      20.773  18.338   3.897  0.00  0.00     0.151 HD
HETATM    4  H   UNK N   1      19.580  19.629   3.719  0.00  0.00     0.151 HD
ENDBRANCH   1   2
BRANCH   1   5
HETATM    5  C   UNK N   1      20.933  20.203   1.195  0.00  0.00     0.173 C 
HETATM    6  O   UNK N   1      21.656  20.977   1.803  0.00  0.00    -0.648 OA
BRANCH   5   7
HETATM    7  O   UNK N   1      20.588  20.477  -0.076  0.00  0.00    -0.774 OA
HETATM    8  H   UNK N   1      20.109  19.847  -0.577  0.00  0.00     0.167 HD
ENDBRANCH   5   7
ENDBRANCH   1   5
BRANCH   1   9
HETATM    9  C   UNK N   1      20.123  17.684   1.124  0.00  0.00     0.173 C 
HETATM   10  O   UNK N   1      20.408  17.573  -0.058  0.00  0.00    -0.648 OA
BRANCH   9  11
HETATM   11  O   UNK N   1      19.528  16.660   1.762  0.00  0.00    -0.774 OA
HETATM   12  H   UNK N   1      18.908  16.123   1.310  0.00  0.00     0.167 HD
ENDBRANCH   9  11
ENDBRANCH   1   9
TORSDOF 5
ENDMDL
