MODEL 1
REMARK VINA RESULT:      -5.8      0.000      0.000
REMARK  4 active torsions:
REMARK  status: ('A' for Active; 'I' for Inactive)
REMARK    1  A    between atoms: C_1  and  N_2 
REMARK    2  A    between atoms: C_7  and  C_12 
REMARK    3  A    between atoms: C_8  and  O_13 
REMARK    4  A    between atoms: C_12  and  O_15 
ROOT
HETATM    1  C   UNK N   1      26.396  24.251  -5.898  0.00  0.00     0.235 A 
HETATM    2  O   UNK N   1      25.206  23.552  -6.221  0.00  0.00    -0.356 OA
HETATM    3  C   UNK N   1      27.715  23.641  -6.379  0.00  0.00     0.088 A 
HETATM    4  C   UNK N   1      25.668  22.437  -6.935  0.00  0.00     0.176 A 
HETATM    5  C   UNK N   1      27.162  22.444  -7.056  0.00  0.00     0.153 A 
ENDROOT
BRANCH   1   6
HETATM    6  N   UNK N   1      26.287  25.504  -5.130  0.00  0.00    -0.282 N 
HETATM    7  C   UNK N   1      26.414  25.542  -3.750  0.00  0.00     0.331 A 
HETATM    8  N   UNK N   1      26.305  26.735  -3.084  0.00  0.00    -0.275 N 
HETATM    9  O   UNK N   1      26.624  24.526  -3.111  0.00  0.00    -0.246 OA
HETATM   10  C   UNK N   1      26.070  27.898  -3.763  0.00  0.00     0.250 A 
HETATM   11  H   UNK N   1      26.396  26.754  -2.105  0.00  0.00     0.173 HD
HETATM   12  O   UNK N   1      25.976  28.948  -3.155  0.00  0.00    -0.268 OA
HETATM   13  C   UNK N   1      25.940  27.878  -5.145  0.00  0.00     0.092 A 
HETATM   14  C   UNK N   1      26.053  26.660  -5.813  0.00  0.00     0.104 A 
ENDBRANCH   1   6
BRANCH   4  15
HETATM   15  C   UNK N   1      24.671  21.418  -7.467  0.00  0.00     0.198 C 
BRANCH  15  16
HETATM   16  O   UNK N   1      23.575  22.055  -8.049  0.00  0.00    -0.398 OA
HETATM   17  H   UNK N   1      23.391  21.936  -8.994  0.00  0.00     0.209 HD
ENDBRANCH  15  16
ENDBRANCH   4  15
BRANCH   5  18
HETATM   18  O   UNK N   1      27.937  21.483  -7.704  0.00  0.00    -0.393 OA
HETATM   19  H   UNK N   1      28.636  21.757  -8.318  0.00  0.00     0.210 HD
ENDBRANCH   5  18
TORSDOF 4
ENDMDL
MODEL 2
REMARK VINA RESULT:      -5.8     12.749     13.864
REMARK  4 active torsions:
REMARK  status: ('A' for Active; 'I' for Inactive)
REMARK    1  A    between atoms: C_1  and  N_2 
REMARK    2  A    between atoms: C_7  and  C_12 
REMARK    3  A    between atoms: C_8  and  O_13 
REMARK    4  A    between atoms: C_12  and  O_15 
ROOT
HETATM    1  C   UNK N   1      20.656  17.396   3.431  0.00  0.00     0.235 A 
HETATM    2  O   UNK N   1      20.754  18.805   3.310  0.00  0.00    -0.356 OA
HETATM    3  C   UNK N   1      20.428  16.600   2.144  0.00  0.00     0.088 A 
HETATM    4  C   UNK N   1      20.596  19.024   1.934  0.00  0.00     0.176 A 
HETATM    5  C   UNK N   1      20.398  17.737   1.193  0.00  0.00     0.153 A 
ENDROOT
BRANCH   1   6
HETATM    6  N   UNK N   1      20.778  16.796   4.772  0.00  0.00    -0.282 N 
HETATM    7  C   UNK N   1      19.692  16.264   5.449  0.00  0.00     0.331 A 
HETATM    8  N   UNK N   1      19.861  15.718   6.694  0.00  0.00    -0.275 N 
HETATM    9  O   UNK N   1      18.579  16.271   4.953  0.00  0.00    -0.246 OA
HETATM   10  C   UNK N   1      21.092  15.689   7.287  0.00  0.00     0.250 A 
HETATM   11  H   UNK N   1      19.085  15.342   7.168  0.00  0.00     0.173 HD
HETATM   12  O   UNK N   1      21.224  15.200   8.393  0.00  0.00    -0.268 OA
HETATM   13  C   UNK N   1      22.191  16.218   6.623  0.00  0.00     0.092 A 
HETATM   14  C   UNK N   1      22.009  16.771   5.357  0.00  0.00     0.104 A 
ENDBRANCH   1   6
BRANCH   4  15
HETATM   15  C   UNK N   1      20.641  20.444   1.389  0.00  0.00     0.198 C 
BRANCH  15  16
HETATM   16  O   UNK N   1      20.608  20.441  -0.005  0.00  0.00    -0.398 OA
HETATM   17  H   UNK N   1      20.526  19.603  -0.487  0.00  0.00     0.209 HD
ENDBRANCH  15  16
ENDBRANCH   4  15
BRANCH   5  18
HETATM   18  O   UNK N   1      20.212  17.602  -0.182  0.00  0.00    -0.393 OA
HETATM   19  H   UNK N   1      19.572  16.958  -0.524  0.00  0.00     0.210 HD
ENDBRANCH   5  18
TORSDOF 4
ENDMDL
MODEL 3
REMARK VINA RESULT:      -5.8     19.864     21.426
REMARK  4 active torsions:
REMARK  status: ('A' for Active; 'I' for Inactive)
REMARK    1  A    between atoms: C_1  and  N_2 
REMARK    2  A    between atoms: C_7  and  C_12 
REMARK    3  A    between atoms: C_8  and  O_13 
REMARK    4  A    between atoms: C_12  and  O_15 
ROOT
HETATM    1  C   UNK N   1      35.287  14.716  11.072  0.00  0.00     0.235 A 
HETATM    2  O   UNK N   1      34.995  14.648  12.457  0.00  0.00    -0.356 OA
HETATM    3  C   UNK N   1      36.510  13.939  10.578  0.00  0.00     0.088 A 
HETATM    4  C   UNK N   1      36.009  13.821  12.962  0.00  0.00     0.176 A 
HETATM    5  C   UNK N   1      36.941  13.372  11.878  0.00  0.00     0.153 A 
ENDROOT
BRANCH   1   6
HETATM    6  N   UNK N   1      34.405  15.520  10.207  0.00  0.00    -0.282 N 
HETATM    7  C   UNK N   1      34.669  16.847   9.906  0.00  0.00     0.331 A 
HETATM    8  N   UNK N   1      33.816  17.549   9.097  0.00  0.00    -0.275 N 
HETATM    9  O   UNK N   1      35.656  17.406  10.351  0.00  0.00    -0.246 OA
HETATM   10  C   UNK N   1      32.698  16.960   8.576  0.00  0.00     0.250 A 
HETATM   11  H   UNK N   1      34.010  18.491   8.888  0.00  0.00     0.173 HD
HETATM   12  O   UNK N   1      31.951  17.599   7.859  0.00  0.00    -0.268 OA
HETATM   13  C   UNK N   1      32.417  15.632   8.868  0.00  0.00     0.092 A 
HETATM   14  C   UNK N   1      33.292  14.926   9.692  0.00  0.00     0.104 A 
ENDBRANCH   1   6
BRANCH   4  15
HETATM   15  C   UNK N   1      36.046  13.498  14.449  0.00  0.00     0.198 C 
BRANCH  15  16
HETATM   16  O   UNK N   1      37.360  13.368  14.896  0.00  0.00    -0.398 OA
HETATM   17  H   UNK N   1      37.678  12.514  15.228  0.00  0.00     0.209 HD
ENDBRANCH  15  16
ENDBRANCH   4  15
BRANCH   5  18
HETATM   18  O   UNK N   1      38.051  12.545  12.041  0.00  0.00    -0.393 OA
HETATM   19  H   UNK N   1      38.303  11.925  11.338  0.00  0.00     0.210 HD
ENDBRANCH   5  18
TORSDOF 4
ENDMDL
MODEL 4
REMARK VINA RESULT:      -5.7     12.106     13.424
REMARK  4 active torsions:
REMARK  status: ('A' for Active; 'I' for Inactive)
REMARK    1  A    between atoms: C_1  and  N_2 
REMARK    2  A    between atoms: C_7  and  C_12 
REMARK    3  A    between atoms: C_8  and  O_13 
REMARK    4  A    between atoms: C_12  and  O_15 
ROOT
HETATM    1  C   UNK N   1      21.609  18.598   3.906  0.00  0.00     0.235 A 
HETATM    2  O   UNK N   1      20.637  19.198   3.066  0.00  0.00    -0.356 OA
HETATM    3  C   UNK N   1      23.037  19.139   3.817  0.00  0.00     0.088 A 
HETATM    4  C   UNK N   1      21.367  20.173   2.371  0.00  0.00     0.176 A 
HETATM    5  C   UNK N   1      22.807  20.178   2.784  0.00  0.00     0.153 A 
ENDROOT
BRANCH   1   6
HETATM    6  N   UNK N   1      21.186  17.505   4.799  0.00  0.00    -0.282 N 
HETATM    7  C   UNK N   1      21.094  17.663   6.174  0.00  0.00     0.331 A 
HETATM    8  N   UNK N   1      20.695  16.613   6.959  0.00  0.00    -0.275 N 
HETATM    9  O   UNK N   1      21.364  18.726   6.702  0.00  0.00    -0.246 OA
HETATM   10  C   UNK N   1      20.383  15.402   6.407  0.00  0.00     0.250 A 
HETATM   11  H   UNK N   1      20.633  16.733   7.934  0.00  0.00     0.173 HD
HETATM   12  O   UNK N   1      20.031  14.481   7.120  0.00  0.00    -0.268 OA
HETATM   13  C   UNK N   1      20.469  15.227   5.033  0.00  0.00     0.092 A 
HETATM   14  C   UNK N   1      20.876  16.300   4.242  0.00  0.00     0.104 A 
ENDBRANCH   1   6
BRANCH   4  15
HETATM   15  C   UNK N   1      20.662  21.053   1.349  0.00  0.00     0.198 C 
BRANCH  15  16
HETATM   16  O   UNK N   1      20.687  20.463   0.086  0.00  0.00    -0.398 OA
HETATM   17  H   UNK N   1      19.860  20.319  -0.399  0.00  0.00     0.209 HD
ENDBRANCH  15  16
ENDBRANCH   4  15
BRANCH   5  18
HETATM   18  O   UNK N   1      23.800  21.022   2.288  0.00  0.00    -0.393 OA
HETATM   19  H   UNK N   1      24.484  21.369   2.882  0.00  0.00     0.210 HD
ENDBRANCH   5  18
TORSDOF 4
ENDMDL
MODEL 5
REMARK VINA RESULT:      -5.7     25.484     27.216
REMARK  4 active torsions:
REMARK  status: ('A' for Active; 'I' for Inactive)
REMARK    1  A    between atoms: C_1  and  N_2 
REMARK    2  A    between atoms: C_7  and  C_12 
REMARK    3  A    between atoms: C_8  and  O_13 
REMARK    4  A    between atoms: C_12  and  O_15 
ROOT
HETATM    1  C   UNK N   1      35.512  12.946  16.991  0.00  0.00     0.235 A 
HETATM    2  O   UNK N   1      35.708  11.612  17.429  0.00  0.00    -0.356 OA
HETATM    3  C   UNK N   1      35.090  13.972  18.045  0.00  0.00     0.088 A 
HETATM    4  C   UNK N   1      35.426  11.677  18.801  0.00  0.00     0.176 A 
HETATM    5  C   UNK N   1      35.052  13.067  19.219  0.00  0.00     0.153 A 
ENDROOT
BRANCH   1   6
HETATM    6  N   UNK N   1      35.725  13.255  15.565  0.00  0.00    -0.282 N 
HETATM    7  C   UNK N   1      36.720  14.118  15.133  0.00  0.00     0.331 A 
HETATM    8  N   UNK N   1      36.876  14.371  13.796  0.00  0.00    -0.275 N 
HETATM    9  O   UNK N   1      37.467  14.661  15.928  0.00  0.00    -0.246 OA
HETATM   10  C   UNK N   1      36.059  13.782  12.871  0.00  0.00     0.250 A 
HETATM   11  H   UNK N   1      37.584  14.984  13.497  0.00  0.00     0.173 HD
HETATM   12  O   UNK N   1      36.212  14.018  11.687  0.00  0.00    -0.268 OA
HETATM   13  C   UNK N   1      35.057  12.915  13.286  0.00  0.00     0.092 A 
HETATM   14  C   UNK N   1      34.907  12.665  14.648  0.00  0.00     0.104 A 
ENDBRANCH   1   6
BRANCH   4  15
HETATM   15  C   UNK N   1      35.526  10.418  19.649  0.00  0.00     0.198 C 
BRANCH  15  16
HETATM   16  O   UNK N   1      35.494  10.732  21.008  0.00  0.00    -0.398 OA
HETATM   17  H   UNK N   1      36.199  10.416  21.596  0.00  0.00     0.209 HD
ENDBRANCH  15  16
ENDBRANCH   4  15
BRANCH   5  18
HETATM   18  O   UNK N   1      34.714  13.473  20.509  0.00  0.00    -0.393 OA
HETATM   19  H   UNK N   1      34.610  12.814  21.213  0.00  0.00     0.210 HD
ENDBRANCH   5  18
TORSDOF 4
ENDMDL
MODEL 6
REMARK VINA RESULT:      -5.7      9.604     11.043
REMARK  4 active torsions:
REMARK  status: ('A' for Active; 'I' for Inactive)
REMARK    1  A    between atoms: C_1  and  N_2 
REMARK    2  A    between atoms: C_7  and  C_12 
REMARK    3  A    between atoms: C_8  and  O_13 
REMARK    4  A    between atoms: C_12  and  O_15 
ROOT
HETATM    1  C   UNK N   1      23.131  19.667   3.277  0.00  0.00     0.235 A 
HETATM    2  O   UNK N   1      22.703  20.651   2.351  0.00  0.00    -0.356 OA
HETATM    3  C   UNK N   1      22.080  18.670   3.770  0.00  0.00     0.088 A 
HETATM    4  C   UNK N   1      21.342  20.363   2.177  0.00  0.00     0.176 A 
HETATM    5  C   UNK N   1      20.921  19.186   3.004  0.00  0.00     0.153 A 
ENDROOT
BRANCH   1   6
HETATM    6  N   UNK N   1      24.543  19.668   3.700  0.00  0.00    -0.282 N 
HETATM    7  C   UNK N   1      25.535  20.306   2.972  0.00  0.00     0.331 A 
HETATM    8  N   UNK N   1      26.833  20.277   3.409  0.00  0.00    -0.275 N 
HETATM    9  O   UNK N   1      25.273  20.900   1.941  0.00  0.00    -0.246 OA
HETATM   10  C   UNK N   1      27.171  19.622   4.561  0.00  0.00     0.250 A 
HETATM   11  H   UNK N   1      27.532  20.732   2.887  0.00  0.00     0.173 HD
HETATM   12  O   UNK N   1      28.329  19.606   4.934  0.00  0.00    -0.268 OA
HETATM   13  C   UNK N   1      26.190  18.977   5.302  0.00  0.00     0.092 A 
HETATM   14  C   UNK N   1      24.873  19.013   4.849  0.00  0.00     0.104 A 
ENDBRANCH   1   6
BRANCH   4  15
HETATM   15  C   UNK N   1      20.507  21.216   1.234  0.00  0.00     0.198 C 
BRANCH  15  16
HETATM   16  O   UNK N   1      20.765  20.884  -0.096  0.00  0.00    -0.398 OA
HETATM   17  H   UNK N   1      21.506  20.297  -0.314  0.00  0.00     0.209 HD
ENDBRANCH  15  16
ENDBRANCH   4  15
BRANCH   5  18
HETATM   18  O   UNK N   1      19.639  18.641   3.062  0.00  0.00    -0.393 OA
HETATM   19  H   UNK N   1      19.106  18.568   2.255  0.00  0.00     0.210 HD
ENDBRANCH   5  18
TORSDOF 4
ENDMDL
MODEL 7
REMARK VINA RESULT:      -5.7     16.439     18.119
REMARK  4 active torsions:
REMARK  status: ('A' for Active; 'I' for Inactive)
REMARK    1  A    between atoms: C_1  and  N_2 
REMARK    2  A    between atoms: C_7  and  C_12 
REMARK    3  A    between atoms: C_8  and  O_13 
REMARK    4  A    between atoms: C_12  and  O_15 
ROOT
HETATM    1  C   UNK N   1      33.872  15.618   7.744  0.00  0.00     0.235 A 
HETATM    2  O   UNK N   1      35.242  15.447   8.065  0.00  0.00    -0.356 OA
HETATM    3  C   UNK N   1      32.863  15.452   8.882  0.00  0.00     0.088 A 
HETATM    4  C   UNK N   1      35.220  15.157   9.436  0.00  0.00     0.176 A 
HETATM    5  C   UNK N   1      33.820  15.148   9.972  0.00  0.00     0.153 A 
ENDROOT
BRANCH   1   6
HETATM    6  N   UNK N   1      33.513  15.941   6.351  0.00  0.00    -0.282 N 
HETATM    7  C   UNK N   1      33.716  17.200   5.806  0.00  0.00     0.331 A 
HETATM    8  N   UNK N   1      33.364  17.448   4.505  0.00  0.00    -0.275 N 
HETATM    9  O   UNK N   1      34.206  18.098   6.466  0.00  0.00    -0.246 OA
HETATM   10  C   UNK N   1      32.811  16.468   3.728  0.00  0.00     0.250 A 
HETATM   11  H   UNK N   1      33.511  18.343   4.124  0.00  0.00     0.173 HD
HETATM   12  O   UNK N   1      32.504  16.706   2.575  0.00  0.00    -0.268 OA
HETATM   13  C   UNK N   1      32.600  15.202   4.259  0.00  0.00     0.092 A 
HETATM   14  C   UNK N   1      32.962  14.960   5.583  0.00  0.00     0.104 A 
ENDBRANCH   1   6
BRANCH   4  15
HETATM   15  C   UNK N   1      36.527  14.902  10.172  0.00  0.00     0.198 C 
BRANCH  15  16
HETATM   16  O   UNK N   1      36.958  16.053  10.830  0.00  0.00    -0.398 OA
HETATM   17  H   UNK N   1      37.830  16.072  11.254  0.00  0.00     0.209 HD
ENDBRANCH  15  16
ENDBRANCH   4  15
BRANCH   5  18
HETATM   18  O   UNK N   1      33.449  14.895  11.292  0.00  0.00    -0.393 OA
HETATM   19  H   UNK N   1      32.964  15.567  11.797  0.00  0.00     0.210 HD
ENDBRANCH   5  18
TORSDOF 4
ENDMDL
MODEL 8
REMARK VINA RESULT:      -5.7     17.435     18.763
REMARK  4 active torsions:
REMARK  status: ('A' for Active; 'I' for Inactive)
REMARK    1  A    between atoms: C_1  and  N_2 
REMARK    2  A    between atoms: C_7  and  C_12 
REMARK    3  A    between atoms: C_8  and  O_13 
REMARK    4  A    between atoms: C_12  and  O_15 
ROOT
HETATM    1  C   UNK N   1      21.584  13.762   8.882  0.00  0.00     0.235 A 
HETATM    2  O   UNK N   1      22.996  13.689   8.787  0.00  0.00    -0.356 OA
HETATM    3  C   UNK N   1      20.930  13.091  10.091  0.00  0.00     0.088 A 
HETATM    4  C   UNK N   1      23.360  12.963   9.931  0.00  0.00     0.176 A 
HETATM    5  C   UNK N   1      22.160  12.582  10.743  0.00  0.00     0.153 A 
ENDROOT
BRANCH   1   6
HETATM    6  N   UNK N   1      20.846  14.472   7.821  0.00  0.00    -0.282 N 
HETATM    7  C   UNK N   1      20.470  15.801   7.941  0.00  0.00     0.331 A 
HETATM    8  N   UNK N   1      19.785  16.414   6.925  0.00  0.00    -0.275 N 
HETATM    9  O   UNK N   1      20.740  16.442   8.942  0.00  0.00    -0.246 OA
HETATM   10  C   UNK N   1      19.462  15.732   5.785  0.00  0.00     0.250 A 
HETATM   11  H   UNK N   1      19.522  17.358   7.017  0.00  0.00     0.173 HD
HETATM   12  O   UNK N   1      18.853  16.293   4.893  0.00  0.00    -0.268 OA
HETATM   13  C   UNK N   1      19.830  14.401   5.649  0.00  0.00     0.092 A 
HETATM   14  C   UNK N   1      20.527  13.786   6.688  0.00  0.00     0.104 A 
ENDBRANCH   1   6
BRANCH   4  15
HETATM   15  C   UNK N   1      24.829  12.666  10.197  0.00  0.00     0.198 C 
BRANCH  15  16
HETATM   16  O   UNK N   1      25.044  12.405  11.550  0.00  0.00    -0.398 OA
HETATM   17  H   UNK N   1      24.687  11.596  11.951  0.00  0.00     0.209 HD
ENDBRANCH  15  16
ENDBRANCH   4  15
BRANCH   5  18
HETATM   18  O   UNK N   1      22.172  11.860  11.936  0.00  0.00    -0.393 OA
HETATM   19  H   UNK N   1      21.337  11.607  12.359  0.00  0.00     0.210 HD
ENDBRANCH   5  18
TORSDOF 4
ENDMDL
MODEL 9
REMARK VINA RESULT:      -5.6     12.106     13.727
REMARK  4 active torsions:
REMARK  status: ('A' for Active; 'I' for Inactive)
REMARK    1  A    between atoms: C_1  and  N_2 
REMARK    2  A    between atoms: C_7  and  C_12 
REMARK    3  A    between atoms: C_8  and  O_13 
REMARK    4  A    between atoms: C_12  and  O_15 
ROOT
HETATM    1  C   UNK N   1      20.960  18.273   3.523  0.00  0.00     0.235 A 
HETATM    2  O   UNK N   1      22.371  18.297   3.655  0.00  0.00    -0.356 OA
HETATM    3  C   UNK N   1      20.280  19.567   3.069  0.00  0.00     0.088 A 
HETATM    4  C   UNK N   1      22.708  19.611   3.297  0.00  0.00     0.176 A 
HETATM    5  C   UNK N   1      21.492  20.410   2.937  0.00  0.00     0.153 A 
ENDROOT
BRANCH   1   6
HETATM    6  N   UNK N   1      20.248  17.019   3.826  0.00  0.00    -0.282 N 
HETATM    7  C   UNK N   1      19.971  16.069   2.855  0.00  0.00     0.331 A 
HETATM    8  N   UNK N   1      19.306  14.919   3.191  0.00  0.00    -0.275 N 
HETATM    9  O   UNK N   1      20.310  16.238   1.698  0.00  0.00    -0.246 OA
HETATM   10  C   UNK N   1      18.907  14.690   4.478  0.00  0.00     0.250 A 
HETATM   11  H   UNK N   1      19.112  14.250   2.497  0.00  0.00     0.173 HD
HETATM   12  O   UNK N   1      18.317  13.663   4.759  0.00  0.00    -0.268 OA
HETATM   13  C   UNK N   1      19.176  15.631   5.463  0.00  0.00     0.092 A 
HETATM   14  C   UNK N   1      19.853  16.797   5.112  0.00  0.00     0.104 A 
ENDBRANCH   1   6
BRANCH   4  15
HETATM   15  C   UNK N   1      24.167  20.043   3.312  0.00  0.00     0.198 C 
BRANCH  15  16
HETATM   16  O   UNK N   1      24.424  20.957   2.291  0.00  0.00    -0.398 OA
HETATM   17  H   UNK N   1      24.844  20.660   1.468  0.00  0.00     0.209 HD
ENDBRANCH  15  16
ENDBRANCH   4  15
BRANCH   5  18
HETATM   18  O   UNK N   1      21.478  21.745   2.537  0.00  0.00    -0.393 OA
HETATM   19  H   UNK N   1      20.990  22.008   1.741  0.00  0.00     0.210 HD
ENDBRANCH   5  18
TORSDOF 4
ENDMDL
