MODEL 1
REMARK VINA RESULT:      -5.8      0.000      0.000
REMARK  8 active torsions:
REMARK  status: ('A' for Active; 'I' for Inactive)
REMARK       I    between atoms: C_2  and  N_4 
REMARK    1  A    between atoms: C_5  and  N_4 
REMARK    2  A    between atoms: C_6  and  O_7 
REMARK    3  A    between atoms: C_9  and  C_10 
REMARK    4  A    between atoms: C_10  and  O_11 
REMARK    5  A    between atoms: O_11  and  S_12 
REMARK    6  A    between atoms: S_12  and  O_13 
REMARK    7  A    between atoms: C_16  and  O_17 
REMARK    8  A    between atoms: C_18  and  O_19 
ROOT
HETATM    1  C   UNK N   1      35.338  13.307  12.951  0.00  0.00     0.170 C 
HETATM    2  C   UNK N   1      35.025  12.524  11.672  0.00  0.00     0.282 C 
HETATM    3  O   UNK N   1      34.435  13.398  10.738  0.00  0.00    -0.349 OA
HETATM    4  C   UNK N   1      35.426  14.292  10.278  0.00  0.00     0.181 C 
HETATM    5  C   UNK N   1      35.871  15.211  11.433  0.00  0.00     0.180 C 
HETATM    6  C   UNK N   1      36.396  14.346  12.573  0.00  0.00     0.177 C 
ENDROOT
BRANCH   4   7
HETATM    7  C   UNK N   1      34.828  15.097   9.126  0.00  0.00     0.226 C 
BRANCH   7   8
HETATM    8  O   UNK N   1      34.341  16.339   9.557  0.00  0.00    -0.261 OA
BRANCH   8   9
HETATM    9  S   UNK N   1      34.573  17.402   8.218  0.00  0.00     0.240 S 
HETATM   10  O   UNK N   1      33.098  17.537   8.625  0.00  0.00    -0.579 OA
HETATM   11  O   UNK N   1      35.367  17.997   9.393  0.00  0.00    -0.579 OA
BRANCH   9  12
HETATM   12  O   UNK N   1      34.210  19.076   8.310  0.00  0.00    -0.274 OA
HETATM   13  H   UNK N   1      34.522  19.711   7.646  0.00  0.00     0.234 HD
ENDBRANCH   9  12
ENDBRANCH   8   9
ENDBRANCH   7   8
ENDBRANCH   4   7
BRANCH   5  14
HETATM   14  O   UNK N   1      36.888  16.072  11.025  0.00  0.00    -0.390 OA
HETATM   15  H   UNK N   1      37.448  16.669  11.544  0.00  0.00     0.210 HD
ENDBRANCH   5  14
BRANCH   2  16
HETATM   16  O   UNK N   1      34.134  11.485  11.949  0.00  0.00    -0.369 OA
HETATM   17  H   UNK N   1      34.205  10.581  11.605  0.00  0.00     0.212 HD
ENDBRANCH   2  16
BRANCH   6  18
HETATM   18  O   UNK N   1      36.732  15.150  13.662  0.00  0.00    -0.391 OA
HETATM   19  H   UNK N   1      36.255  15.074  14.502  0.00  0.00     0.210 HD
ENDBRANCH   6  18
BRANCH   1  20
HETATM   20  N   UNK N   1      35.829  12.431  13.992  0.00  0.00    -0.349 N 
HETATM   21  C   UNK N   1      35.243  12.374  15.215  0.00  0.00     0.214 C 
HETATM   22  C   UNK N   1      35.791  11.461  16.254  0.00  0.00     0.117 C 
HETATM   23  O   UNK N   1      34.263  13.057  15.472  0.00  0.00    -0.274 OA
HETATM   24  H   UNK N   1      36.610  11.861  13.809  0.00  0.00     0.163 HD
ENDBRANCH   1  20
TORSDOF 8
ENDMDL
MODEL 2
REMARK VINA RESULT:      -5.7      3.342      6.726
REMARK  8 active torsions:
REMARK  status: ('A' for Active; 'I' for Inactive)
REMARK       I    between atoms: C_2  and  N_4 
REMARK    1  A    between atoms: C_5  and  N_4 
REMARK    2  A    between atoms: C_6  and  O_7 
REMARK    3  A    between atoms: C_9  and  C_10 
REMARK    4  A    between atoms: C_10  and  O_11 
REMARK    5  A    between atoms: O_11  and  S_12 
REMARK    6  A    between atoms: S_12  and  O_13 
REMARK    7  A    between atoms: C_16  and  O_17 
REMARK    8  A    between atoms: C_18  and  O_19 
ROOT
HETATM    1  C   UNK N   1      34.549  15.595   7.824  0.00  0.00     0.170 C 
HETATM    2  C   UNK N   1      35.184  14.207   7.688  0.00  0.00     0.282 C 
HETATM    3  O   UNK N   1      35.947  13.944   8.843  0.00  0.00    -0.349 OA
HETATM    4  C   UNK N   1      35.062  13.737   9.923  0.00  0.00     0.181 C 
HETATM    5  C   UNK N   1      34.325  15.052  10.246  0.00  0.00     0.180 C 
HETATM    6  C   UNK N   1      33.576  15.512   9.000  0.00  0.00     0.177 C 
ENDROOT
BRANCH   4   7
HETATM    7  C   UNK N   1      35.887  13.256  11.115  0.00  0.00     0.226 C 
BRANCH   7   8
HETATM    8  O   UNK N   1      35.933  14.215  12.138  0.00  0.00    -0.261 OA
BRANCH   8   9
HETATM    9  S   UNK N   1      36.268  13.323  13.575  0.00  0.00     0.240 S 
HETATM   10  O   UNK N   1      36.524  14.799  13.915  0.00  0.00    -0.579 OA
HETATM   11  O   UNK N   1      34.752  13.224  13.341  0.00  0.00    -0.579 OA
BRANCH   9  12
HETATM   12  O   UNK N   1      35.480  13.659  15.061  0.00  0.00    -0.274 OA
HETATM   13  H   UNK N   1      35.874  14.231  15.739  0.00  0.00     0.234 HD
ENDBRANCH   9  12
ENDBRANCH   8   9
ENDBRANCH   7   8
ENDBRANCH   4   7
BRANCH   5  14
HETATM   14  O   UNK N   1      33.404  14.870  11.276  0.00  0.00    -0.390 OA
HETATM   15  H   UNK N   1      32.441  14.991  11.284  0.00  0.00     0.210 HD
ENDBRANCH   5  14
BRANCH   2  16
HETATM   16  O   UNK N   1      36.020  14.166   6.570  0.00  0.00    -0.369 OA
HETATM   17  H   UNK N   1      36.976  14.331   6.582  0.00  0.00     0.212 HD
ENDBRANCH   2  16
BRANCH   6  18
HETATM   18  O   UNK N   1      32.963  16.742   9.242  0.00  0.00    -0.391 OA
HETATM   19  H   UNK N   1      32.892  17.093  10.143  0.00  0.00     0.210 HD
ENDBRANCH   6  18
BRANCH   1  20
HETATM   20  N   UNK N   1      33.857  15.973   6.611  0.00  0.00    -0.349 N 
HETATM   21  C   UNK N   1      33.846  17.254   6.163  0.00  0.00     0.214 C 
HETATM   22  C   UNK N   1      33.112  17.592   4.913  0.00  0.00     0.117 C 
HETATM   23  O   UNK N   1      34.438  18.134   6.768  0.00  0.00    -0.274 OA
HETATM   24  H   UNK N   1      33.381  15.282   6.096  0.00  0.00     0.163 HD
ENDBRANCH   1  20
TORSDOF 8
ENDMDL
MODEL 3
REMARK VINA RESULT:      -5.4      6.342      9.373
REMARK  8 active torsions:
REMARK  status: ('A' for Active; 'I' for Inactive)
REMARK       I    between atoms: C_2  and  N_4 
REMARK    1  A    between atoms: C_5  and  N_4 
REMARK    2  A    between atoms: C_6  and  O_7 
REMARK    3  A    between atoms: C_9  and  C_10 
REMARK    4  A    between atoms: C_10  and  O_11 
REMARK    5  A    between atoms: O_11  and  S_12 
REMARK    6  A    between atoms: S_12  and  O_13 
REMARK    7  A    between atoms: C_16  and  O_17 
REMARK    8  A    between atoms: C_18  and  O_19 
ROOT
HETATM    1  C   UNK N   1      28.857  17.469   5.522  0.00  0.00     0.170 C 
HETATM    2  C   UNK N   1      29.048  17.927   6.971  0.00  0.00     0.282 C 
HETATM    3  O   UNK N   1      29.906  17.020   7.623  0.00  0.00    -0.349 OA
HETATM    4  C   UNK N   1      31.209  17.191   7.107  0.00  0.00     0.181 C 
HETATM    5  C   UNK N   1      31.240  16.751   5.629  0.00  0.00     0.180 C 
HETATM    6  C   UNK N   1      30.226  17.579   4.850  0.00  0.00     0.177 C 
ENDROOT
BRANCH   4   7
HETATM    7  C   UNK N   1      32.160  16.351   7.957  0.00  0.00     0.226 C 
BRANCH   7   8
HETATM    8  O   UNK N   1      33.503  16.670   7.707  0.00  0.00    -0.261 OA
BRANCH   8   9
HETATM    9  S   UNK N   1      33.654  18.335   8.131  0.00  0.00     0.240 S 
HETATM   10  O   UNK N   1      34.333  17.540   9.257  0.00  0.00    -0.579 OA
HETATM   11  O   UNK N   1      34.543  18.114   6.896  0.00  0.00    -0.579 OA
BRANCH   9  12
HETATM   12  O   UNK N   1      35.178  19.063   8.437  0.00  0.00    -0.274 OA
HETATM   13  H   UNK N   1      35.800  18.705   9.090  0.00  0.00     0.234 HD
ENDBRANCH   9  12
ENDBRANCH   8   9
ENDBRANCH   7   8
ENDBRANCH   4   7
BRANCH   5  14
HETATM   14  O   UNK N   1      32.502  16.955   5.073  0.00  0.00    -0.390 OA
HETATM   15  H   UNK N   1      33.279  16.374   5.053  0.00  0.00     0.210 HD
ENDBRANCH   5  14
BRANCH   2  16
HETATM   16  O   UNK N   1      27.820  17.950   7.636  0.00  0.00    -0.369 OA
HETATM   17  H   UNK N   1      27.403  18.742   8.012  0.00  0.00     0.212 HD
ENDBRANCH   2  16
BRANCH   6  18
HETATM   18  O   UNK N   1      30.179  17.147   3.524  0.00  0.00    -0.391 OA
HETATM   19  H   UNK N   1      29.760  17.689   2.839  0.00  0.00     0.210 HD
ENDBRANCH   6  18
BRANCH   1  20
HETATM   20  N   UNK N   1      27.883  18.292   4.839  0.00  0.00    -0.349 N 
HETATM   21  C   UNK N   1      26.594  17.897   4.685  0.00  0.00     0.214 C 
HETATM   22  C   UNK N   1      25.632  18.778   3.968  0.00  0.00     0.117 C 
HETATM   23  O   UNK N   1      26.208  16.829   5.135  0.00  0.00    -0.274 OA
HETATM   24  H   UNK N   1      28.162  19.164   4.476  0.00  0.00     0.163 HD
ENDBRANCH   1  20
TORSDOF 8
ENDMDL
MODEL 4
REMARK VINA RESULT:      -5.4      2.008      2.861
REMARK  8 active torsions:
REMARK  status: ('A' for Active; 'I' for Inactive)
REMARK       I    between atoms: C_2  and  N_4 
REMARK    1  A    between atoms: C_5  and  N_4 
REMARK    2  A    between atoms: C_6  and  O_7 
REMARK    3  A    between atoms: C_9  and  C_10 
REMARK    4  A    between atoms: C_10  and  O_11 
REMARK    5  A    between atoms: O_11  and  S_12 
REMARK    6  A    between atoms: S_12  and  O_13 
REMARK    7  A    between atoms: C_16  and  O_17 
REMARK    8  A    between atoms: C_18  and  O_19 
ROOT
HETATM    1  C   UNK N   1      36.518  13.316  11.513  0.00  0.00     0.170 C 
HETATM    2  C   UNK N   1      37.246  14.427  10.749  0.00  0.00     0.282 C 
HETATM    3  O   UNK N   1      36.508  14.738   9.590  0.00  0.00    -0.349 OA
HETATM    4  C   UNK N   1      35.326  15.403   9.981  0.00  0.00     0.181 C 
HETATM    5  C   UNK N   1      34.419  14.429  10.760  0.00  0.00     0.180 C 
HETATM    6  C   UNK N   1      35.185  13.910  11.971  0.00  0.00     0.177 C 
ENDROOT
BRANCH   4   7
HETATM    7  C   UNK N   1      34.638  15.910   8.714  0.00  0.00     0.226 C 
BRANCH   7   8
HETATM    8  O   UNK N   1      33.680  16.894   9.001  0.00  0.00    -0.261 OA
BRANCH   8   9
HETATM    9  S   UNK N   1      32.571  16.839   7.681  0.00  0.00     0.240 S 
HETATM   10  O   UNK N   1      31.855  16.185   8.873  0.00  0.00    -0.579 OA
HETATM   11  O   UNK N   1      32.719  18.319   8.068  0.00  0.00    -0.579 OA
BRANCH   9  12
HETATM   12  O   UNK N   1      31.000  17.520   7.782  0.00  0.00    -0.274 OA
HETATM   13  H   UNK N   1      30.811  18.429   7.501  0.00  0.00     0.234 HD
ENDBRANCH   9  12
ENDBRANCH   8   9
ENDBRANCH   7   8
ENDBRANCH   4   7
BRANCH   5  14
HETATM   14  O   UNK N   1      33.264  15.069  11.206  0.00  0.00    -0.390 OA
HETATM   15  H   UNK N   1      32.927  15.958  11.012  0.00  0.00     0.210 HD
ENDBRANCH   5  14
BRANCH   2  16
HETATM   16  O   UNK N   1      38.522  13.999  10.376  0.00  0.00    -0.369 OA
HETATM   17  H   UNK N   1      39.278  14.581  10.201  0.00  0.00     0.212 HD
ENDBRANCH   2  16
BRANCH   6  18
HETATM   18  O   UNK N   1      34.414  12.967  12.651  0.00  0.00    -0.391 OA
HETATM   19  H   UNK N   1      33.513  12.758  12.360  0.00  0.00     0.210 HD
ENDBRANCH   6  18
BRANCH   1  20
HETATM   20  N   UNK N   1      37.295  12.867  12.648  0.00  0.00    -0.349 N 
HETATM   21  C   UNK N   1      37.294  11.571  13.048  0.00  0.00     0.214 C 
HETATM   22  C   UNK N   1      38.106  11.160  14.226  0.00  0.00     0.117 C 
HETATM   23  O   UNK N   1      36.640  10.731  12.448  0.00  0.00    -0.274 OA
HETATM   24  H   UNK N   1      37.841  13.520  13.143  0.00  0.00     0.163 HD
ENDBRANCH   1  20
TORSDOF 8
ENDMDL
MODEL 5
REMARK VINA RESULT:      -5.3      3.052      6.652
REMARK  8 active torsions:
REMARK  status: ('A' for Active; 'I' for Inactive)
REMARK       I    between atoms: C_2  and  N_4 
REMARK    1  A    between atoms: C_5  and  N_4 
REMARK    2  A    between atoms: C_6  and  O_7 
REMARK    3  A    between atoms: C_9  and  C_10 
REMARK    4  A    between atoms: C_10  and  O_11 
REMARK    5  A    between atoms: O_11  and  S_12 
REMARK    6  A    between atoms: S_12  and  O_13 
REMARK    7  A    between atoms: C_16  and  O_17 
REMARK    8  A    between atoms: C_18  and  O_19 
ROOT
HETATM    1  C   UNK N   1      34.193  15.887   9.788  0.00  0.00     0.170 C 
HETATM    2  C   UNK N   1      35.560  16.340  10.312  0.00  0.00     0.282 C 
HETATM    3  O   UNK N   1      35.662  15.989  11.672  0.00  0.00    -0.349 OA
HETATM    4  C   UNK N   1      35.784  14.586  11.762  0.00  0.00     0.181 C 
HETATM    5  C   UNK N   1      34.473  13.923  11.294  0.00  0.00     0.180 C 
HETATM    6  C   UNK N   1      34.186  14.360   9.863  0.00  0.00     0.177 C 
ENDROOT
BRANCH   4   7
HETATM    7  C   UNK N   1      36.095  14.238  13.216  0.00  0.00     0.226 C 
BRANCH   7   8
HETATM    8  O   UNK N   1      34.976  13.713  13.877  0.00  0.00    -0.261 OA
BRANCH   8   9
HETATM    9  S   UNK N   1      35.619  12.701  15.116  0.00  0.00     0.240 S 
HETATM   10  O   UNK N   1      36.402  14.020  15.188  0.00  0.00    -0.579 OA
HETATM   11  O   UNK N   1      34.188  13.063  15.545  0.00  0.00    -0.579 OA
BRANCH   9  12
HETATM   12  O   UNK N   1      35.666  13.190  16.760  0.00  0.00    -0.274 OA
HETATM   13  H   UNK N   1      35.486  14.103  17.034  0.00  0.00     0.234 HD
ENDBRANCH   9  12
ENDBRANCH   8   9
ENDBRANCH   7   8
ENDBRANCH   4   7
BRANCH   5  14
HETATM   14  O   UNK N   1      34.579  12.533  11.321  0.00  0.00    -0.390 OA
HETATM   15  H   UNK N   1      35.049  11.953  11.941  0.00  0.00     0.210 HD
ENDBRANCH   5  14
BRANCH   2  16
HETATM   16  O   UNK N   1      35.689  17.725  10.187  0.00  0.00    -0.369 OA
HETATM   17  H   UNK N   1      35.730  18.351  10.927  0.00  0.00     0.212 HD
ENDBRANCH   2  16
BRANCH   6  18
HETATM   18  O   UNK N   1      32.964  13.835   9.443  0.00  0.00    -0.391 OA
HETATM   19  H   UNK N   1      32.258  14.415   9.120  0.00  0.00     0.210 HD
ENDBRANCH   6  18
BRANCH   1  20
HETATM   20  N   UNK N   1      33.981  16.334   8.428  0.00  0.00    -0.349 N 
HETATM   21  C   UNK N   1      32.759  16.726   7.986  0.00  0.00     0.214 C 
HETATM   22  C   UNK N   1      32.593  17.171   6.575  0.00  0.00     0.117 C 
HETATM   23  O   UNK N   1      31.793  16.726   8.733  0.00  0.00    -0.274 OA
HETATM   24  H   UNK N   1      34.744  16.356   7.807  0.00  0.00     0.163 HD
ENDBRANCH   1  20
TORSDOF 8
ENDMDL
MODEL 6
REMARK VINA RESULT:      -5.2      3.863      7.080
REMARK  8 active torsions:
REMARK  status: ('A' for Active; 'I' for Inactive)
REMARK       I    between atoms: C_2  and  N_4 
REMARK    1  A    between atoms: C_5  and  N_4 
REMARK    2  A    between atoms: C_6  and  O_7 
REMARK    3  A    between atoms: C_9  and  C_10 
REMARK    4  A    between atoms: C_10  and  O_11 
REMARK    5  A    between atoms: O_11  and  S_12 
REMARK    6  A    between atoms: S_12  and  O_13 
REMARK    7  A    between atoms: C_16  and  O_17 
REMARK    8  A    between atoms: C_18  and  O_19 
ROOT
HETATM    1  C   UNK N   1      33.686  16.238   6.840  0.00  0.00     0.170 C 
HETATM    2  C   UNK N   1      32.911  15.040   7.400  0.00  0.00     0.282 C 
HETATM    3  O   UNK N   1      33.742  14.344   8.299  0.00  0.00    -0.349 OA
HETATM    4  C   UNK N   1      33.904  15.134   9.458  0.00  0.00     0.181 C 
HETATM    5  C   UNK N   1      34.702  16.406   9.109  0.00  0.00     0.180 C 
HETATM    6  C   UNK N   1      33.954  17.170   8.022  0.00  0.00     0.177 C 
ENDROOT
BRANCH   4   7
HETATM    7  C   UNK N   1      34.635  14.287  10.499  0.00  0.00     0.226 C 
BRANCH   7   8
HETATM    8  O   UNK N   1      34.314  14.678  11.807  0.00  0.00    -0.261 OA
BRANCH   8   9
HETATM    9  S   UNK N   1      35.591  14.060  12.787  0.00  0.00     0.240 S 
HETATM   10  O   UNK N   1      35.504  13.139  11.561  0.00  0.00    -0.579 OA
HETATM   11  O   UNK N   1      36.075  15.412  12.237  0.00  0.00    -0.579 OA
BRANCH   9  12
HETATM   12  O   UNK N   1      37.182  13.847  12.182  0.00  0.00    -0.274 OA
HETATM   13  H   UNK N   1      37.936  14.358  12.517  0.00  0.00     0.234 HD
ENDBRANCH   9  12
ENDBRANCH   8   9
ENDBRANCH   7   8
ENDBRANCH   4   7
BRANCH   5  14
HETATM   14  O   UNK N   1      34.835  17.234  10.223  0.00  0.00    -0.390 OA
HETATM   15  H   UNK N   1      35.302  17.087  11.060  0.00  0.00     0.210 HD
ENDBRANCH   5  14
BRANCH   2  16
HETATM   16  O   UNK N   1      32.538  14.180   6.365  0.00  0.00    -0.369 OA
HETATM   17  H   UNK N   1      32.467  14.429   5.430  0.00  0.00     0.212 HD
ENDBRANCH   2  16
BRANCH   6  18
HETATM   18  O   UNK N   1      34.695  18.286   7.633  0.00  0.00    -0.391 OA
HETATM   19  H   UNK N   1      34.569  19.143   8.069  0.00  0.00     0.210 HD
ENDBRANCH   6  18
BRANCH   1  20
HETATM   20  N   UNK N   1      32.925  16.918   5.814  0.00  0.00    -0.349 N 
HETATM   21  C   UNK N   1      33.091  16.637   4.497  0.00  0.00     0.214 C 
HETATM   22  C   UNK N   1      32.288  17.369   3.479  0.00  0.00     0.117 C 
HETATM   23  O   UNK N   1      33.884  15.782   4.133  0.00  0.00    -0.274 OA
HETATM   24  H   UNK N   1      32.270  17.602   6.078  0.00  0.00     0.163 HD
ENDBRANCH   1  20
TORSDOF 8
ENDMDL
MODEL 7
REMARK VINA RESULT:      -5.2     13.055     14.709
REMARK  8 active torsions:
REMARK  status: ('A' for Active; 'I' for Inactive)
REMARK       I    between atoms: C_2  and  N_4 
REMARK    1  A    between atoms: C_5  and  N_4 
REMARK    2  A    between atoms: C_6  and  O_7 
REMARK    3  A    between atoms: C_9  and  C_10 
REMARK    4  A    between atoms: C_10  and  O_11 
REMARK    5  A    between atoms: O_11  and  S_12 
REMARK    6  A    between atoms: S_12  and  O_13 
REMARK    7  A    between atoms: C_16  and  O_17 
REMARK    8  A    between atoms: C_18  and  O_19 
ROOT
HETATM    1  C   UNK N   1      22.166  15.241   6.897  0.00  0.00     0.170 C 
HETATM    2  C   UNK N   1      20.857  15.017   6.132  0.00  0.00     0.282 C 
HETATM    3  O   UNK N   1      20.395  16.258   5.653  0.00  0.00    -0.349 OA
HETATM    4  C   UNK N   1      21.252  16.682   4.614  0.00  0.00     0.181 C 
HETATM    5  C   UNK N   1      22.648  16.992   5.191  0.00  0.00     0.180 C 
HETATM    6  C   UNK N   1      23.186  15.739   5.872  0.00  0.00     0.177 C 
ENDROOT
BRANCH   4   7
HETATM    7  C   UNK N   1      20.628  17.920   3.973  0.00  0.00     0.226 C 
BRANCH   7   8
HETATM    8  O   UNK N   1      21.366  19.079   4.252  0.00  0.00    -0.261 OA
BRANCH   8   9
HETATM    9  S   UNK N   1      21.318  20.004   2.797  0.00  0.00     0.240 S 
HETATM   10  O   UNK N   1      20.371  20.704   3.784  0.00  0.00    -0.579 OA
HETATM   11  O   UNK N   1      22.723  20.194   3.391  0.00  0.00    -0.579 OA
BRANCH   9  12
HETATM   12  O   UNK N   1      21.683  21.680   2.770  0.00  0.00    -0.274 OA
HETATM   13  H   UNK N   1      22.276  22.070   2.108  0.00  0.00     0.234 HD
ENDBRANCH   9  12
ENDBRANCH   8   9
ENDBRANCH   7   8
ENDBRANCH   4   7
BRANCH   5  14
HETATM   14  O   UNK N   1      23.534  17.364   4.181  0.00  0.00    -0.390 OA
HETATM   15  H   UNK N   1      24.113  18.139   4.111  0.00  0.00     0.210 HD
ENDBRANCH   5  14
BRANCH   2  16
HETATM   16  O   UNK N   1      19.892  14.466   6.978  0.00  0.00    -0.369 OA
HETATM   17  H   UNK N   1      20.070  14.072   7.846  0.00  0.00     0.212 HD
ENDBRANCH   2  16
BRANCH   6  18
HETATM   18  O   UNK N   1      24.416  16.016   6.470  0.00  0.00    -0.391 OA
HETATM   19  H   UNK N   1      25.144  15.378   6.426  0.00  0.00     0.210 HD
ENDBRANCH   6  18
BRANCH   1  20
HETATM   20  N   UNK N   1      22.622  14.017   7.520  0.00  0.00    -0.349 N 
HETATM   21  C   UNK N   1      22.328  13.720   8.811  0.00  0.00     0.214 C 
HETATM   22  C   UNK N   1      22.827  12.451   9.408  0.00  0.00     0.117 C 
HETATM   23  O   UNK N   1      21.651  14.477   9.490  0.00  0.00    -0.274 OA
HETATM   24  H   UNK N   1      23.159  13.383   6.994  0.00  0.00     0.163 HD
ENDBRANCH   1  20
TORSDOF 8
ENDMDL
MODEL 8
REMARK VINA RESULT:      -5.2      2.051      2.602
REMARK  8 active torsions:
REMARK  status: ('A' for Active; 'I' for Inactive)
REMARK       I    between atoms: C_2  and  N_4 
REMARK    1  A    between atoms: C_5  and  N_4 
REMARK    2  A    between atoms: C_6  and  O_7 
REMARK    3  A    between atoms: C_9  and  C_10 
REMARK    4  A    between atoms: C_10  and  O_11 
REMARK    5  A    between atoms: O_11  and  S_12 
REMARK    6  A    between atoms: S_12  and  O_13 
REMARK    7  A    between atoms: C_16  and  O_17 
REMARK    8  A    between atoms: C_18  and  O_19 
ROOT
HETATM    1  C   UNK N   1      35.770  14.637  11.346  0.00  0.00     0.170 C 
HETATM    2  C   UNK N   1      36.450  13.771  10.279  0.00  0.00     0.282 C 
HETATM    3  O   UNK N   1      35.635  13.748   9.130  0.00  0.00    -0.349 OA
HETATM    4  C   UNK N   1      35.684  15.021   8.523  0.00  0.00     0.181 C 
HETATM    5  C   UNK N   1      35.012  16.059   9.445  0.00  0.00     0.180 C 
HETATM    6  C   UNK N   1      35.733  16.060  10.788  0.00  0.00     0.177 C 
ENDROOT
BRANCH   4   7
HETATM    7  C   UNK N   1      34.964  14.924   7.179  0.00  0.00     0.226 C 
BRANCH   7   8
HETATM    8  O   UNK N   1      33.646  15.394   7.259  0.00  0.00    -0.261 OA
BRANCH   8   9
HETATM    9  S   UNK N   1      33.397  16.281   5.801  0.00  0.00     0.240 S 
HETATM   10  O   UNK N   1      32.837  17.152   6.936  0.00  0.00    -0.579 OA
HETATM   11  O   UNK N   1      34.915  16.245   6.038  0.00  0.00    -0.579 OA
BRANCH   9  12
HETATM   12  O   UNK N   1      34.005  17.872   5.586  0.00  0.00    -0.274 OA
HETATM   13  H   UNK N   1      34.512  18.130   4.800  0.00  0.00     0.234 HD
ENDBRANCH   9  12
ENDBRANCH   8   9
ENDBRANCH   7   8
ENDBRANCH   4   7
BRANCH   5  14
HETATM   14  O   UNK N   1      35.089  17.338   8.898  0.00  0.00    -0.390 OA
HETATM   15  H   UNK N   1      34.387  17.975   8.693  0.00  0.00     0.210 HD
ENDBRANCH   5  14
BRANCH   2  16
HETATM   16  O   UNK N   1      36.613  12.467  10.749  0.00  0.00    -0.369 OA
HETATM   17  H   UNK N   1      37.160  11.786  10.327  0.00  0.00     0.212 HD
ENDBRANCH   2  16
BRANCH   6  18
HETATM   18  O   UNK N   1      35.096  16.936  11.667  0.00  0.00    -0.391 OA
HETATM   19  H   UNK N   1      34.990  17.873  11.446  0.00  0.00     0.210 HD
ENDBRANCH   6  18
BRANCH   1  20
HETATM   20  N   UNK N   1      36.501  14.595  12.594  0.00  0.00    -0.349 N 
HETATM   21  C   UNK N   1      35.971  14.044  13.715  0.00  0.00     0.214 C 
HETATM   22  C   UNK N   1      36.761  14.032  14.977  0.00  0.00     0.117 C 
HETATM   23  O   UNK N   1      34.854  13.548  13.701  0.00  0.00    -0.274 OA
HETATM   24  H   UNK N   1      37.408  14.976  12.632  0.00  0.00     0.163 HD
ENDBRANCH   1  20
TORSDOF 8
ENDMDL
MODEL 9
REMARK VINA RESULT:      -5.1     14.128     15.039
REMARK  8 active torsions:
REMARK  status: ('A' for Active; 'I' for Inactive)
REMARK       I    between atoms: C_2  and  N_4 
REMARK    1  A    between atoms: C_5  and  N_4 
REMARK    2  A    between atoms: C_6  and  O_7 
REMARK    3  A    between atoms: C_9  and  C_10 
REMARK    4  A    between atoms: C_10  and  O_11 
REMARK    5  A    between atoms: O_11  and  S_12 
REMARK    6  A    between atoms: S_12  and  O_13 
REMARK    7  A    between atoms: C_16  and  O_17 
REMARK    8  A    between atoms: C_18  and  O_19 
ROOT
HETATM    1  C   UNK N   1      21.506  15.266   7.145  0.00  0.00     0.170 C 
HETATM    2  C   UNK N   1      22.604  15.186   6.079  0.00  0.00     0.282 C 
HETATM    3  O   UNK N   1      22.196  15.927   4.953  0.00  0.00    -0.349 OA
HETATM    4  C   UNK N   1      22.233  17.298   5.284  0.00  0.00     0.181 C 
HETATM    5  C   UNK N   1      21.160  17.602   6.349  0.00  0.00     0.180 C 
HETATM    6  C   UNK N   1      21.425  16.732   7.573  0.00  0.00     0.177 C 
ENDROOT
BRANCH   4   7
HETATM    7  C   UNK N   1      21.985  18.094   4.004  0.00  0.00     0.226 C 
BRANCH   7   8
HETATM    8  O   UNK N   1      20.837  18.892   4.101  0.00  0.00    -0.261 OA
BRANCH   8   9
HETATM    9  S   UNK N   1      20.899  19.936   2.729  0.00  0.00     0.240 S 
HETATM   10  O   UNK N   1      20.229  20.741   3.853  0.00  0.00    -0.579 OA
HETATM   11  O   UNK N   1      22.350  19.735   3.193  0.00  0.00    -0.579 OA
BRANCH   9  12
HETATM   12  O   UNK N   1      21.654  21.476   2.789  0.00  0.00    -0.274 OA
HETATM   13  H   UNK N   1      21.321  22.235   2.285  0.00  0.00     0.234 HD
ENDBRANCH   9  12
ENDBRANCH   8   9
ENDBRANCH   7   8
ENDBRANCH   4   7
BRANCH   5  14
HETATM   14  O   UNK N   1      21.205  18.940   6.738  0.00  0.00    -0.390 OA
HETATM   15  H   UNK N   1      21.960  19.545   6.811  0.00  0.00     0.210 HD
ENDBRANCH   5  14
BRANCH   2  16
HETATM   16  O   UNK N   1      22.813  13.858   5.701  0.00  0.00    -0.369 OA
HETATM   17  H   UNK N   1      23.484  13.557   5.068  0.00  0.00     0.212 HD
ENDBRANCH   2  16
BRANCH   6  18
HETATM   18  O   UNK N   1      20.422  16.931   8.522  0.00  0.00    -0.391 OA
HETATM   19  H   UNK N   1      19.733  17.599   8.385  0.00  0.00     0.210 HD
ENDBRANCH   6  18
BRANCH   1  20
HETATM   20  N   UNK N   1      21.815  14.419   8.277  0.00  0.00    -0.349 N 
HETATM   21  C   UNK N   1      20.848  13.948   9.103  0.00  0.00     0.214 C 
HETATM   22  C   UNK N   1      21.219  13.085  10.258  0.00  0.00     0.117 C 
HETATM   23  O   UNK N   1      19.672  14.216   8.908  0.00  0.00    -0.274 OA
HETATM   24  H   UNK N   1      22.753  14.176   8.451  0.00  0.00     0.163 HD
ENDBRANCH   1  20
TORSDOF 8
ENDMDL
