REMARK  7 active torsions:
REMARK  status: ('A' for Active; 'I' for Inactive)
REMARK    1  A    between atoms: O_1  and  C_2 
REMARK    2  A    between atoms: C_3  and  C_4 
REMARK    3  A    between atoms: C_4  and  C_5 
REMARK    4  A    between atoms: C_4  and  C_8 
REMARK    5  A    between atoms: C_12  and  N_13 
REMARK    6  A    between atoms: N_13  and  S_14 
REMARK    7  A    between atoms: S_14  and  C_17 
ROOT
HETATM    1  C   UNK N   1      -1.232   0.623  -0.136  0.00  0.00     0.065 C 
ENDROOT
BRANCH   1   2
HETATM    2  C   UNK N   1       0.038  -0.256  -0.062  0.00  0.00     0.060 A 
HETATM    3  C   UNK N   1       1.244   0.292   0.444  0.00  0.00     0.087 A 
HETATM    4  C   UNK N   1       2.362  -0.525   0.607  0.00  0.00     0.006 A 
HETATM    5  C   UNK N   1       2.276  -1.878   0.273  0.00  0.00     0.066 A 
HETATM    6  C   UNK N   1       3.647   0.039   1.135  0.00  0.00     0.044 C 
HETATM    7  O   UNK N   1       1.166  -2.361  -0.270  0.00  0.00    -0.279 OA
HETATM    8  C   UNK N   1       3.417  -2.815   0.510  0.00  0.00     0.066 C 
HETATM    9  C   UNK N   1       0.091  -1.624  -0.469  0.00  0.00     0.297 A 
HETATM   10  O   UNK N   1      -0.861  -2.156  -1.033  0.00  0.00    -0.259 OA
HETATM   11  C   UNK N   1       4.345  -2.873  -0.689  0.00  0.00     0.006 C 
HETATM   12  C   UNK N   1       5.357  -1.737  -0.654  0.00  0.00     0.000 C 
HETATM   13  C   UNK N   1       4.727  -0.441  -1.143  0.00  0.00     0.000 C 
HETATM   14  C   UNK N   1       4.522   0.564  -0.007  0.00  0.00     0.005 C 
BRANCH   3  15
HETATM   15  O   UNK N   1       1.325   1.592   0.782  0.00  0.00    -0.359 OA
HETATM   16  H   UNK N   1       2.137   1.996   1.017  0.00  0.00     0.217 HD
ENDBRANCH   3  15
ENDBRANCH   1   2
BRANCH   1  17
HETATM   17  C   UNK N   1      -1.410   1.506   1.119  0.00  0.00    -0.001 A 
HETATM   18  C   UNK N   1      -2.589   2.469   0.999  0.00  0.00     0.006 A 
HETATM   19  C   UNK N   1      -1.189   2.964   0.742  0.00  0.00     0.006 A 
ENDBRANCH   1  17
BRANCH   1  20
HETATM   20  C   UNK N   1      -2.503  -0.170  -0.279  0.00  0.00    -0.047 A 
HETATM   21  C   UNK N   1      -2.746  -1.280   0.553  0.00  0.00     0.008 A 
HETATM   22  C   UNK N   1      -3.940  -1.979   0.462  0.00  0.00     0.003 A 
HETATM   23  C   UNK N   1      -4.947  -1.486  -0.350  0.00  0.00     0.030 A 
HETATM   24  C   UNK N   1      -4.754  -0.329  -1.114  0.00  0.00     0.043 A 
HETATM   25  C   UNK N   1      -3.522   0.317  -1.096  0.00  0.00     0.038 A 
BRANCH  24  26
HETATM   26  N   UNK N   1      -5.880   0.384  -1.558  0.00  0.00    -0.281 N 
HETATM   27  H   UNK N   1      -5.947   0.735  -2.475  0.00  0.00     0.179 HD
BRANCH  26  28
HETATM   28  S   UNK N   1      -7.159   0.613  -0.377  0.00  0.00     0.263 S 
HETATM   29  O   UNK N   1      -6.395   1.034   0.892  0.00  0.00    -0.200 OA
HETATM   30  O   UNK N   1      -7.879   1.914  -0.755  0.00  0.00    -0.200 OA
BRANCH  28  31
HETATM   31  C   UNK N   1      -8.184  -0.813  -0.052  0.00  0.00     0.079 A 
HETATM   32  C   UNK N   1      -7.672  -1.885   0.691  0.00  0.00     0.025 A 
HETATM   33  C   UNK N   1      -8.439  -3.032   0.892  0.00  0.00     0.002 A 
HETATM   34  C   UNK N   1      -9.726  -3.108   0.355  0.00  0.00     0.000 A 
HETATM   35  C   UNK N   1     -10.243  -2.033  -0.377  0.00  0.00     0.002 A 
HETATM   36  C   UNK N   1      -9.470  -0.888  -0.586  0.00  0.00     0.025 A 
ENDBRANCH  28  31
ENDBRANCH  26  28
ENDBRANCH  24  26
ENDBRANCH   1  20
TORSDOF 7
