MODEL 1
REMARK VINA RESULT:      -5.6      0.000      0.000
REMARK  26 active torsions:
REMARK  status: ('A' for Active; 'I' for Inactive)
REMARK    1  A    between atoms: C_2  and  C_3 
REMARK    2  A    between atoms: C_3  and  C_4 
REMARK    3  A    between atoms: C_4  and  C_5 
REMARK    4  A    between atoms: C_5  and  C_6 
REMARK    5  A    between atoms: C_6  and  C_7 
REMARK    6  A    between atoms: C_7  and  C_8 
REMARK    7  A    between atoms: C_8  and  C_9 
REMARK    8  A    between atoms: C_9  and  C_10 
REMARK    9  A    between atoms: C_10  and  C_11 
REMARK   10  A    between atoms: C_11  and  C_12 
REMARK   11  A    between atoms: C_12  and  C_13 
REMARK   12  A    between atoms: C_13  and  C_14 
REMARK   13  A    between atoms: C_14  and  C_15 
REMARK   14  A    between atoms: C_15  and  C_16 
REMARK   15  A    between atoms: C_16  and  O_17 
REMARK   16  A    between atoms: O_17  and  C_18 
REMARK   17  A    between atoms: C_18  and  C_19 
REMARK   18  A    between atoms: C_19  and  C_20 
REMARK   19  A    between atoms: C_19  and  O_32 
REMARK   20  A    between atoms: C_20  and  O_21 
REMARK   21  A    between atoms: P_22  and  O_21 
REMARK   22  A    between atoms: P_22  and  O_25 
REMARK   23  A    between atoms: O_25  and  C_26 
REMARK   24  A    between atoms: C_26  and  C_27 
REMARK   25  A    between atoms: C_27  and  N_28 
REMARK   26  A    between atoms: O_32  and  C_33 
ROOT
HETATM    1  C   UNK N   1      35.450  14.914  12.062  0.00  0.00     0.202 C 
ENDROOT
BRANCH   1   2
HETATM    2  O   UNK N   1      36.209  14.873  13.232  0.00  0.00    -0.389 OA
BRANCH   2   3
HETATM    3  C   UNK N   1      36.017  13.592  13.764  0.00  0.00     0.167 C 
BRANCH   3   4
HETATM    4  C   UNK N   1      35.099  12.767  12.869  0.00  0.00     0.026 C 
BRANCH   4   5
HETATM    5  C   UNK N   1      34.478  11.621  13.647  0.00  0.00     0.002 C 
BRANCH   5   6
HETATM    6  C   UNK N   1      35.433  11.191  14.744  0.00  0.00     0.000 C 
BRANCH   6   7
HETATM    7  C   UNK N   1      34.994   9.857  15.313  0.00  0.00     0.000 C 
BRANCH   7   8
HETATM    8  C   UNK N   1      34.697   9.994  16.798  0.00  0.00     0.000 C 
BRANCH   8   9
HETATM    9  C   UNK N   1      35.890  10.584  17.544  0.00  0.00     0.000 C 
BRANCH   9  10
HETATM   10  C   UNK N   1      35.461  11.675  18.517  0.00  0.00     0.000 C 
BRANCH  10  11
HETATM   11  C   UNK N   1      35.647  11.219  19.953  0.00  0.00     0.000 C 
BRANCH  11  12
HETATM   12  C   UNK N   1      34.311  10.875  20.579  0.00  0.00     0.000 C 
BRANCH  12  13
HETATM   13  C   UNK N   1      34.446   9.611  21.404  0.00  0.00     0.000 C 
BRANCH  13  14
HETATM   14  C   UNK N   1      34.048   8.409  20.575  0.00  0.00     0.000 C 
BRANCH  14  15
HETATM   15  C   UNK N   1      32.819   8.754  19.760  0.00  0.00     0.000 C 
BRANCH  15  16
HETATM   16  C   UNK N   1      31.584   8.596  20.619  0.00  0.00    -0.000 C 
BRANCH  16  17
HETATM   17  C   UNK N   1      31.285   7.123  20.800  0.00  0.00    -0.005 C 
HETATM   18  C   UNK N   1      31.297   6.439  19.450  0.00  0.00     0.005 C 
ENDBRANCH  16  17
ENDBRANCH  15  16
ENDBRANCH  14  15
ENDBRANCH  13  14
ENDBRANCH  12  13
ENDBRANCH  11  12
ENDBRANCH  10  11
ENDBRANCH   9  10
ENDBRANCH   8   9
ENDBRANCH   7   8
ENDBRANCH   6   7
ENDBRANCH   5   6
ENDBRANCH   4   5
ENDBRANCH   3   4
ENDBRANCH   2   3
ENDBRANCH   1   2
BRANCH   1  19
HETATM   19  C   UNK N   1      36.007  15.946  11.091  0.00  0.00     0.180 C 
BRANCH  19  20
HETATM   20  C   UNK N   1      34.951  16.242  10.034  0.00  0.00     0.216 C 
BRANCH  20  21
HETATM   21  O   UNK N   1      35.100  17.555   9.579  0.00  0.00    -0.287 OA
BRANCH  21  22
HETATM   22  P   UNK N   1      33.916  17.746   8.322  0.00  0.00     0.408 P 
HETATM   23  O   UNK N   1      35.057  19.056   8.288  0.00  0.00    -0.624 OA
HETATM   24  O   UNK N   1      34.632  16.418   7.947  0.00  0.00    -0.624 OA
BRANCH  22  25
HETATM   25  O   UNK N   1      34.409  18.089   6.685  0.00  0.00    -0.288 OA
BRANCH  25  26
HETATM   26  C   UNK N   1      33.842  17.083   5.895  0.00  0.00     0.209 C 
BRANCH  26  27
HETATM   27  C   UNK N   1      32.356  17.391   5.710  0.00  0.00     0.262 C 
BRANCH  27  28
HETATM   28  N   UNK N   1      31.550  16.212   5.392  0.00  0.00    -0.077 N 
HETATM   29  C   UNK N   1      30.159  16.540   5.639  0.00  0.00     0.271 C 
HETATM   30  C   UNK N   1      31.916  15.090   6.242  0.00  0.00     0.271 C 
HETATM   31  C   UNK N   1      31.682  15.829   3.993  0.00  0.00     0.271 C 
ENDBRANCH  27  28
ENDBRANCH  26  27
ENDBRANCH  25  26
ENDBRANCH  22  25
ENDBRANCH  21  22
ENDBRANCH  20  21
ENDBRANCH  19  20
BRANCH  19  32
HETATM   32  O   UNK N   1      37.171  15.471  10.516  0.00  0.00    -0.312 OA
BRANCH  32  33
HETATM   33  C   UNK N   1      37.291  14.234   9.964  0.00  0.00     0.255 C 
HETATM   34  C   UNK N   1      38.123  13.206  10.647  0.00  0.00     0.126 C 
HETATM   35  O   UNK N   1      36.731  13.954   8.915  0.00  0.00    -0.266 OA
ENDBRANCH  32  33
ENDBRANCH  19  32
ENDBRANCH   1  19
TORSDOF 26
ENDMDL
MODEL 2
REMARK VINA RESULT:      -5.5      3.709     11.705
REMARK  26 active torsions:
REMARK  status: ('A' for Active; 'I' for Inactive)
REMARK    1  A    between atoms: C_2  and  C_3 
REMARK    2  A    between atoms: C_3  and  C_4 
REMARK    3  A    between atoms: C_4  and  C_5 
REMARK    4  A    between atoms: C_5  and  C_6 
REMARK    5  A    between atoms: C_6  and  C_7 
REMARK    6  A    between atoms: C_7  and  C_8 
REMARK    7  A    between atoms: C_8  and  C_9 
REMARK    8  A    between atoms: C_9  and  C_10 
REMARK    9  A    between atoms: C_10  and  C_11 
REMARK   10  A    between atoms: C_11  and  C_12 
REMARK   11  A    between atoms: C_12  and  C_13 
REMARK   12  A    between atoms: C_13  and  C_14 
REMARK   13  A    between atoms: C_14  and  C_15 
REMARK   14  A    between atoms: C_15  and  C_16 
REMARK   15  A    between atoms: C_16  and  O_17 
REMARK   16  A    between atoms: O_17  and  C_18 
REMARK   17  A    between atoms: C_18  and  C_19 
REMARK   18  A    between atoms: C_19  and  C_20 
REMARK   19  A    between atoms: C_19  and  O_32 
REMARK   20  A    between atoms: C_20  and  O_21 
REMARK   21  A    between atoms: P_22  and  O_21 
REMARK   22  A    between atoms: P_22  and  O_25 
REMARK   23  A    between atoms: O_25  and  C_26 
REMARK   24  A    between atoms: C_26  and  C_27 
REMARK   25  A    between atoms: C_27  and  N_28 
REMARK   26  A    between atoms: O_32  and  C_33 
ROOT
HETATM    1  C   UNK N   1      36.127  15.616  10.876  0.00  0.00     0.202 C 
ENDROOT
BRANCH   1   2
HETATM    2  O   UNK N   1      34.852  16.009  10.467  0.00  0.00    -0.389 OA
BRANCH   2   3
HETATM    3  C   UNK N   1      35.054  17.034   9.534  0.00  0.00     0.167 C 
BRANCH   3   4
HETATM    4  C   UNK N   1      33.942  17.042   8.491  0.00  0.00     0.026 C 
BRANCH   4   5
HETATM    5  C   UNK N   1      32.926  15.950   8.780  0.00  0.00     0.002 C 
BRANCH   5   6
HETATM    6  C   UNK N   1      31.530  16.536   8.691  0.00  0.00     0.000 C 
BRANCH   6   7
HETATM    7  C   UNK N   1      31.614  18.030   8.456  0.00  0.00     0.000 C 
BRANCH   7   8
HETATM    8  C   UNK N   1      30.433  18.730   9.109  0.00  0.00     0.000 C 
BRANCH   8   9
HETATM    9  C   UNK N   1      29.429  17.719   9.655  0.00  0.00     0.000 C 
BRANCH   9  10
HETATM   10  C   UNK N   1      28.044  17.919   9.053  0.00  0.00     0.000 C 
BRANCH  10  11
HETATM   11  C   UNK N   1      28.111  18.828   7.839  0.00  0.00     0.000 C 
BRANCH  11  12
HETATM   12  C   UNK N   1      27.785  18.056   6.577  0.00  0.00     0.000 C 
BRANCH  12  13
HETATM   13  C   UNK N   1      29.040  17.885   5.747  0.00  0.00     0.000 C 
BRANCH  13  14
HETATM   14  C   UNK N   1      29.389  16.416   5.637  0.00  0.00     0.000 C 
BRANCH  14  15
HETATM   15  C   UNK N   1      30.836  16.282   5.209  0.00  0.00     0.000 C 
BRANCH  15  16
HETATM   16  C   UNK N   1      31.319  17.600   4.643  0.00  0.00    -0.000 C 
BRANCH  16  17
HETATM   17  C   UNK N   1      32.688  17.408   4.027  0.00  0.00    -0.005 C 
HETATM   18  C   UNK N   1      33.498  16.463   4.888  0.00  0.00     0.005 C 
ENDBRANCH  16  17
ENDBRANCH  15  16
ENDBRANCH  14  15
ENDBRANCH  13  14
ENDBRANCH  12  13
ENDBRANCH  11  12
ENDBRANCH  10  11
ENDBRANCH   9  10
ENDBRANCH   8   9
ENDBRANCH   7   8
ENDBRANCH   6   7
ENDBRANCH   5   6
ENDBRANCH   4   5
ENDBRANCH   3   4
ENDBRANCH   2   3
ENDBRANCH   1   2
BRANCH   1  19
HETATM   19  C   UNK N   1      36.139  14.145  11.272  0.00  0.00     0.180 C 
BRANCH  19  20
HETATM   20  C   UNK N   1      35.501  14.004  12.647  0.00  0.00     0.216 C 
BRANCH  20  21
HETATM   21  O   UNK N   1      36.452  14.276  13.635  0.00  0.00    -0.287 OA
BRANCH  21  22
HETATM   22  P   UNK N   1      36.273  13.011  14.811  0.00  0.00     0.408 P 
HETATM   23  O   UNK N   1      37.056  14.392  15.517  0.00  0.00    -0.624 OA
HETATM   24  O   UNK N   1      34.806  13.373  14.442  0.00  0.00    -0.624 OA
BRANCH  22  25
HETATM   25  O   UNK N   1      35.611  13.355  16.388  0.00  0.00    -0.288 OA
BRANCH  25  26
HETATM   26  C   UNK N   1      35.412  12.112  16.999  0.00  0.00     0.209 C 
BRANCH  26  27
HETATM   27  C   UNK N   1      36.332  11.090  16.333  0.00  0.00     0.262 C 
BRANCH  27  28
HETATM   28  N   UNK N   1      35.867   9.709  16.469  0.00  0.00    -0.077 N 
HETATM   29  C   UNK N   1      34.731   9.706  17.371  0.00  0.00     0.271 C 
HETATM   30  C   UNK N   1      36.907   8.866  17.036  0.00  0.00     0.271 C 
HETATM   31  C   UNK N   1      35.432   9.159  15.193  0.00  0.00     0.271 C 
ENDBRANCH  27  28
ENDBRANCH  26  27
ENDBRANCH  25  26
ENDBRANCH  22  25
ENDBRANCH  21  22
ENDBRANCH  20  21
ENDBRANCH  19  20
BRANCH  19  32
HETATM   32  O   UNK N   1      37.437  13.670  11.271  0.00  0.00    -0.312 OA
BRANCH  32  33
HETATM   33  C   UNK N   1      37.809  12.487  10.713  0.00  0.00     0.255 C 
HETATM   34  C   UNK N   1      37.738  11.241  11.524  0.00  0.00     0.126 C 
HETATM   35  O   UNK N   1      38.204  12.431   9.558  0.00  0.00    -0.266 OA
ENDBRANCH  32  33
ENDBRANCH  19  32
ENDBRANCH   1  19
TORSDOF 26
ENDMDL
MODEL 3
REMARK VINA RESULT:      -5.5      1.906      3.641
REMARK  26 active torsions:
REMARK  status: ('A' for Active; 'I' for Inactive)
REMARK    1  A    between atoms: C_2  and  C_3 
REMARK    2  A    between atoms: C_3  and  C_4 
REMARK    3  A    between atoms: C_4  and  C_5 
REMARK    4  A    between atoms: C_5  and  C_6 
REMARK    5  A    between atoms: C_6  and  C_7 
REMARK    6  A    between atoms: C_7  and  C_8 
REMARK    7  A    between atoms: C_8  and  C_9 
REMARK    8  A    between atoms: C_9  and  C_10 
REMARK    9  A    between atoms: C_10  and  C_11 
REMARK   10  A    between atoms: C_11  and  C_12 
REMARK   11  A    between atoms: C_12  and  C_13 
REMARK   12  A    between atoms: C_13  and  C_14 
REMARK   13  A    between atoms: C_14  and  C_15 
REMARK   14  A    between atoms: C_15  and  C_16 
REMARK   15  A    between atoms: C_16  and  O_17 
REMARK   16  A    between atoms: O_17  and  C_18 
REMARK   17  A    between atoms: C_18  and  C_19 
REMARK   18  A    between atoms: C_19  and  C_20 
REMARK   19  A    between atoms: C_19  and  O_32 
REMARK   20  A    between atoms: C_20  and  O_21 
REMARK   21  A    between atoms: P_22  and  O_21 
REMARK   22  A    between atoms: P_22  and  O_25 
REMARK   23  A    between atoms: O_25  and  C_26 
REMARK   24  A    between atoms: C_26  and  C_27 
REMARK   25  A    between atoms: C_27  and  N_28 
REMARK   26  A    between atoms: O_32  and  C_33 
ROOT
HETATM    1  C   UNK N   1      35.887  15.398  11.792  0.00  0.00     0.202 C 
ENDROOT
BRANCH   1   2
HETATM    2  O   UNK N   1      36.497  14.306  12.410  0.00  0.00    -0.389 OA
BRANCH   2   3
HETATM    3  C   UNK N   1      35.745  14.054  13.564  0.00  0.00     0.167 C 
BRANCH   3   4
HETATM    4  C   UNK N   1      36.525  13.180  14.538  0.00  0.00     0.026 C 
BRANCH   4   5
HETATM    5  C   UNK N   1      36.332  13.661  15.965  0.00  0.00     0.002 C 
BRANCH   5   6
HETATM    6  C   UNK N   1      35.001  13.153  16.485  0.00  0.00     0.000 C 
BRANCH   6   7
HETATM    7  C   UNK N   1      35.049  13.041  17.995  0.00  0.00     0.000 C 
BRANCH   7   8
HETATM    8  C   UNK N   1      35.785  11.774  18.402  0.00  0.00     0.000 C 
BRANCH   8   9
HETATM    9  C   UNK N   1      34.817  10.724  18.941  0.00  0.00     0.000 C 
BRANCH   9  10
HETATM   10  C   UNK N   1      35.317   9.310  18.678  0.00  0.00     0.000 C 
BRANCH  10  11
HETATM   11  C   UNK N   1      36.714   9.334  18.083  0.00  0.00     0.000 C 
BRANCH  11  12
HETATM   12  C   UNK N   1      36.733   8.632  16.741  0.00  0.00     0.000 C 
BRANCH  12  13
HETATM   13  C   UNK N   1      37.134   9.613  15.659  0.00  0.00     0.000 C 
BRANCH  13  14
HETATM   14  C   UNK N   1      36.107   9.605  14.548  0.00  0.00     0.000 C 
BRANCH  14  15
HETATM   15  C   UNK N   1      34.746   9.928  15.128  0.00  0.00     0.000 C 
BRANCH  15  16
HETATM   16  C   UNK N   1      33.865  10.520  14.049  0.00  0.00    -0.000 C 
BRANCH  16  17
HETATM   17  C   UNK N   1      34.572  10.418  12.714  0.00  0.00    -0.005 C 
HETATM   18  C   UNK N   1      33.575  10.023  11.647  0.00  0.00     0.005 C 
ENDBRANCH  16  17
ENDBRANCH  15  16
ENDBRANCH  14  15
ENDBRANCH  13  14
ENDBRANCH  12  13
ENDBRANCH  11  12
ENDBRANCH  10  11
ENDBRANCH   9  10
ENDBRANCH   8   9
ENDBRANCH   7   8
ENDBRANCH   6   7
ENDBRANCH   5   6
ENDBRANCH   4   5
ENDBRANCH   3   4
ENDBRANCH   2   3
ENDBRANCH   1   2
BRANCH   1  19
HETATM   19  C   UNK N   1      35.974  15.281  10.276  0.00  0.00     0.180 C 
BRANCH  19  20
HETATM   20  C   UNK N   1      34.727  15.906   9.665  0.00  0.00     0.216 C 
BRANCH  20  21
HETATM   21  O   UNK N   1      35.074  17.082   8.993  0.00  0.00    -0.287 OA
BRANCH  21  22
HETATM   22  P   UNK N   1      33.867  17.284   7.761  0.00  0.00     0.408 P 
HETATM   23  O   UNK N   1      34.882  18.690   7.855  0.00  0.00    -0.624 OA
HETATM   24  O   UNK N   1      34.699  16.070   7.258  0.00  0.00    -0.624 OA
BRANCH  22  25
HETATM   25  O   UNK N   1      34.313  17.828   6.165  0.00  0.00    -0.288 OA
BRANCH  25  26
HETATM   26  C   UNK N   1      33.341  17.315   5.300  0.00  0.00     0.209 C 
BRANCH  26  27
HETATM   27  C   UNK N   1      31.988  17.353   6.011  0.00  0.00     0.262 C 
BRANCH  27  28
HETATM   28  N   UNK N   1      30.901  16.761   5.230  0.00  0.00    -0.077 N 
HETATM   29  C   UNK N   1      31.266  16.831   3.829  0.00  0.00     0.271 C 
HETATM   30  C   UNK N   1      29.664  17.502   5.421  0.00  0.00     0.271 C 
HETATM   31  C   UNK N   1      30.691  15.361   5.572  0.00  0.00     0.271 C 
ENDBRANCH  27  28
ENDBRANCH  26  27
ENDBRANCH  25  26
ENDBRANCH  22  25
ENDBRANCH  21  22
ENDBRANCH  20  21
ENDBRANCH  19  20
BRANCH  19  32
HETATM   32  O   UNK N   1      36.097  13.953   9.914  0.00  0.00    -0.312 OA
BRANCH  32  33
HETATM   33  C   UNK N   1      37.151  13.453   9.218  0.00  0.00     0.255 C 
HETATM   34  C   UNK N   1      37.234  13.682   7.749  0.00  0.00     0.126 C 
HETATM   35  O   UNK N   1      38.032  12.815   9.776  0.00  0.00    -0.266 OA
ENDBRANCH  32  33
ENDBRANCH  19  32
ENDBRANCH   1  19
TORSDOF 26
ENDMDL
MODEL 4
REMARK VINA RESULT:      -5.5      4.663     12.644
REMARK  26 active torsions:
REMARK  status: ('A' for Active; 'I' for Inactive)
REMARK    1  A    between atoms: C_2  and  C_3 
REMARK    2  A    between atoms: C_3  and  C_4 
REMARK    3  A    between atoms: C_4  and  C_5 
REMARK    4  A    between atoms: C_5  and  C_6 
REMARK    5  A    between atoms: C_6  and  C_7 
REMARK    6  A    between atoms: C_7  and  C_8 
REMARK    7  A    between atoms: C_8  and  C_9 
REMARK    8  A    between atoms: C_9  and  C_10 
REMARK    9  A    between atoms: C_10  and  C_11 
REMARK   10  A    between atoms: C_11  and  C_12 
REMARK   11  A    between atoms: C_12  and  C_13 
REMARK   12  A    between atoms: C_13  and  C_14 
REMARK   13  A    between atoms: C_14  and  C_15 
REMARK   14  A    between atoms: C_15  and  C_16 
REMARK   15  A    between atoms: C_16  and  O_17 
REMARK   16  A    between atoms: O_17  and  C_18 
REMARK   17  A    between atoms: C_18  and  C_19 
REMARK   18  A    between atoms: C_19  and  C_20 
REMARK   19  A    between atoms: C_19  and  O_32 
REMARK   20  A    between atoms: C_20  and  O_21 
REMARK   21  A    between atoms: P_22  and  O_21 
REMARK   22  A    between atoms: P_22  and  O_25 
REMARK   23  A    between atoms: O_25  and  C_26 
REMARK   24  A    between atoms: C_26  and  C_27 
REMARK   25  A    between atoms: C_27  and  N_28 
REMARK   26  A    between atoms: O_32  and  C_33 
ROOT
HETATM    1  C   UNK N   1      31.883  17.085   8.656  0.00  0.00     0.202 C 
ENDROOT
BRANCH   1   2
HETATM    2  O   UNK N   1      31.676  18.464   8.712  0.00  0.00    -0.389 OA
BRANCH   2   3
HETATM    3  C   UNK N   1      30.318  18.631   9.010  0.00  0.00     0.167 C 
BRANCH   3   4
HETATM    4  C   UNK N   1      29.511  17.421   8.553  0.00  0.00     0.026 C 
BRANCH   4   5
HETATM    5  C   UNK N   1      28.152  17.849   8.027  0.00  0.00     0.002 C 
BRANCH   5   6
HETATM    6  C   UNK N   1      27.890  17.153   6.706  0.00  0.00     0.000 C 
BRANCH   6   7
HETATM    7  C   UNK N   1      29.203  16.739   6.074  0.00  0.00     0.000 C 
BRANCH   7   8
HETATM    8  C   UNK N   1      29.271  17.236   4.638  0.00  0.00     0.000 C 
BRANCH   8   9
HETATM    9  C   UNK N   1      29.471  16.078   3.665  0.00  0.00     0.000 C 
BRANCH   9  10
HETATM   10  C   UNK N   1      28.214  15.227   3.538  0.00  0.00     0.000 C 
BRANCH  10  11
HETATM   11  C   UNK N   1      27.168  15.934   2.694  0.00  0.00     0.000 C 
BRANCH  11  12
HETATM   12  C   UNK N   1      25.964  16.300   3.536  0.00  0.00     0.000 C 
BRANCH  12  13
HETATM   13  C   UNK N   1      25.643  17.769   3.354  0.00  0.00     0.000 C 
BRANCH  13  14
HETATM   14  C   UNK N   1      25.113  18.346   4.648  0.00  0.00     0.000 C 
BRANCH  14  15
HETATM   15  C   UNK N   1      25.474  19.815   4.721  0.00  0.00     0.000 C 
BRANCH  15  16
HETATM   16  C   UNK N   1      26.865  20.020   4.161  0.00  0.00    -0.000 C 
BRANCH  16  17
HETATM   17  C   UNK N   1      27.790  20.472   5.271  0.00  0.00    -0.005 C 
HETATM   18  C   UNK N   1      27.086  21.508   6.120  0.00  0.00     0.005 C 
ENDBRANCH  16  17
ENDBRANCH  15  16
ENDBRANCH  14  15
ENDBRANCH  13  14
ENDBRANCH  12  13
ENDBRANCH  11  12
ENDBRANCH  10  11
ENDBRANCH   9  10
ENDBRANCH   8   9
ENDBRANCH   7   8
ENDBRANCH   6   7
ENDBRANCH   5   6
ENDBRANCH   4   5
ENDBRANCH   3   4
ENDBRANCH   2   3
ENDBRANCH   1   2
BRANCH   1  19
HETATM   19  C   UNK N   1      32.935  16.737   7.612  0.00  0.00     0.180 C 
BRANCH  19  20
HETATM   20  C   UNK N   1      34.314  16.996   8.203  0.00  0.00     0.216 C 
BRANCH  20  21
HETATM   21  O   UNK N   1      34.251  16.908   9.596  0.00  0.00    -0.287 OA
BRANCH  21  22
HETATM   22  P   UNK N   1      35.443  15.725  10.039  0.00  0.00     0.408 P 
HETATM   23  O   UNK N   1      35.932  17.308  10.561  0.00  0.00    -0.624 OA
HETATM   24  O   UNK N   1      34.180  15.280  10.830  0.00  0.00    -0.624 OA
BRANCH  22  25
HETATM   25  O   UNK N   1      36.074  15.669  11.664  0.00  0.00    -0.288 OA
BRANCH  25  26
HETATM   26  C   UNK N   1      35.580  14.487  12.226  0.00  0.00     0.209 C 
BRANCH  26  27
HETATM   27  C   UNK N   1      36.710  13.458  12.265  0.00  0.00     0.262 C 
BRANCH  27  28
HETATM   28  N   UNK N   1      36.240  12.073  12.225  0.00  0.00    -0.077 N 
HETATM   29  C   UNK N   1      35.727  11.735  13.539  0.00  0.00     0.271 C 
HETATM   30  C   UNK N   1      37.332  11.165  11.911  0.00  0.00     0.271 C 
HETATM   31  C   UNK N   1      35.163  11.896  11.261  0.00  0.00     0.271 C 
ENDBRANCH  27  28
ENDBRANCH  26  27
ENDBRANCH  25  26
ENDBRANCH  22  25
ENDBRANCH  21  22
ENDBRANCH  20  21
ENDBRANCH  19  20
BRANCH  19  32
HETATM   32  O   UNK N   1      32.730  17.489   6.470  0.00  0.00    -0.312 OA
BRANCH  32  33
HETATM   33  C   UNK N   1      32.911  17.014   5.210  0.00  0.00     0.255 C 
HETATM   34  C   UNK N   1      32.971  15.544   4.982  0.00  0.00     0.126 C 
HETATM   35  O   UNK N   1      33.031  17.774   4.260  0.00  0.00    -0.266 OA
ENDBRANCH  32  33
ENDBRANCH  19  32
ENDBRANCH   1  19
TORSDOF 26
ENDMDL
MODEL 5
REMARK VINA RESULT:      -5.4     12.339     16.333
REMARK  26 active torsions:
REMARK  status: ('A' for Active; 'I' for Inactive)
REMARK    1  A    between atoms: C_2  and  C_3 
REMARK    2  A    between atoms: C_3  and  C_4 
REMARK    3  A    between atoms: C_4  and  C_5 
REMARK    4  A    between atoms: C_5  and  C_6 
REMARK    5  A    between atoms: C_6  and  C_7 
REMARK    6  A    between atoms: C_7  and  C_8 
REMARK    7  A    between atoms: C_8  and  C_9 
REMARK    8  A    between atoms: C_9  and  C_10 
REMARK    9  A    between atoms: C_10  and  C_11 
REMARK   10  A    between atoms: C_11  and  C_12 
REMARK   11  A    between atoms: C_12  and  C_13 
REMARK   12  A    between atoms: C_13  and  C_14 
REMARK   13  A    between atoms: C_14  and  C_15 
REMARK   14  A    between atoms: C_15  and  C_16 
REMARK   15  A    between atoms: C_16  and  O_17 
REMARK   16  A    between atoms: O_17  and  C_18 
REMARK   17  A    between atoms: C_18  and  C_19 
REMARK   18  A    between atoms: C_19  and  C_20 
REMARK   19  A    between atoms: C_19  and  O_32 
REMARK   20  A    between atoms: C_20  and  O_21 
REMARK   21  A    between atoms: P_22  and  O_21 
REMARK   22  A    between atoms: P_22  and  O_25 
REMARK   23  A    between atoms: O_25  and  C_26 
REMARK   24  A    between atoms: C_26  and  C_27 
REMARK   25  A    between atoms: C_27  and  N_28 
REMARK   26  A    between atoms: O_32  and  C_33 
ROOT
HETATM    1  C   UNK N   1      21.797  17.324   4.192  0.00  0.00     0.202 C 
ENDROOT
BRANCH   1   2
HETATM    2  O   UNK N   1      22.995  16.634   4.376  0.00  0.00    -0.389 OA
BRANCH   2   3
HETATM    3  C   UNK N   1      23.170  15.865   3.219  0.00  0.00     0.167 C 
BRANCH   3   4
HETATM    4  C   UNK N   1      23.377  14.397   3.571  0.00  0.00     0.026 C 
BRANCH   4   5
HETATM    5  C   UNK N   1      24.365  13.749   2.617  0.00  0.00     0.002 C 
BRANCH   5   6
HETATM    6  C   UNK N   1      25.061  14.830   1.813  0.00  0.00     0.000 C 
BRANCH   6   7
HETATM    7  C   UNK N   1      26.561  14.721   1.997  0.00  0.00     0.000 C 
BRANCH   7   8
HETATM    8  C   UNK N   1      27.085  15.929   2.757  0.00  0.00     0.000 C 
BRANCH   8   9
HETATM    9  C   UNK N   1      27.675  15.519   4.103  0.00  0.00     0.000 C 
BRANCH   9  10
HETATM   10  C   UNK N   1      26.611  15.465   5.191  0.00  0.00     0.000 C 
BRANCH  10  11
HETATM   11  C   UNK N   1      26.580  16.762   5.979  0.00  0.00     0.000 C 
BRANCH  11  12
HETATM   12  C   UNK N   1      27.943  17.061   6.566  0.00  0.00     0.000 C 
BRANCH  12  13
HETATM   13  C   UNK N   1      28.453  18.381   6.024  0.00  0.00     0.000 C 
BRANCH  13  14
HETATM   14  C   UNK N   1      27.763  19.529   6.728  0.00  0.00     0.000 C 
BRANCH  14  15
HETATM   15  C   UNK N   1      27.292  20.532   5.695  0.00  0.00     0.000 C 
BRANCH  15  16
HETATM   16  C   UNK N   1      27.530  19.976   4.308  0.00  0.00    -0.000 C 
BRANCH  16  17
HETATM   17  C   UNK N   1      26.341  20.300   3.428  0.00  0.00    -0.005 C 
HETATM   18  C   UNK N   1      25.419  19.101   3.369  0.00  0.00     0.005 C 
ENDBRANCH  16  17
ENDBRANCH  15  16
ENDBRANCH  14  15
ENDBRANCH  13  14
ENDBRANCH  12  13
ENDBRANCH  11  12
ENDBRANCH  10  11
ENDBRANCH   9  10
ENDBRANCH   8   9
ENDBRANCH   7   8
ENDBRANCH   6   7
ENDBRANCH   5   6
ENDBRANCH   4   5
ENDBRANCH   3   4
ENDBRANCH   2   3
ENDBRANCH   1   2
BRANCH   1  19
HETATM   19  C   UNK N   1      21.734  18.550   5.094  0.00  0.00     0.180 C 
BRANCH  19  20
HETATM   20  C   UNK N   1      21.308  18.109   6.488  0.00  0.00     0.216 C 
BRANCH  20  21
HETATM   21  O   UNK N   1      20.442  17.016   6.390  0.00  0.00    -0.287 OA
BRANCH  21  22
HETATM   22  P   UNK N   1      20.261  16.422   8.012  0.00  0.00     0.408 P 
HETATM   23  O   UNK N   1      19.092  15.686   6.959  0.00  0.00    -0.624 OA
HETATM   24  O   UNK N   1      21.691  15.957   7.612  0.00  0.00    -0.624 OA
BRANCH  22  25
HETATM   25  O   UNK N   1      20.149  14.709   8.320  0.00  0.00    -0.288 OA
BRANCH  25  26
HETATM   26  C   UNK N   1      20.917  14.474   9.465  0.00  0.00     0.209 C 
BRANCH  26  27
HETATM   27  C   UNK N   1      21.089  12.965   9.635  0.00  0.00     0.262 C 
BRANCH  27  28
HETATM   28  N   UNK N   1      22.424  12.485   9.277  0.00  0.00    -0.077 N 
HETATM   29  C   UNK N   1      22.773  11.411  10.188  0.00  0.00     0.271 C 
HETATM   30  C   UNK N   1      23.409  13.545   9.416  0.00  0.00     0.271 C 
HETATM   31  C   UNK N   1      22.461  11.956   7.921  0.00  0.00     0.271 C 
ENDBRANCH  27  28
ENDBRANCH  26  27
ENDBRANCH  25  26
ENDBRANCH  22  25
ENDBRANCH  21  22
ENDBRANCH  20  21
ENDBRANCH  19  20
BRANCH  19  32
HETATM   32  O   UNK N   1      20.850  19.474   4.569  0.00  0.00    -0.312 OA
BRANCH  32  33
HETATM   33  C   UNK N   1      20.831  19.843   3.261  0.00  0.00     0.255 C 
HETATM   34  C   UNK N   1      22.040  20.469   2.659  0.00  0.00     0.126 C 
HETATM   35  O   UNK N   1      19.836  19.673   2.572  0.00  0.00    -0.266 OA
ENDBRANCH  32  33
ENDBRANCH  19  32
ENDBRANCH   1  19
TORSDOF 26
ENDMDL
MODEL 6
REMARK VINA RESULT:      -5.3     11.777     15.992
REMARK  26 active torsions:
REMARK  status: ('A' for Active; 'I' for Inactive)
REMARK    1  A    between atoms: C_2  and  C_3 
REMARK    2  A    between atoms: C_3  and  C_4 
REMARK    3  A    between atoms: C_4  and  C_5 
REMARK    4  A    between atoms: C_5  and  C_6 
REMARK    5  A    between atoms: C_6  and  C_7 
REMARK    6  A    between atoms: C_7  and  C_8 
REMARK    7  A    between atoms: C_8  and  C_9 
REMARK    8  A    between atoms: C_9  and  C_10 
REMARK    9  A    between atoms: C_10  and  C_11 
REMARK   10  A    between atoms: C_11  and  C_12 
REMARK   11  A    between atoms: C_12  and  C_13 
REMARK   12  A    between atoms: C_13  and  C_14 
REMARK   13  A    between atoms: C_14  and  C_15 
REMARK   14  A    between atoms: C_15  and  C_16 
REMARK   15  A    between atoms: C_16  and  O_17 
REMARK   16  A    between atoms: O_17  and  C_18 
REMARK   17  A    between atoms: C_18  and  C_19 
REMARK   18  A    between atoms: C_19  and  C_20 
REMARK   19  A    between atoms: C_19  and  O_32 
REMARK   20  A    between atoms: C_20  and  O_21 
REMARK   21  A    between atoms: P_22  and  O_21 
REMARK   22  A    between atoms: P_22  and  O_25 
REMARK   23  A    between atoms: O_25  and  C_26 
REMARK   24  A    between atoms: C_26  and  C_27 
REMARK   25  A    between atoms: C_27  and  N_28 
REMARK   26  A    between atoms: O_32  and  C_33 
ROOT
HETATM    1  C   UNK N   1      22.813  16.896   4.179  0.00  0.00     0.202 C 
ENDROOT
BRANCH   1   2
HETATM    2  O   UNK N   1      24.113  17.379   4.030  0.00  0.00    -0.389 OA
BRANCH   2   3
HETATM    3  C   UNK N   1      24.853  16.801   5.069  0.00  0.00     0.167 C 
BRANCH   3   4
HETATM    4  C   UNK N   1      25.994  15.956   4.515  0.00  0.00     0.026 C 
BRANCH   4   5
HETATM    5  C   UNK N   1      26.650  16.647   3.333  0.00  0.00     0.002 C 
BRANCH   5   6
HETATM    6  C   UNK N   1      27.628  15.691   2.679  0.00  0.00     0.000 C 
BRANCH   6   7
HETATM    7  C   UNK N   1      29.048  16.153   2.937  0.00  0.00     0.000 C 
BRANCH   7   8
HETATM    8  C   UNK N   1      29.841  15.050   3.621  0.00  0.00     0.000 C 
BRANCH   8   9
HETATM    9  C   UNK N   1      29.867  15.249   5.134  0.00  0.00     0.000 C 
BRANCH   9  10
HETATM   10  C   UNK N   1      30.365  16.638   5.510  0.00  0.00     0.000 C 
BRANCH  10  11
HETATM   11  C   UNK N   1      29.463  17.269   6.556  0.00  0.00     0.000 C 
BRANCH  11  12
HETATM   12  C   UNK N   1      28.546  18.293   5.919  0.00  0.00     0.000 C 
BRANCH  12  13
HETATM   13  C   UNK N   1      27.895  19.133   6.999  0.00  0.00     0.000 C 
BRANCH  13  14
HETATM   14  C   UNK N   1      27.656  20.537   6.487  0.00  0.00     0.000 C 
BRANCH  14  15
HETATM   15  C   UNK N   1      27.467  20.490   4.985  0.00  0.00     0.000 C 
BRANCH  15  16
HETATM   16  C   UNK N   1      25.990  20.417   4.664  0.00  0.00    -0.000 C 
BRANCH  16  17
HETATM   17  C   UNK N   1      25.809  20.277   3.167  0.00  0.00    -0.005 C 
HETATM   18  C   UNK N   1      24.373  20.588   2.804  0.00  0.00     0.005 C 
ENDBRANCH  16  17
ENDBRANCH  15  16
ENDBRANCH  14  15
ENDBRANCH  13  14
ENDBRANCH  12  13
ENDBRANCH  11  12
ENDBRANCH  10  11
ENDBRANCH   9  10
ENDBRANCH   8   9
ENDBRANCH   7   8
ENDBRANCH   6   7
ENDBRANCH   5   6
ENDBRANCH   4   5
ENDBRANCH   3   4
ENDBRANCH   2   3
ENDBRANCH   1   2
BRANCH   1  19
HETATM   19  C   UNK N   1      21.852  18.025   4.529  0.00  0.00     0.180 C 
BRANCH  19  20
HETATM   20  C   UNK N   1      21.520  17.942   6.012  0.00  0.00     0.216 C 
BRANCH  20  21
HETATM   21  O   UNK N   1      20.537  16.971   6.219  0.00  0.00    -0.287 OA
BRANCH  21  22
HETATM   22  P   UNK N   1      21.194  15.893   7.411  0.00  0.00     0.408 P 
HETATM   23  O   UNK N   1      20.707  17.390   8.146  0.00  0.00    -0.624 OA
HETATM   24  O   UNK N   1      19.942  15.134   6.888  0.00  0.00    -0.624 OA
BRANCH  22  25
HETATM   25  O   UNK N   1      20.341  15.596   8.903  0.00  0.00    -0.288 OA
BRANCH  25  26
HETATM   26  C   UNK N   1      20.394  14.213   9.107  0.00  0.00     0.209 C 
BRANCH  26  27
HETATM   27  C   UNK N   1      21.645  13.890   9.924  0.00  0.00     0.262 C 
BRANCH  27  28
HETATM   28  N   UNK N   1      22.431  12.784   9.376  0.00  0.00    -0.077 N 
HETATM   29  C   UNK N   1      21.757  12.301   8.186  0.00  0.00     0.271 C 
HETATM   30  C   UNK N   1      22.519  11.690  10.330  0.00  0.00     0.271 C 
HETATM   31  C   UNK N   1      23.770  13.211   8.995  0.00  0.00     0.271 C 
ENDBRANCH  27  28
ENDBRANCH  26  27
ENDBRANCH  25  26
ENDBRANCH  22  25
ENDBRANCH  21  22
ENDBRANCH  20  21
ENDBRANCH  19  20
BRANCH  19  32
HETATM   32  O   UNK N   1      20.712  17.928   3.754  0.00  0.00    -0.312 OA
BRANCH  32  33
HETATM   33  C   UNK N   1      20.478  18.690   2.653  0.00  0.00     0.255 C 
HETATM   34  C   UNK N   1      20.517  20.174   2.768  0.00  0.00     0.126 C 
HETATM   35  O   UNK N   1      20.233  18.177   1.571  0.00  0.00    -0.266 OA
ENDBRANCH  32  33
ENDBRANCH  19  32
ENDBRANCH   1  19
TORSDOF 26
ENDMDL
MODEL 7
REMARK VINA RESULT:      -5.2     10.582     14.389
REMARK  26 active torsions:
REMARK  status: ('A' for Active; 'I' for Inactive)
REMARK    1  A    between atoms: C_2  and  C_3 
REMARK    2  A    between atoms: C_3  and  C_4 
REMARK    3  A    between atoms: C_4  and  C_5 
REMARK    4  A    between atoms: C_5  and  C_6 
REMARK    5  A    between atoms: C_6  and  C_7 
REMARK    6  A    between atoms: C_7  and  C_8 
REMARK    7  A    between atoms: C_8  and  C_9 
REMARK    8  A    between atoms: C_9  and  C_10 
REMARK    9  A    between atoms: C_10  and  C_11 
REMARK   10  A    between atoms: C_11  and  C_12 
REMARK   11  A    between atoms: C_12  and  C_13 
REMARK   12  A    between atoms: C_13  and  C_14 
REMARK   13  A    between atoms: C_14  and  C_15 
REMARK   14  A    between atoms: C_15  and  C_16 
REMARK   15  A    between atoms: C_16  and  O_17 
REMARK   16  A    between atoms: O_17  and  C_18 
REMARK   17  A    between atoms: C_18  and  C_19 
REMARK   18  A    between atoms: C_19  and  C_20 
REMARK   19  A    between atoms: C_19  and  O_32 
REMARK   20  A    between atoms: C_20  and  O_21 
REMARK   21  A    between atoms: P_22  and  O_21 
REMARK   22  A    between atoms: P_22  and  O_25 
REMARK   23  A    between atoms: O_25  and  C_26 
REMARK   24  A    between atoms: C_26  and  C_27 
REMARK   25  A    between atoms: C_27  and  N_28 
REMARK   26  A    between atoms: O_32  and  C_33 
ROOT
HETATM    1  C   UNK N   1      22.795  18.356   4.481  0.00  0.00     0.202 C 
ENDROOT
BRANCH   1   2
HETATM    2  O   UNK N   1      21.810  17.379   4.336  0.00  0.00    -0.389 OA
BRANCH   2   3
HETATM    3  C   UNK N   1      22.183  16.628   3.215  0.00  0.00     0.167 C 
BRANCH   3   4
HETATM    4  C   UNK N   1      23.116  15.490   3.612  0.00  0.00     0.026 C 
BRANCH   4   5
HETATM    5  C   UNK N   1      24.520  15.738   3.089  0.00  0.00     0.002 C 
BRANCH   5   6
HETATM    6  C   UNK N   1      25.505  14.926   3.907  0.00  0.00     0.000 C 
BRANCH   6   7
HETATM    7  C   UNK N   1      24.768  13.848   4.675  0.00  0.00     0.000 C 
BRANCH   7   8
HETATM    8  C   UNK N   1      25.274  13.788   6.108  0.00  0.00     0.000 C 
BRANCH   8   9
HETATM    9  C   UNK N   1      24.293  14.459   7.065  0.00  0.00     0.000 C 
BRANCH   9  10
HETATM   10  C   UNK N   1      22.848  14.139   6.706  0.00  0.00     0.000 C 
BRANCH  10  11
HETATM   11  C   UNK N   1      21.913  15.220   7.219  0.00  0.00     0.000 C 
BRANCH  11  12
HETATM   12  C   UNK N   1      20.679  14.604   7.844  0.00  0.00     0.000 C 
BRANCH  12  13
HETATM   13  C   UNK N   1      20.827  14.585   9.351  0.00  0.00     0.000 C 
BRANCH  13  14
HETATM   14  C   UNK N   1      21.063  13.168   9.828  0.00  0.00     0.000 C 
BRANCH  14  15
HETATM   15  C   UNK N   1      22.460  13.065  10.404  0.00  0.00     0.000 C 
BRANCH  15  16
HETATM   16  C   UNK N   1      22.940  11.633  10.308  0.00  0.00    -0.000 C 
BRANCH  16  17
HETATM   17  C   UNK N   1      24.078  11.552   9.313  0.00  0.00    -0.005 C 
HETATM   18  C   UNK N   1      23.584  10.902   8.038  0.00  0.00     0.005 C 
ENDBRANCH  16  17
ENDBRANCH  15  16
ENDBRANCH  14  15
ENDBRANCH  13  14
ENDBRANCH  12  13
ENDBRANCH  11  12
ENDBRANCH  10  11
ENDBRANCH   9  10
ENDBRANCH   8   9
ENDBRANCH   7   8
ENDBRANCH   6   7
ENDBRANCH   5   6
ENDBRANCH   4   5
ENDBRANCH   3   4
ENDBRANCH   2   3
ENDBRANCH   1   2
BRANCH   1  19
HETATM   19  C   UNK N   1      22.760  19.337   3.316  0.00  0.00     0.180 C 
BRANCH  19  20
HETATM   20  C   UNK N   1      24.062  20.127   3.303  0.00  0.00     0.216 C 
BRANCH  20  21
HETATM   21  O   UNK N   1      24.944  19.592   4.246  0.00  0.00    -0.287 OA
BRANCH  21  22
HETATM   22  P   UNK N   1      26.522  20.128   3.759  0.00  0.00     0.408 P 
HETATM   23  O   UNK N   1      26.077  20.845   5.278  0.00  0.00    -0.624 OA
HETATM   24  O   UNK N   1      26.700  18.593   3.937  0.00  0.00    -0.624 OA
BRANCH  22  25
HETATM   25  O   UNK N   1      27.859  20.078   4.879  0.00  0.00    -0.288 OA
BRANCH  25  26
HETATM   26  C   UNK N   1      27.793  18.824   5.497  0.00  0.00     0.209 C 
BRANCH  26  27
HETATM   27  C   UNK N   1      28.185  18.987   6.966  0.00  0.00     0.262 C 
BRANCH  27  28
HETATM   28  N   UNK N   1      28.518  17.723   7.625  0.00  0.00    -0.077 N 
HETATM   29  C   UNK N   1      28.286  17.885   9.047  0.00  0.00     0.271 C 
HETATM   30  C   UNK N   1      29.919  17.389   7.423  0.00  0.00     0.271 C 
HETATM   31  C   UNK N   1      27.680  16.631   7.152  0.00  0.00     0.271 C 
ENDBRANCH  27  28
ENDBRANCH  26  27
ENDBRANCH  25  26
ENDBRANCH  22  25
ENDBRANCH  21  22
ENDBRANCH  20  21
ENDBRANCH  19  20
BRANCH  19  32
HETATM   32  O   UNK N   1      21.667  20.174   3.440  0.00  0.00    -0.312 OA
BRANCH  32  33
HETATM   33  C   UNK N   1      20.605  20.162   2.593  0.00  0.00     0.255 C 
HETATM   34  C   UNK N   1      20.717  20.833   1.268  0.00  0.00     0.126 C 
HETATM   35  O   UNK N   1      19.557  19.614   2.901  0.00  0.00    -0.266 OA
ENDBRANCH  32  33
ENDBRANCH  19  32
ENDBRANCH   1  19
TORSDOF 26
ENDMDL
MODEL 8
REMARK VINA RESULT:      -5.2      3.798     12.772
REMARK  26 active torsions:
REMARK  status: ('A' for Active; 'I' for Inactive)
REMARK    1  A    between atoms: C_2  and  C_3 
REMARK    2  A    between atoms: C_3  and  C_4 
REMARK    3  A    between atoms: C_4  and  C_5 
REMARK    4  A    between atoms: C_5  and  C_6 
REMARK    5  A    between atoms: C_6  and  C_7 
REMARK    6  A    between atoms: C_7  and  C_8 
REMARK    7  A    between atoms: C_8  and  C_9 
REMARK    8  A    between atoms: C_9  and  C_10 
REMARK    9  A    between atoms: C_10  and  C_11 
REMARK   10  A    between atoms: C_11  and  C_12 
REMARK   11  A    between atoms: C_12  and  C_13 
REMARK   12  A    between atoms: C_13  and  C_14 
REMARK   13  A    between atoms: C_14  and  C_15 
REMARK   14  A    between atoms: C_15  and  C_16 
REMARK   15  A    between atoms: C_16  and  O_17 
REMARK   16  A    between atoms: O_17  and  C_18 
REMARK   17  A    between atoms: C_18  and  C_19 
REMARK   18  A    between atoms: C_19  and  C_20 
REMARK   19  A    between atoms: C_19  and  O_32 
REMARK   20  A    between atoms: C_20  and  O_21 
REMARK   21  A    between atoms: P_22  and  O_21 
REMARK   22  A    between atoms: P_22  and  O_25 
REMARK   23  A    between atoms: O_25  and  C_26 
REMARK   24  A    between atoms: C_26  and  C_27 
REMARK   25  A    between atoms: C_27  and  N_28 
REMARK   26  A    between atoms: O_32  and  C_33 
ROOT
HETATM    1  C   UNK N   1      32.516  15.606   9.099  0.00  0.00     0.202 C 
ENDROOT
BRANCH   1   2
HETATM    2  O   UNK N   1      32.434  14.520   8.226  0.00  0.00    -0.389 OA
BRANCH   2   3
HETATM    3  C   UNK N   1      31.799  15.007   7.077  0.00  0.00     0.167 C 
BRANCH   3   4
HETATM    4  C   UNK N   1      32.561  14.593   5.822  0.00  0.00     0.026 C 
BRANCH   4   5
HETATM    5  C   UNK N   1      31.838  15.066   4.574  0.00  0.00     0.002 C 
BRANCH   5   6
HETATM    6  C   UNK N   1      32.465  16.362   4.098  0.00  0.00     0.000 C 
BRANCH   6   7
HETATM    7  C   UNK N   1      31.472  17.497   4.246  0.00  0.00     0.000 C 
BRANCH   7   8
HETATM    8  C   UNK N   1      30.056  16.947   4.320  0.00  0.00     0.000 C 
BRANCH   8   9
HETATM    9  C   UNK N   1      29.056  18.047   4.664  0.00  0.00     0.000 C 
BRANCH   9  10
HETATM   10  C   UNK N   1      28.647  17.998   6.130  0.00  0.00     0.000 C 
BRANCH  10  11
HETATM   11  C   UNK N   1      27.711  19.145   6.467  0.00  0.00     0.000 C 
BRANCH  11  12
HETATM   12  C   UNK N   1      27.873  20.274   5.470  0.00  0.00     0.000 C 
BRANCH  12  13
HETATM   13  C   UNK N   1      26.508  20.770   5.037  0.00  0.00     0.000 C 
BRANCH  13  14
HETATM   14  C   UNK N   1      26.232  20.343   3.612  0.00  0.00     0.000 C 
BRANCH  14  15
HETATM   15  C   UNK N   1      25.125  19.310   3.610  0.00  0.00     0.000 C 
BRANCH  15  16
HETATM   16  C   UNK N   1      25.723  17.931   3.432  0.00  0.00    -0.000 C 
BRANCH  16  17
HETATM   17  C   UNK N   1      24.764  16.895   3.979  0.00  0.00    -0.005 C 
HETATM   18  C   UNK N   1      24.832  15.647   3.125  0.00  0.00     0.005 C 
ENDBRANCH  16  17
ENDBRANCH  15  16
ENDBRANCH  14  15
ENDBRANCH  13  14
ENDBRANCH  12  13
ENDBRANCH  11  12
ENDBRANCH  10  11
ENDBRANCH   9  10
ENDBRANCH   8   9
ENDBRANCH   7   8
ENDBRANCH   6   7
ENDBRANCH   5   6
ENDBRANCH   4   5
ENDBRANCH   3   4
ENDBRANCH   2   3
ENDBRANCH   1   2
BRANCH   1  19
HETATM   19  C   UNK N   1      33.963  16.048   9.277  0.00  0.00     0.180 C 
BRANCH  19  20
HETATM   20  C   UNK N   1      34.508  15.431  10.558  0.00  0.00     0.216 C 
BRANCH  20  21
HETATM   21  O   UNK N   1      35.468  14.466  10.240  0.00  0.00    -0.287 OA
BRANCH  21  22
HETATM   22  P   UNK N   1      35.524  13.400  11.610  0.00  0.00     0.408 P 
HETATM   23  O   UNK N   1      37.000  13.298  10.699  0.00  0.00    -0.624 OA
HETATM   24  O   UNK N   1      35.402  14.811  12.253  0.00  0.00    -0.624 OA
BRANCH  22  25
HETATM   25  O   UNK N   1      36.906  13.399  12.675  0.00  0.00    -0.288 OA
BRANCH  25  26
HETATM   26  C   UNK N   1      36.405  13.668  13.953  0.00  0.00     0.209 C 
BRANCH  26  27
HETATM   27  C   UNK N   1      36.844  12.545  14.893  0.00  0.00     0.262 C 
BRANCH  27  28
HETATM   28  N   UNK N   1      35.732  11.749  15.413  0.00  0.00    -0.077 N 
HETATM   29  C   UNK N   1      34.612  12.641  15.643  0.00  0.00     0.271 C 
HETATM   30  C   UNK N   1      36.089  11.124  16.676  0.00  0.00     0.271 C 
HETATM   31  C   UNK N   1      35.309  10.729  14.463  0.00  0.00     0.271 C 
ENDBRANCH  27  28
ENDBRANCH  26  27
ENDBRANCH  25  26
ENDBRANCH  22  25
ENDBRANCH  21  22
ENDBRANCH  20  21
ENDBRANCH  19  20
BRANCH  19  32
HETATM   32  O   UNK N   1      34.030  17.428   9.319  0.00  0.00    -0.312 OA
BRANCH  32  33
HETATM   33  C   UNK N   1      34.504  18.194   8.301  0.00  0.00     0.255 C 
HETATM   34  C   UNK N   1      34.123  17.867   6.900  0.00  0.00     0.126 C 
HETATM   35  O   UNK N   1      35.243  19.144   8.517  0.00  0.00    -0.266 OA
ENDBRANCH  32  33
ENDBRANCH  19  32
ENDBRANCH   1  19
TORSDOF 26
ENDMDL
MODEL 9
REMARK VINA RESULT:      -5.2      1.697      2.265
REMARK  26 active torsions:
REMARK  status: ('A' for Active; 'I' for Inactive)
REMARK    1  A    between atoms: C_2  and  C_3 
REMARK    2  A    between atoms: C_3  and  C_4 
REMARK    3  A    between atoms: C_4  and  C_5 
REMARK    4  A    between atoms: C_5  and  C_6 
REMARK    5  A    between atoms: C_6  and  C_7 
REMARK    6  A    between atoms: C_7  and  C_8 
REMARK    7  A    between atoms: C_8  and  C_9 
REMARK    8  A    between atoms: C_9  and  C_10 
REMARK    9  A    between atoms: C_10  and  C_11 
REMARK   10  A    between atoms: C_11  and  C_12 
REMARK   11  A    between atoms: C_12  and  C_13 
REMARK   12  A    between atoms: C_13  and  C_14 
REMARK   13  A    between atoms: C_14  and  C_15 
REMARK   14  A    between atoms: C_15  and  C_16 
REMARK   15  A    between atoms: C_16  and  O_17 
REMARK   16  A    between atoms: O_17  and  C_18 
REMARK   17  A    between atoms: C_18  and  C_19 
REMARK   18  A    between atoms: C_19  and  C_20 
REMARK   19  A    between atoms: C_19  and  O_32 
REMARK   20  A    between atoms: C_20  and  O_21 
REMARK   21  A    between atoms: P_22  and  O_21 
REMARK   22  A    between atoms: P_22  and  O_25 
REMARK   23  A    between atoms: O_25  and  C_26 
REMARK   24  A    between atoms: C_26  and  C_27 
REMARK   25  A    between atoms: C_27  and  N_28 
REMARK   26  A    between atoms: O_32  and  C_33 
ROOT
HETATM    1  C   UNK N   1      35.924  15.265  12.400  0.00  0.00     0.202 C 
ENDROOT
BRANCH   1   2
HETATM    2  O   UNK N   1      35.039  14.188  12.466  0.00  0.00    -0.389 OA
BRANCH   2   3
HETATM    3  C   UNK N   1      35.748  13.155  13.092  0.00  0.00     0.167 C 
BRANCH   3   4
HETATM    4  C   UNK N   1      35.047  12.716  14.372  0.00  0.00     0.026 C 
BRANCH   4   5
HETATM    5  C   UNK N   1      34.173  11.501  14.118  0.00  0.00     0.002 C 
BRANCH   5   6
HETATM    6  C   UNK N   1      34.501  10.431  15.140  0.00  0.00     0.000 C 
BRANCH   6   7
HETATM    7  C   UNK N   1      36.002  10.246  15.226  0.00  0.00     0.000 C 
BRANCH   7   8
HETATM    8  C   UNK N   1      36.383   9.681  16.585  0.00  0.00     0.000 C 
BRANCH   8   9
HETATM    9  C   UNK N   1      35.746  10.488  17.713  0.00  0.00     0.000 C 
BRANCH   9  10
HETATM   10  C   UNK N   1      34.820   9.630  18.565  0.00  0.00     0.000 C 
BRANCH  10  11
HETATM   11  C   UNK N   1      34.600  10.264  19.927  0.00  0.00     0.000 C 
BRANCH  11  12
HETATM   12  C   UNK N   1      34.139   9.225  20.929  0.00  0.00     0.000 C 
BRANCH  12  13
HETATM   13  C   UNK N   1      32.665   8.941  20.725  0.00  0.00     0.000 C 
BRANCH  13  14
HETATM   14  C   UNK N   1      31.967   8.845  22.064  0.00  0.00     0.000 C 
BRANCH  14  15
HETATM   15  C   UNK N   1      32.434   9.982  22.949  0.00  0.00     0.000 C 
BRANCH  15  16
HETATM   16  C   UNK N   1      32.393   9.543  24.396  0.00  0.00    -0.000 C 
BRANCH  16  17
HETATM   17  C   UNK N   1      31.971  10.711  25.262  0.00  0.00    -0.005 C 
HETATM   18  C   UNK N   1      30.661  10.381  25.946  0.00  0.00     0.005 C 
ENDBRANCH  16  17
ENDBRANCH  15  16
ENDBRANCH  14  15
ENDBRANCH  13  14
ENDBRANCH  12  13
ENDBRANCH  11  12
ENDBRANCH  10  11
ENDBRANCH   9  10
ENDBRANCH   8   9
ENDBRANCH   7   8
ENDBRANCH   6   7
ENDBRANCH   5   6
ENDBRANCH   4   5
ENDBRANCH   3   4
ENDBRANCH   2   3
ENDBRANCH   1   2
BRANCH   1  19
HETATM   19  C   UNK N   1      36.158  15.685  10.954  0.00  0.00     0.180 C 
BRANCH  19  20
HETATM   20  C   UNK N   1      34.931  16.438  10.459  0.00  0.00     0.216 C 
BRANCH  20  21
HETATM   21  O   UNK N   1      35.333  17.521   9.672  0.00  0.00    -0.287 OA
BRANCH  21  22
HETATM   22  P   UNK N   1      34.114  17.678   8.445  0.00  0.00     0.408 P 
HETATM   23  O   UNK N   1      35.175  19.054   8.429  0.00  0.00    -0.624 OA
HETATM   24  O   UNK N   1      34.900  16.406   8.016  0.00  0.00    -0.624 OA
BRANCH  22  25
HETATM   25  O   UNK N   1      34.553  18.097   6.810  0.00  0.00    -0.288 OA
BRANCH  25  26
HETATM   26  C   UNK N   1      33.696  17.364   5.982  0.00  0.00     0.209 C 
BRANCH  26  27
HETATM   27  C   UNK N   1      32.283  17.431   6.564  0.00  0.00     0.262 C 
BRANCH  27  28
HETATM   28  N   UNK N   1      31.390  16.393   6.050  0.00  0.00    -0.077 N 
HETATM   29  C   UNK N   1      31.769  16.114   4.679  0.00  0.00     0.271 C 
HETATM   30  C   UNK N   1      30.009  16.847   6.062  0.00  0.00     0.271 C 
HETATM   31  C   UNK N   1      31.505  15.157   6.811  0.00  0.00     0.271 C 
ENDBRANCH  27  28
ENDBRANCH  26  27
ENDBRANCH  25  26
ENDBRANCH  22  25
ENDBRANCH  21  22
ENDBRANCH  20  21
ENDBRANCH  19  20
BRANCH  19  32
HETATM   32  O   UNK N   1      36.408  14.570  10.177  0.00  0.00    -0.312 OA
BRANCH  32  33
HETATM   33  C   UNK N   1      37.655  14.103   9.904  0.00  0.00     0.255 C 
HETATM   34  C   UNK N   1      37.903  12.635   9.899  0.00  0.00     0.126 C 
HETATM   35  O   UNK N   1      38.579  14.868   9.667  0.00  0.00    -0.266 OA
ENDBRANCH  32  33
ENDBRANCH  19  32
ENDBRANCH   1  19
TORSDOF 26
ENDMDL
