MODEL 1
REMARK VINA RESULT:      -7.0      0.000      0.000
REMARK  10 active torsions:
REMARK  status: ('A' for Active; 'I' for Inactive)
REMARK    1  A    between atoms: C_2  and  C_3 
REMARK    2  A    between atoms: C_3  and  C_4 
REMARK    3  A    between atoms: C_4  and  O_5 
REMARK    4  A    between atoms: O_5  and  C_6 
REMARK    5  A    between atoms: C_9  and  S_12 
REMARK    6  A    between atoms: S_12  and  N_15 
REMARK    7  A    between atoms: C_17  and  N_24 
REMARK    8  A    between atoms: C_19  and  C_20 
REMARK       I    between atoms: C_20  and  N_22 
REMARK    9  A    between atoms: N_22  and  O_23 
REMARK   10  A    between atoms: N_24  and  S_25 
ROOT
HETATM    1  N   UNK N   1      22.439  17.871   4.391  0.00  0.00    -0.191 NA
HETATM    2  C   UNK N   1      23.773  17.284   4.307  0.00  0.00     0.134 C 
HETATM    3  C   UNK N   1      24.761  18.423   4.148  0.00  0.00     0.109 C 
HETATM    4  C   UNK N   1      23.974  19.401   3.316  0.00  0.00     0.057 C 
HETATM    5  C   UNK N   1      22.545  19.217   3.803  0.00  0.00     0.170 C 
ENDROOT
BRANCH   1   6
HETATM    6  S   UNK N   1      21.874  17.753   6.105  0.00  0.00     0.244 S 
HETATM    7  O   UNK N   1      22.821  16.579   5.801  0.00  0.00    -0.206 OA
HETATM    8  O   UNK N   1      20.522  17.287   5.541  0.00  0.00    -0.206 OA
BRANCH   6   9
HETATM    9  C   UNK N   1      21.530  16.254   7.144  0.00  0.00     0.074 A 
HETATM   10  C   UNK N   1      22.135  15.041   6.779  0.00  0.00     0.027 A 
HETATM   11  C   UNK N   1      21.911  13.877   7.529  0.00  0.00     0.038 A 
HETATM   12  C   UNK N   1      21.078  13.904   8.654  0.00  0.00     0.068 A 
HETATM   13  C   UNK N   1      20.481  15.109   9.039  0.00  0.00     0.038 A 
HETATM   14  C   UNK N   1      20.706  16.267   8.313  0.00  0.00     0.027 A 
BRANCH  12  15
HETATM   15  O   UNK N   1      20.851  12.760   9.347  0.00  0.00    -0.351 OA
BRANCH  15  16
HETATM   16  C   UNK N   1      21.544  12.415  10.494  0.00  0.00     0.175 C 
BRANCH  16  17
HETATM   17  C   UNK N   1      22.896  11.799  10.161  0.00  0.00     0.026 C 
BRANCH  17  18
HETATM   18  C   UNK N   1      23.826  11.874  11.361  0.00  0.00    -0.002 C 
HETATM   19  C   UNK N   1      23.038  11.943  12.656  0.00  0.00     0.005 C 
ENDBRANCH  17  18
ENDBRANCH  16  17
ENDBRANCH  15  16
ENDBRANCH  12  15
ENDBRANCH   6   9
ENDBRANCH   1   6
BRANCH   5  20
HETATM   20  C   UNK N   1      21.415  19.443   2.810  0.00  0.00     0.260 C 
HETATM   21  O   UNK N   1      20.784  18.463   2.427  0.00  0.00    -0.270 OA
HETATM   22  N   UNK N   1      21.065  20.657   2.317  0.00  0.00    -0.236 N 
HETATM   23  H   UNK N   1      20.321  20.709   1.674  0.00  0.00     0.197 HD
BRANCH  22  24
HETATM   24  O   UNK N   1      21.690  21.790   2.670  0.00  0.00    -0.287 OA
HETATM   25  H   UNK N   1      22.327  22.205   2.069  0.00  0.00     0.244 HD
ENDBRANCH  22  24
ENDBRANCH   5  20
BRANCH   3  26
HETATM   26  N   UNK N   1      25.061  19.017   5.448  0.00  0.00    -0.314 N 
HETATM   27  H   UNK N   1      24.446  19.010   6.263  0.00  0.00     0.172 HD
BRANCH  26  28
HETATM   28  S   UNK N   1      26.671  19.751   5.371  0.00  0.00     0.223 S 
HETATM   29  C   UNK N   1      27.847  19.883   6.744  0.00  0.00     0.185 C 
HETATM   30  O   UNK N   1      26.041  20.520   6.542  0.00  0.00    -0.206 OA
HETATM   31  O   UNK N   1      26.960  18.382   6.006  0.00  0.00    -0.206 OA
ENDBRANCH  26  28
ENDBRANCH   3  26
TORSDOF 10
ENDMDL
MODEL 2
REMARK VINA RESULT:      -6.9      4.518      6.749
REMARK  10 active torsions:
REMARK  status: ('A' for Active; 'I' for Inactive)
REMARK    1  A    between atoms: C_2  and  C_3 
REMARK    2  A    between atoms: C_3  and  C_4 
REMARK    3  A    between atoms: C_4  and  O_5 
REMARK    4  A    between atoms: O_5  and  C_6 
REMARK    5  A    between atoms: C_9  and  S_12 
REMARK    6  A    between atoms: S_12  and  N_15 
REMARK    7  A    between atoms: C_17  and  N_24 
REMARK    8  A    between atoms: C_19  and  C_20 
REMARK       I    between atoms: C_20  and  N_22 
REMARK    9  A    between atoms: N_22  and  O_23 
REMARK   10  A    between atoms: N_24  and  S_25 
ROOT
HETATM    1  N   UNK N   1      22.157  18.972   3.688  0.00  0.00    -0.191 NA
HETATM    2  C   UNK N   1      21.734  17.794   4.439  0.00  0.00     0.134 C 
HETATM    3  C   UNK N   1      20.980  16.891   3.482  0.00  0.00     0.109 C 
HETATM    4  C   UNK N   1      20.290  17.893   2.593  0.00  0.00     0.057 C 
HETATM    5  C   UNK N   1      21.284  19.039   2.504  0.00  0.00     0.170 C 
ENDROOT
BRANCH   1   6
HETATM    6  S   UNK N   1      23.939  18.854   3.404  0.00  0.00     0.244 S 
HETATM    7  O   UNK N   1      23.611  18.305   4.804  0.00  0.00    -0.206 OA
HETATM    8  O   UNK N   1      23.991  20.376   3.611  0.00  0.00    -0.206 OA
BRANCH   6   9
HETATM    9  C   UNK N   1      25.349  19.024   4.599  0.00  0.00     0.074 A 
HETATM   10  C   UNK N   1      26.027  17.859   4.995  0.00  0.00     0.027 A 
HETATM   11  C   UNK N   1      27.101  17.929   5.895  0.00  0.00     0.038 A 
HETATM   12  C   UNK N   1      27.514  19.161   6.416  0.00  0.00     0.068 A 
HETATM   13  C   UNK N   1      26.859  20.332   6.019  0.00  0.00     0.038 A 
HETATM   14  C   UNK N   1      25.806  20.275   5.120  0.00  0.00     0.027 A 
BRANCH  12  15
HETATM   15  O   UNK N   1      28.536  19.202   7.308  0.00  0.00    -0.351 OA
BRANCH  15  16
HETATM   16  C   UNK N   1      28.492  18.581   8.544  0.00  0.00     0.175 C 
BRANCH  16  17
HETATM   17  C   UNK N   1      29.856  18.602   9.223  0.00  0.00     0.026 C 
BRANCH  17  18
HETATM   18  C   UNK N   1      30.702  17.429   8.756  0.00  0.00    -0.002 C 
HETATM   19  C   UNK N   1      32.085  17.891   8.334  0.00  0.00     0.005 C 
ENDBRANCH  17  18
ENDBRANCH  16  17
ENDBRANCH  15  16
ENDBRANCH  12  15
ENDBRANCH   6   9
ENDBRANCH   1   6
BRANCH   5  20
HETATM   20  C   UNK N   1      20.740  20.449   2.336  0.00  0.00     0.260 C 
HETATM   21  O   UNK N   1      20.547  21.113   3.349  0.00  0.00    -0.270 OA
HETATM   22  N   UNK N   1      20.449  21.017   1.139  0.00  0.00    -0.236 N 
HETATM   23  H   UNK N   1      20.096  21.936   1.126  0.00  0.00     0.197 HD
BRANCH  22  24
HETATM   24  O   UNK N   1      20.623  20.377  -0.027  0.00  0.00    -0.287 OA
HETATM   25  H   UNK N   1      20.578  20.865  -0.864  0.00  0.00     0.244 HD
ENDBRANCH  22  24
ENDBRANCH   5  20
BRANCH   3  26
HETATM   26  N   UNK N   1      21.918  16.099   2.690  0.00  0.00    -0.314 N 
HETATM   27  H   UNK N   1      22.921  16.020   2.858  0.00  0.00     0.172 HD
BRANCH  26  28
HETATM   28  S   UNK N   1      21.018  15.301   1.390  0.00  0.00     0.223 S 
HETATM   29  C   UNK N   1      21.197  13.571   0.879  0.00  0.00     0.185 C 
HETATM   30  O   UNK N   1      22.469  15.014   0.977  0.00  0.00    -0.206 OA
HETATM   31  O   UNK N   1      20.824  14.336   2.570  0.00  0.00    -0.206 OA
ENDBRANCH  26  28
ENDBRANCH   3  26
TORSDOF 10
ENDMDL
MODEL 3
REMARK VINA RESULT:      -6.8     13.943     15.684
REMARK  10 active torsions:
REMARK  status: ('A' for Active; 'I' for Inactive)
REMARK    1  A    between atoms: C_2  and  C_3 
REMARK    2  A    between atoms: C_3  and  C_4 
REMARK    3  A    between atoms: C_4  and  O_5 
REMARK    4  A    between atoms: O_5  and  C_6 
REMARK    5  A    between atoms: C_9  and  S_12 
REMARK    6  A    between atoms: S_12  and  N_15 
REMARK    7  A    between atoms: C_17  and  N_24 
REMARK    8  A    between atoms: C_19  and  C_20 
REMARK       I    between atoms: C_20  and  N_22 
REMARK    9  A    between atoms: N_22  and  O_23 
REMARK   10  A    between atoms: N_24  and  S_25 
ROOT
HETATM    1  N   UNK N   1      27.070  26.211  -4.587  0.00  0.00    -0.191 NA
HETATM    2  C   UNK N   1      26.087  25.137  -4.706  0.00  0.00     0.134 C 
HETATM    3  C   UNK N   1      25.266  25.408  -5.952  0.00  0.00     0.109 C 
HETATM    4  C   UNK N   1      25.206  26.913  -5.960  0.00  0.00     0.057 C 
HETATM    5  C   UNK N   1      26.554  27.330  -5.395  0.00  0.00     0.170 C 
ENDROOT
BRANCH   1   6
HETATM    6  S   UNK N   1      28.693  25.546  -5.027  0.00  0.00     0.244 S 
HETATM    7  O   UNK N   1      27.871  24.453  -4.319  0.00  0.00    -0.206 OA
HETATM    8  O   UNK N   1      29.259  26.384  -3.870  0.00  0.00    -0.206 OA
BRANCH   6   9
HETATM    9  C   UNK N   1      29.749  24.302  -4.142  0.00  0.00     0.074 A 
HETATM   10  C   UNK N   1      31.033  24.042  -4.649  0.00  0.00     0.027 A 
HETATM   11  C   UNK N   1      31.875  23.113  -4.019  0.00  0.00     0.038 A 
HETATM   12  C   UNK N   1      31.448  22.426  -2.876  0.00  0.00     0.068 A 
HETATM   13  C   UNK N   1      30.177  22.685  -2.351  0.00  0.00     0.038 A 
HETATM   14  C   UNK N   1      29.344  23.611  -2.958  0.00  0.00     0.027 A 
BRANCH  12  15
HETATM   15  O   UNK N   1      32.267  21.509  -2.302  0.00  0.00    -0.351 OA
BRANCH  15  16
HETATM   16  C   UNK N   1      33.553  21.255  -2.743  0.00  0.00     0.175 C 
BRANCH  16  17
HETATM   17  C   UNK N   1      33.591  20.051  -3.676  0.00  0.00     0.026 C 
BRANCH  17  18
HETATM   18  C   UNK N   1      34.923  19.984  -4.405  0.00  0.00    -0.002 C 
HETATM   19  C   UNK N   1      35.749  21.229  -4.143  0.00  0.00     0.005 C 
ENDBRANCH  17  18
ENDBRANCH  16  17
ENDBRANCH  15  16
ENDBRANCH  12  15
ENDBRANCH   6   9
ENDBRANCH   1   6
BRANCH   5  20
HETATM   20  C   UNK N   1      26.628  28.624  -4.599  0.00  0.00     0.260 C 
HETATM   21  O   UNK N   1      27.088  29.615  -5.157  0.00  0.00    -0.270 OA
HETATM   22  N   UNK N   1      26.224  28.751  -3.311  0.00  0.00    -0.236 N 
HETATM   23  H   UNK N   1      26.313  29.628  -2.872  0.00  0.00     0.197 HD
BRANCH  22  24
HETATM   24  O   UNK N   1      25.707  27.730  -2.610  0.00  0.00    -0.287 OA
HETATM   25  H   UNK N   1      25.266  27.893  -1.762  0.00  0.00     0.244 HD
ENDBRANCH  22  24
ENDBRANCH   5  20
BRANCH   3  26
HETATM   26  N   UNK N   1      25.980  24.941  -7.138  0.00  0.00    -0.314 N 
HETATM   27  H   UNK N   1      26.380  25.534  -7.865  0.00  0.00     0.172 HD
BRANCH  26  28
HETATM   28  S   UNK N   1      26.031  23.171  -7.100  0.00  0.00     0.223 S 
HETATM   29  C   UNK N   1      26.314  22.084  -8.522  0.00  0.00     0.185 C 
HETATM   30  O   UNK N   1      24.971  23.422  -8.183  0.00  0.00    -0.206 OA
HETATM   31  O   UNK N   1      27.332  23.525  -7.836  0.00  0.00    -0.206 OA
ENDBRANCH  26  28
ENDBRANCH   3  26
TORSDOF 10
ENDMDL
MODEL 4
REMARK VINA RESULT:      -6.7     11.143     15.317
REMARK  10 active torsions:
REMARK  status: ('A' for Active; 'I' for Inactive)
REMARK    1  A    between atoms: C_2  and  C_3 
REMARK    2  A    between atoms: C_3  and  C_4 
REMARK    3  A    between atoms: C_4  and  O_5 
REMARK    4  A    between atoms: O_5  and  C_6 
REMARK    5  A    between atoms: C_9  and  S_12 
REMARK    6  A    between atoms: S_12  and  N_15 
REMARK    7  A    between atoms: C_17  and  N_24 
REMARK    8  A    between atoms: C_19  and  C_20 
REMARK       I    between atoms: C_20  and  N_22 
REMARK    9  A    between atoms: N_22  and  O_23 
REMARK   10  A    between atoms: N_24  and  S_25 
ROOT
HETATM    1  N   UNK N   1      35.727  12.701  11.304  0.00  0.00    -0.191 NA
HETATM    2  C   UNK N   1      35.120  11.833  12.308  0.00  0.00     0.134 C 
HETATM    3  C   UNK N   1      35.974  11.918  13.558  0.00  0.00     0.109 C 
HETATM    4  C   UNK N   1      37.356  12.073  12.979  0.00  0.00     0.057 C 
HETATM    5  C   UNK N   1      37.127  12.895  11.720  0.00  0.00     0.170 C 
ENDROOT
BRANCH   1   6
HETATM    6  S   UNK N   1      34.698  14.178  11.135  0.00  0.00     0.244 S 
HETATM    7  O   UNK N   1      34.788  13.464   9.774  0.00  0.00    -0.206 OA
HETATM    8  O   UNK N   1      35.999  14.993  11.206  0.00  0.00    -0.206 OA
BRANCH   6   9
HETATM    9  C   UNK N   1      34.499  15.332   9.694  0.00  0.00     0.074 A 
HETATM   10  C   UNK N   1      34.029  14.803   8.481  0.00  0.00     0.027 A 
HETATM   11  C   UNK N   1      33.858  15.629   7.360  0.00  0.00     0.038 A 
HETATM   12  C   UNK N   1      34.155  16.996   7.431  0.00  0.00     0.068 A 
HETATM   13  C   UNK N   1      34.608  17.540   8.637  0.00  0.00     0.038 A 
HETATM   14  C   UNK N   1      34.768  16.735   9.754  0.00  0.00     0.027 A 
BRANCH  12  15
HETATM   15  O   UNK N   1      34.011  17.770   6.326  0.00  0.00    -0.351 OA
BRANCH  15  16
HETATM   16  C   UNK N   1      33.745  17.259   5.068  0.00  0.00     0.175 C 
BRANCH  16  17
HETATM   17  C   UNK N   1      32.383  17.716   4.562  0.00  0.00     0.026 C 
BRANCH  17  18
HETATM   18  C   UNK N   1      31.315  16.691   4.909  0.00  0.00    -0.002 C 
HETATM   19  C   UNK N   1      30.535  17.115   6.141  0.00  0.00     0.005 C 
ENDBRANCH  17  18
ENDBRANCH  16  17
ENDBRANCH  15  16
ENDBRANCH  12  15
ENDBRANCH   6   9
ENDBRANCH   1   6
BRANCH   5  20
HETATM   20  C   UNK N   1      38.058  12.670  10.539  0.00  0.00     0.260 C 
HETATM   21  O   UNK N   1      38.297  11.513  10.209  0.00  0.00    -0.270 OA
HETATM   22  N   UNK N   1      38.644  13.667   9.831  0.00  0.00    -0.236 N 
HETATM   23  H   UNK N   1      39.237  13.429   9.082  0.00  0.00     0.197 HD
BRANCH  22  24
HETATM   24  O   UNK N   1      38.450  14.965  10.109  0.00  0.00    -0.287 OA
HETATM   25  H   UNK N   1      37.561  15.293  10.314  0.00  0.00     0.244 HD
ENDBRANCH  22  24
ENDBRANCH   5  20
BRANCH   3  26
HETATM   26  N   UNK N   1      35.628  13.112  14.325  0.00  0.00    -0.314 N 
HETATM   27  H   UNK N   1      35.413  14.030  13.934  0.00  0.00     0.172 HD
BRANCH  26  28
HETATM   28  S   UNK N   1      35.649  12.698  16.047  0.00  0.00     0.223 S 
HETATM   29  C   UNK N   1      35.052  13.745  17.400  0.00  0.00     0.185 C 
HETATM   30  O   UNK N   1      36.390  14.043  16.048  0.00  0.00    -0.206 OA
HETATM   31  O   UNK N   1      34.193  13.135  15.828  0.00  0.00    -0.206 OA
ENDBRANCH  26  28
ENDBRANCH   3  26
TORSDOF 10
ENDMDL
MODEL 5
REMARK VINA RESULT:      -6.7      7.416     11.261
REMARK  10 active torsions:
REMARK  status: ('A' for Active; 'I' for Inactive)
REMARK    1  A    between atoms: C_2  and  C_3 
REMARK    2  A    between atoms: C_3  and  C_4 
REMARK    3  A    between atoms: C_4  and  O_5 
REMARK    4  A    between atoms: O_5  and  C_6 
REMARK    5  A    between atoms: C_9  and  S_12 
REMARK    6  A    between atoms: S_12  and  N_15 
REMARK    7  A    between atoms: C_17  and  N_24 
REMARK    8  A    between atoms: C_19  and  C_20 
REMARK       I    between atoms: C_20  and  N_22 
REMARK    9  A    between atoms: N_22  and  O_23 
REMARK   10  A    between atoms: N_24  and  S_25 
ROOT
HETATM    1  N   UNK N   1      33.529  16.412   7.698  0.00  0.00    -0.191 NA
HETATM    2  C   UNK N   1      34.148  16.633   6.393  0.00  0.00     0.134 C 
HETATM    3  C   UNK N   1      34.998  15.418   6.081  0.00  0.00     0.109 C 
HETATM    4  C   UNK N   1      35.502  15.035   7.448  0.00  0.00     0.057 C 
HETATM    5  C   UNK N   1      34.345  15.386   8.369  0.00  0.00     0.170 C 
ENDROOT
BRANCH   1   6
HETATM    6  S   UNK N   1      31.777  16.046   7.439  0.00  0.00     0.244 S 
HETATM    7  O   UNK N   1      32.141  17.339   6.688  0.00  0.00    -0.206 OA
HETATM    8  O   UNK N   1      31.551  16.516   8.885  0.00  0.00    -0.206 OA
BRANCH   6   9
HETATM    9  C   UNK N   1      30.337  17.200   7.239  0.00  0.00     0.074 A 
HETATM   10  C   UNK N   1      29.744  17.306   5.971  0.00  0.00     0.027 A 
HETATM   11  C   UNK N   1      28.651  18.161   5.763  0.00  0.00     0.038 A 
HETATM   12  C   UNK N   1      28.135  18.927   6.816  0.00  0.00     0.068 A 
HETATM   13  C   UNK N   1      28.706  18.819   8.089  0.00  0.00     0.038 A 
HETATM   14  C   UNK N   1      29.776  17.967   8.308  0.00  0.00     0.027 A 
BRANCH  12  15
HETATM   15  O   UNK N   1      27.098  19.770   6.585  0.00  0.00    -0.351 OA
BRANCH  15  16
HETATM   16  C   UNK N   1      26.707  20.167   5.318  0.00  0.00     0.175 C 
BRANCH  16  17
HETATM   17  C   UNK N   1      25.356  19.571   4.943  0.00  0.00     0.026 C 
BRANCH  17  18
HETATM   18  C   UNK N   1      25.133  19.659   3.442  0.00  0.00    -0.002 C 
HETATM   19  C   UNK N   1      26.008  20.735   2.825  0.00  0.00     0.005 C 
ENDBRANCH  17  18
ENDBRANCH  16  17
ENDBRANCH  15  16
ENDBRANCH  12  15
ENDBRANCH   6   9
ENDBRANCH   1   6
BRANCH   5  20
HETATM   20  C   UNK N   1      34.666  15.823   9.790  0.00  0.00     0.260 C 
HETATM   21  O   UNK N   1      35.709  16.441   9.977  0.00  0.00    -0.270 OA
HETATM   22  N   UNK N   1      33.877  15.569  10.863  0.00  0.00    -0.236 N 
HETATM   23  H   UNK N   1      34.166  15.887  11.748  0.00  0.00     0.197 HD
BRANCH  22  24
HETATM   24  O   UNK N   1      32.717  14.901  10.766  0.00  0.00    -0.287 OA
HETATM   25  H   UNK N   1      31.993  15.086  11.385  0.00  0.00     0.244 HD
ENDBRANCH  22  24
ENDBRANCH   5  20
BRANCH   3  26
HETATM   26  N   UNK N   1      34.165  14.342   5.548  0.00  0.00    -0.314 N 
HETATM   27  H   UNK N   1      34.034  13.424   5.973  0.00  0.00     0.172 HD
BRANCH  26  28
HETATM   28  S   UNK N   1      33.424  14.903   4.041  0.00  0.00     0.223 S 
HETATM   29  C   UNK N   1      32.908  13.855   2.655  0.00  0.00     0.185 C 
HETATM   30  O   UNK N   1      34.616  14.094   3.511  0.00  0.00    -0.206 OA
HETATM   31  O   UNK N   1      32.461  13.795   4.493  0.00  0.00    -0.206 OA
ENDBRANCH  26  28
ENDBRANCH   3  26
TORSDOF 10
ENDMDL
MODEL 6
REMARK VINA RESULT:      -6.7      2.951      4.333
REMARK  10 active torsions:
REMARK  status: ('A' for Active; 'I' for Inactive)
REMARK    1  A    between atoms: C_2  and  C_3 
REMARK    2  A    between atoms: C_3  and  C_4 
REMARK    3  A    between atoms: C_4  and  O_5 
REMARK    4  A    between atoms: O_5  and  C_6 
REMARK    5  A    between atoms: C_9  and  S_12 
REMARK    6  A    between atoms: S_12  and  N_15 
REMARK    7  A    between atoms: C_17  and  N_24 
REMARK    8  A    between atoms: C_19  and  C_20 
REMARK       I    between atoms: C_20  and  N_22 
REMARK    9  A    between atoms: N_22  and  O_23 
REMARK   10  A    between atoms: N_24  and  S_25 
ROOT
HETATM    1  N   UNK N   1      20.484  18.045   3.699  0.00  0.00    -0.191 NA
HETATM    2  C   UNK N   1      19.693  16.864   3.364  0.00  0.00     0.134 C 
HETATM    3  C   UNK N   1      20.040  16.473   1.942  0.00  0.00     0.109 C 
HETATM    4  C   UNK N   1      20.273  17.816   1.300  0.00  0.00     0.057 C 
HETATM    5  C   UNK N   1      20.889  18.644   2.416  0.00  0.00     0.170 C 
ENDROOT
BRANCH   1   6
HETATM    6  S   UNK N   1      21.798  17.543   4.835  0.00  0.00     0.244 S 
HETATM    7  O   UNK N   1      20.774  16.402   4.709  0.00  0.00    -0.206 OA
HETATM    8  O   UNK N   1      21.161  18.493   5.862  0.00  0.00    -0.206 OA
BRANCH   6   9
HETATM    9  C   UNK N   1      21.720  16.468   6.346  0.00  0.00     0.074 A 
HETATM   10  C   UNK N   1      20.782  16.790   7.341  0.00  0.00     0.027 A 
HETATM   11  C   UNK N   1      20.677  16.011   8.503  0.00  0.00     0.038 A 
HETATM   12  C   UNK N   1      21.508  14.899   8.693  0.00  0.00     0.068 A 
HETATM   13  C   UNK N   1      22.436  14.557   7.703  0.00  0.00     0.038 A 
HETATM   14  C   UNK N   1      22.538  15.312   6.546  0.00  0.00     0.027 A 
BRANCH  12  15
HETATM   15  O   UNK N   1      21.411  14.178   9.838  0.00  0.00    -0.351 OA
BRANCH  15  16
HETATM   16  C   UNK N   1      21.558  12.803   9.886  0.00  0.00     0.175 C 
BRANCH  16  17
HETATM   17  C   UNK N   1      21.853  12.327  11.303  0.00  0.00     0.026 C 
BRANCH  17  18
HETATM   18  C   UNK N   1      23.260  11.758  11.391  0.00  0.00    -0.002 C 
HETATM   19  C   UNK N   1      24.131  12.285  10.265  0.00  0.00     0.005 C 
ENDBRANCH  17  18
ENDBRANCH  16  17
ENDBRANCH  15  16
ENDBRANCH  12  15
ENDBRANCH   6   9
ENDBRANCH   1   6
BRANCH   5  20
HETATM   20  C   UNK N   1      20.617  20.141   2.431  0.00  0.00     0.260 C 
HETATM   21  O   UNK N   1      20.483  20.688   3.521  0.00  0.00    -0.270 OA
HETATM   22  N   UNK N   1      20.509  20.907   1.318  0.00  0.00    -0.236 N 
HETATM   23  H   UNK N   1      20.327  21.869   1.422  0.00  0.00     0.197 HD
BRANCH  22  24
HETATM   24  O   UNK N   1      20.638  20.408   0.079  0.00  0.00    -0.287 OA
HETATM   25  H   UNK N   1      21.373  20.688  -0.487  0.00  0.00     0.244 HD
ENDBRANCH  22  24
ENDBRANCH   5  20
BRANCH   3  26
HETATM   26  N   UNK N   1      21.278  15.698   1.918  0.00  0.00    -0.314 N 
HETATM   27  H   UNK N   1      22.218  16.080   1.802  0.00  0.00     0.172 HD
BRANCH  26  28
HETATM   28  S   UNK N   1      20.873  13.987   2.125  0.00  0.00     0.223 S 
HETATM   29  C   UNK N   1      21.944  12.583   1.716  0.00  0.00     0.185 C 
HETATM   30  O   UNK N   1      21.267  14.030   0.641  0.00  0.00    -0.206 OA
HETATM   31  O   UNK N   1      22.238  14.091   2.822  0.00  0.00    -0.206 OA
ENDBRANCH  26  28
ENDBRANCH   3  26
TORSDOF 10
ENDMDL
MODEL 7
REMARK VINA RESULT:      -6.6      8.845     12.896
REMARK  10 active torsions:
REMARK  status: ('A' for Active; 'I' for Inactive)
REMARK    1  A    between atoms: C_2  and  C_3 
REMARK    2  A    between atoms: C_3  and  C_4 
REMARK    3  A    between atoms: C_4  and  O_5 
REMARK    4  A    between atoms: O_5  and  C_6 
REMARK    5  A    between atoms: C_9  and  S_12 
REMARK    6  A    between atoms: S_12  and  N_15 
REMARK    7  A    between atoms: C_17  and  N_24 
REMARK    8  A    between atoms: C_19  and  C_20 
REMARK       I    between atoms: C_20  and  N_22 
REMARK    9  A    between atoms: N_22  and  O_23 
REMARK   10  A    between atoms: N_24  and  S_25 
ROOT
HETATM    1  N   UNK N   1      35.219  14.180   8.923  0.00  0.00    -0.191 NA
HETATM    2  C   UNK N   1      35.748  12.872   9.299  0.00  0.00     0.134 C 
HETATM    3  C   UNK N   1      35.178  12.525  10.660  0.00  0.00     0.109 C 
HETATM    4  C   UNK N   1      35.112  13.877  11.321  0.00  0.00     0.057 C 
HETATM    5  C   UNK N   1      34.781  14.820  10.176  0.00  0.00     0.170 C 
ENDROOT
BRANCH   1   6
HETATM    6  S   UNK N   1      33.975  13.939   7.633  0.00  0.00     0.244 S 
HETATM    7  O   UNK N   1      34.724  15.259   7.375  0.00  0.00    -0.206 OA
HETATM    8  O   UNK N   1      32.924  14.318   8.689  0.00  0.00    -0.206 OA
BRANCH   6   9
HETATM    9  C   UNK N   1      32.952  15.189   6.717  0.00  0.00     0.074 A 
HETATM   10  C   UNK N   1      31.560  15.170   6.902  0.00  0.00     0.027 A 
HETATM   11  C   UNK N   1      30.738  16.092   6.237  0.00  0.00     0.038 A 
HETATM   12  C   UNK N   1      31.292  17.046   5.374  0.00  0.00     0.068 A 
HETATM   13  C   UNK N   1      32.679  17.087   5.192  0.00  0.00     0.038 A 
HETATM   14  C   UNK N   1      33.500  16.190   5.855  0.00  0.00     0.027 A 
BRANCH  12  15
HETATM   15  O   UNK N   1      30.476  17.909   4.718  0.00  0.00    -0.351 OA
BRANCH  15  16
HETATM   16  C   UNK N   1      29.149  18.108   5.056  0.00  0.00     0.175 C 
BRANCH  16  17
HETATM   17  C   UNK N   1      28.217  17.611   3.958  0.00  0.00     0.026 C 
BRANCH  17  18
HETATM   18  C   UNK N   1      26.925  18.412   3.953  0.00  0.00    -0.002 C 
HETATM   19  C   UNK N   1      27.208  19.899   3.834  0.00  0.00     0.005 C 
ENDBRANCH  17  18
ENDBRANCH  16  17
ENDBRANCH  15  16
ENDBRANCH  12  15
ENDBRANCH   6   9
ENDBRANCH   1   6
BRANCH   5  20
HETATM   20  C   UNK N   1      35.310  16.245  10.245  0.00  0.00     0.260 C 
HETATM   21  O   UNK N   1      36.430  16.418  10.714  0.00  0.00    -0.270 OA
HETATM   22  N   UNK N   1      34.620  17.335   9.827  0.00  0.00    -0.236 N 
HETATM   23  H   UNK N   1      35.039  18.221   9.913  0.00  0.00     0.197 HD
BRANCH  22  24
HETATM   24  O   UNK N   1      33.389  17.255   9.300  0.00  0.00    -0.287 OA
HETATM   25  H   UNK N   1      33.068  17.945   8.700  0.00  0.00     0.244 HD
ENDBRANCH  22  24
ENDBRANCH   5  20
BRANCH   3  26
HETATM   26  N   UNK N   1      33.829  11.982  10.519  0.00  0.00    -0.314 N 
HETATM   27  H   UNK N   1      32.967  12.446  10.807  0.00  0.00     0.172 HD
BRANCH  26  28
HETATM   28  S   UNK N   1      33.944  10.384   9.765  0.00  0.00     0.223 S 
HETATM   29  C   UNK N   1      32.713   9.059   9.888  0.00  0.00     0.185 C 
HETATM   30  O   UNK N   1      33.706  10.011  11.236  0.00  0.00    -0.206 OA
HETATM   31  O   UNK N   1      32.550  10.859   9.326  0.00  0.00    -0.206 OA
ENDBRANCH  26  28
ENDBRANCH   3  26
TORSDOF 10
ENDMDL
MODEL 8
REMARK VINA RESULT:      -6.6      9.893     13.060
REMARK  10 active torsions:
REMARK  status: ('A' for Active; 'I' for Inactive)
REMARK    1  A    between atoms: C_2  and  C_3 
REMARK    2  A    between atoms: C_3  and  C_4 
REMARK    3  A    between atoms: C_4  and  O_5 
REMARK    4  A    between atoms: O_5  and  C_6 
REMARK    5  A    between atoms: C_9  and  S_12 
REMARK    6  A    between atoms: S_12  and  N_15 
REMARK    7  A    between atoms: C_17  and  N_24 
REMARK    8  A    between atoms: C_19  and  C_20 
REMARK       I    between atoms: C_20  and  N_22 
REMARK    9  A    between atoms: N_22  and  O_23 
REMARK   10  A    between atoms: N_24  and  S_25 
ROOT
HETATM    1  N   UNK N   1      34.766  16.294   8.680  0.00  0.00    -0.191 NA
HETATM    2  C   UNK N   1      34.442  17.665   8.297  0.00  0.00     0.134 C 
HETATM    3  C   UNK N   1      33.004  17.677   7.818  0.00  0.00     0.109 C 
HETATM    4  C   UNK N   1      32.890  16.330   7.153  0.00  0.00     0.057 C 
HETATM    5  C   UNK N   1      33.782  15.435   7.998  0.00  0.00     0.170 C 
ENDROOT
BRANCH   1   6
HETATM    6  S   UNK N   1      34.834  16.210  10.485  0.00  0.00     0.244 S 
HETATM    7  O   UNK N   1      35.940  15.318   9.894  0.00  0.00    -0.206 OA
HETATM    8  O   UNK N   1      33.576  15.330  10.410  0.00  0.00    -0.206 OA
BRANCH   6   9
HETATM    9  C   UNK N   1      35.297  14.796  11.595  0.00  0.00     0.074 A 
HETATM   10  C   UNK N   1      35.997  15.083  12.778  0.00  0.00     0.027 A 
HETATM   11  C   UNK N   1      36.371  14.054  13.655  0.00  0.00     0.038 A 
HETATM   12  C   UNK N   1      36.055  12.721  13.363  0.00  0.00     0.068 A 
HETATM   13  C   UNK N   1      35.345  12.421  12.196  0.00  0.00     0.038 A 
HETATM   14  C   UNK N   1      34.959  13.432  11.331  0.00  0.00     0.027 A 
BRANCH  12  15
HETATM   15  O   UNK N   1      36.454  11.738  14.210  0.00  0.00    -0.351 OA
BRANCH  15  16
HETATM   16  C   UNK N   1      35.622  11.164  15.155  0.00  0.00     0.175 C 
BRANCH  16  17
HETATM   17  C   UNK N   1      35.860  11.759  16.537  0.00  0.00     0.026 C 
BRANCH  17  18
HETATM   18  C   UNK N   1      34.802  12.803  16.858  0.00  0.00    -0.002 C 
HETATM   19  C   UNK N   1      35.356  13.872  17.782  0.00  0.00     0.005 C 
ENDBRANCH  17  18
ENDBRANCH  16  17
ENDBRANCH  15  16
ENDBRANCH  12  15
ENDBRANCH   6   9
ENDBRANCH   1   6
BRANCH   5  20
HETATM   20  C   UNK N   1      34.490  14.275   7.314  0.00  0.00     0.260 C 
HETATM   21  O   UNK N   1      34.238  13.140   7.704  0.00  0.00    -0.270 OA
HETATM   22  N   UNK N   1      35.384  14.417   6.304  0.00  0.00    -0.236 N 
HETATM   23  H   UNK N   1      35.797  13.609   5.922  0.00  0.00     0.197 HD
BRANCH  22  24
HETATM   24  O   UNK N   1      35.729  15.613   5.805  0.00  0.00    -0.287 OA
HETATM   25  H   UNK N   1      36.538  16.054   6.106  0.00  0.00     0.244 HD
ENDBRANCH  22  24
ENDBRANCH   5  20
BRANCH   3  26
HETATM   26  N   UNK N   1      32.092  17.737   8.958  0.00  0.00    -0.314 N 
HETATM   27  H   UNK N   1      32.367  17.792   9.939  0.00  0.00     0.172 HD
BRANCH  26  28
HETATM   28  S   UNK N   1      30.430  17.700   8.348  0.00  0.00     0.223 S 
HETATM   29  C   UNK N   1      28.929  17.932   9.336  0.00  0.00     0.185 C 
HETATM   30  O   UNK N   1      30.365  16.657   9.473  0.00  0.00    -0.206 OA
HETATM   31  O   UNK N   1      30.466  19.019   9.135  0.00  0.00    -0.206 OA
ENDBRANCH  26  28
ENDBRANCH   3  26
TORSDOF 10
ENDMDL
MODEL 9
REMARK VINA RESULT:      -6.6     10.717     12.741
REMARK  10 active torsions:
REMARK  status: ('A' for Active; 'I' for Inactive)
REMARK    1  A    between atoms: C_2  and  C_3 
REMARK    2  A    between atoms: C_3  and  C_4 
REMARK    3  A    between atoms: C_4  and  O_5 
REMARK    4  A    between atoms: O_5  and  C_6 
REMARK    5  A    between atoms: C_9  and  S_12 
REMARK    6  A    between atoms: S_12  and  N_15 
REMARK    7  A    between atoms: C_17  and  N_24 
REMARK    8  A    between atoms: C_19  and  C_20 
REMARK       I    between atoms: C_20  and  N_22 
REMARK    9  A    between atoms: N_22  and  O_23 
REMARK   10  A    between atoms: N_24  and  S_25 
ROOT
HETATM    1  N   UNK N   1      33.108  15.989   7.397  0.00  0.00    -0.191 NA
HETATM    2  C   UNK N   1      32.334  15.683   6.197  0.00  0.00     0.134 C 
HETATM    3  C   UNK N   1      33.093  16.246   5.011  0.00  0.00     0.109 C 
HETATM    4  C   UNK N   1      33.700  17.494   5.598  0.00  0.00     0.057 C 
HETATM    5  C   UNK N   1      33.999  17.105   7.037  0.00  0.00     0.170 C 
ENDROOT
BRANCH   1   6
HETATM    6  S   UNK N   1      33.880  14.461   7.979  0.00  0.00     0.244 S 
HETATM    7  O   UNK N   1      33.018  15.055   9.107  0.00  0.00    -0.206 OA
HETATM    8  O   UNK N   1      35.194  15.255   8.067  0.00  0.00    -0.206 OA
BRANCH   6   9
HETATM    9  C   UNK N   1      34.485  14.003   9.673  0.00  0.00     0.074 A 
HETATM   10  C   UNK N   1      34.805  12.658   9.921  0.00  0.00     0.027 A 
HETATM   11  C   UNK N   1      35.268  12.256  11.183  0.00  0.00     0.038 A 
HETATM   12  C   UNK N   1      35.417  13.188  12.217  0.00  0.00     0.068 A 
HETATM   13  C   UNK N   1      35.118  14.534  11.980  0.00  0.00     0.038 A 
HETATM   14  C   UNK N   1      34.673  14.943  10.733  0.00  0.00     0.027 A 
BRANCH  12  15
HETATM   15  O   UNK N   1      35.838  12.771  13.438  0.00  0.00    -0.351 OA
BRANCH  15  16
HETATM   16  C   UNK N   1      35.218  13.133  14.621  0.00  0.00     0.175 C 
BRANCH  16  17
HETATM   17  C   UNK N   1      36.238  13.502  15.691  0.00  0.00     0.026 C 
BRANCH  17  18
HETATM   18  C   UNK N   1      37.114  14.651  15.217  0.00  0.00    -0.002 C 
HETATM   19  C   UNK N   1      37.340  15.657  16.330  0.00  0.00     0.005 C 
ENDBRANCH  17  18
ENDBRANCH  16  17
ENDBRANCH  15  16
ENDBRANCH  12  15
ENDBRANCH   6   9
ENDBRANCH   1   6
BRANCH   5  20
HETATM   20  C   UNK N   1      33.932  18.190   8.101  0.00  0.00     0.260 C 
HETATM   21  O   UNK N   1      34.895  18.941   8.215  0.00  0.00    -0.270 OA
HETATM   22  N   UNK N   1      32.879  18.376   8.935  0.00  0.00    -0.236 N 
HETATM   23  H   UNK N   1      32.924  19.102   9.597  0.00  0.00     0.197 HD
BRANCH  22  24
HETATM   24  O   UNK N   1      31.779  17.610   8.893  0.00  0.00    -0.287 OA
HETATM   25  H   UNK N   1      31.850  16.646   8.973  0.00  0.00     0.244 HD
ENDBRANCH  22  24
ENDBRANCH   5  20
BRANCH   3  26
HETATM   26  N   UNK N   1      34.155  15.328   4.609  0.00  0.00    -0.314 N 
HETATM   27  H   UNK N   1      35.144  15.421   4.843  0.00  0.00     0.172 HD
BRANCH  26  28
HETATM   28  S   UNK N   1      33.436  14.028   3.646  0.00  0.00     0.223 S 
HETATM   29  C   UNK N   1      33.924  13.553   1.966  0.00  0.00     0.185 C 
HETATM   30  O   UNK N   1      33.300  15.224   2.692  0.00  0.00    -0.206 OA
HETATM   31  O   UNK N   1      34.937  13.715   3.556  0.00  0.00    -0.206 OA
ENDBRANCH  26  28
ENDBRANCH   3  26
TORSDOF 10
ENDMDL
