REMARK  5 active torsions:
REMARK  status: ('A' for Active; 'I' for Inactive)
REMARK    1  A    between atoms: C_2  and  C_1 
REMARK    2  A    between atoms: O_8  and  C_1 
REMARK    3  A    between atoms: C_4  and  O_9 
REMARK    4  A    between atoms: C_5  and  O_10 
REMARK    5  A    between atoms: C_6  and  O_11 
ROOT
HETATM    1  C   UNK N   1       1.820   0.560  -0.163  0.00  0.00     0.179 C 
HETATM    2  C   UNK N   1      -0.576  -0.946   0.318  0.00  0.00     0.256 C 
HETATM    3  C   UNK N   1       0.483   1.312   0.045  0.00  0.00     0.180 C 
HETATM    4  C   UNK N   1      -0.673   0.404  -0.403  0.00  0.00     0.188 C 
HETATM    5  C   UNK N   1       0.820  -1.534   0.062  0.00  0.00     0.294 C 
HETATM    6  F   UNK N   1      -1.554  -1.805  -0.153  0.00  0.00    -0.241 F 
HETATM    7  O   UNK N   1       1.819  -0.662   0.562  0.00  0.00    -0.348 OA
ENDROOT
BRANCH   1   8
HETATM    8  C   UNK N   1       3.000   1.396   0.327  0.00  0.00     0.198 C 
BRANCH   8   9
HETATM    9  O   UNK N   1       3.124   2.568  -0.421  0.00  0.00    -0.398 OA
HETATM   10  H   UNK N   1       3.872   2.901  -0.940  0.00  0.00     0.209 HD
ENDBRANCH   8   9
ENDBRANCH   1   8
BRANCH   3  11
HETATM   11  O   UNK N   1       0.329   1.647   1.395  0.00  0.00    -0.390 OA
HETATM   12  H   UNK N   1       0.477   1.855   2.331  0.00  0.00     0.210 HD
ENDBRANCH   3  11
BRANCH   4  13
HETATM   13  O   UNK N   1      -1.903   1.011  -0.137  0.00  0.00    -0.390 OA
HETATM   14  H   UNK N   1      -1.965   1.961   0.048  0.00  0.00     0.210 HD
ENDBRANCH   4  13
BRANCH   5  15
HETATM   15  O   UNK N   1       0.928  -2.762   0.719  0.00  0.00    -0.368 OA
HETATM   16  H   UNK N   1       0.227  -3.253   1.175  0.00  0.00     0.212 HD
ENDBRANCH   5  15
TORSDOF 5
