MODEL 1
REMARK VINA RESULT:      -7.2      0.000      0.000
REMARK  19 active torsions:
REMARK  status: ('A' for Active; 'I' for Inactive)
REMARK    1  A    between atoms: C_2  and  C_4 
REMARK    2  A    between atoms: C_4  and  C_5 
REMARK    3  A    between atoms: C_5  and  O_7 
REMARK    4  A    between atoms: C_8  and  O_7 
REMARK    5  A    between atoms: C_9  and  O_10 
REMARK    6  A    between atoms: C_11  and  O_10 
REMARK    7  A    between atoms: C_24  and  C_26 
REMARK    8  A    between atoms: C_24  and  C_29 
REMARK    9  A    between atoms: C_26  and  O_27 
REMARK   10  A    between atoms: C_32  and  O_33 
REMARK   11  A    between atoms: C_37  and  C_38 
REMARK   12  A    between atoms: C_38  and  O_39 
REMARK   13  A    between atoms: O_39  and  O_40 
REMARK   14  A    between atoms: C_41  and  O_42 
REMARK   15  A    between atoms: O_42  and  S_43 
REMARK   16  A    between atoms: S_43  and  O_44 
REMARK   17  A    between atoms: C_47  and  O_48 
REMARK   18  A    between atoms: O_48  and  S_49 
REMARK   19  A    between atoms: S_49  and  O_50 
ROOT
HETATM    1  C   UNK N   1      36.707  14.262  14.745  0.00  0.00     0.160 C 
HETATM    2  O   UNK N   1      37.714  14.485  15.613  0.00  0.00    -0.775 OA
HETATM    3  O   UNK N   1      36.424  15.123  13.926  0.00  0.00    -0.649 OA
HETATM    4  H   UNK N   1      38.340  14.642  16.292  0.00  0.00     0.167 HD
ENDROOT
BRANCH   1   5
HETATM    5  C   UNK N   1      35.919  12.963  14.778  0.00  0.00     0.137 C 
HETATM    6  C   UNK N   1      36.877  11.759  15.056  0.00  0.00     0.024 C 
HETATM    7  C   UNK N   1      36.374  10.725  16.076  0.00  0.00     0.008 C 
HETATM    8  C   UNK N   1      37.555  11.087  13.812  0.00  0.00    -0.032 C 
HETATM    9  C   UNK N   1      35.386   9.774  15.422  0.00  0.00     0.013 C 
HETATM   10  C   UNK N   1      36.128   8.914  14.417  0.00  0.00    -0.005 C 
HETATM   11  C   UNK N   1      35.175   7.993  13.668  0.00  0.00     0.021 C 
HETATM   12  C   UNK N   1      36.777   9.822  13.322  0.00  0.00     0.005 C 
HETATM   13  C   UNK N   1      37.032   7.879  15.121  0.00  0.00     0.155 C 
HETATM   14  C   UNK N   1      36.137   6.998  13.019  0.00  0.00     0.017 C 
HETATM   15  C   UNK N   1      36.833   7.712  11.853  0.00  0.00     0.009 C 
HETATM   16  C   UNK N   1      37.114   6.783  14.123  0.00  0.00    -0.056 C 
HETATM   17  C   UNK N   1      37.566   9.000  12.276  0.00  0.00     0.007 C 
HETATM   18  C   UNK N   1      37.464   5.554  14.500  0.00  0.00     0.017 C 
HETATM   19  C   UNK N   1      37.647  12.084  12.639  0.00  0.00     0.042 C 
HETATM   20  C   UNK N   1      38.979  10.732  14.211  0.00  0.00     0.016 C 
HETATM   21  C   UNK N   1      36.313  12.782  12.291  0.00  0.00     0.127 C 
HETATM   22  C   UNK N   1      35.264  12.744  13.410  0.00  0.00     0.064 C 
BRANCH  13  23
HETATM   23  O   UNK N   1      38.286   8.370  15.477  0.00  0.00    -0.390 OA
HETATM   24  H   UNK N   1      39.117   8.557  15.940  0.00  0.00     0.210 HD
ENDBRANCH  13  23
BRANCH  21  25
HETATM   25  O   UNK N   1      35.753  12.327  11.095  0.00  0.00    -0.353 OA
BRANCH  25  26
HETATM   26  C   UNK N   1      34.572  13.064  10.820  0.00  0.00     0.293 C 
HETATM   27  C   UNK N   1      33.616  12.527   9.746  0.00  0.00     0.220 C 
HETATM   28  C   UNK N   1      33.646  13.383   8.463  0.00  0.00     0.211 C 
HETATM   29  C   UNK N   1      33.803  14.893   8.729  0.00  0.00     0.208 C 
HETATM   30  C   UNK N   1      34.942  15.064   9.754  0.00  0.00     0.184 C 
HETATM   31  O   UNK N   1      34.616  14.470  10.994  0.00  0.00    -0.348 OA
BRANCH  27  32
HETATM   32  O   UNK N   1      33.917  11.205   9.493  0.00  0.00    -0.308 OA
BRANCH  32  33
HETATM   33  C   UNK N   1      33.031  10.207   9.725  0.00  0.00     0.259 C 
HETATM   34  O   UNK N   1      31.881  10.285   9.324  0.00  0.00    -0.265 OA
BRANCH  33  35
HETATM   35  C   UNK N   1      33.422   9.038  10.567  0.00  0.00     0.115 C 
BRANCH  35  36
HETATM   36  C   UNK N   1      33.344   7.719   9.797  0.00  0.00    -0.013 C 
HETATM   37  C   UNK N   1      34.547   7.492   8.893  0.00  0.00     0.010 C 
HETATM   38  C   UNK N   1      33.284   6.586  10.799  0.00  0.00     0.010 C 
ENDBRANCH  35  36
ENDBRANCH  33  35
ENDBRANCH  32  33
ENDBRANCH  27  32
BRANCH  28  39
HETATM   39  O   UNK N   1      32.632  13.087   7.517  0.00  0.00    -0.253 OA
BRANCH  39  40
HETATM   40  S   UNK N   1      33.322  12.708   5.964  0.00  0.00     0.240 S 
HETATM   41  O   UNK N   1      34.431  11.648   5.941  0.00  0.00    -0.579 OA
HETATM   42  O   UNK N   1      32.275  12.325   4.907  0.00  0.00    -0.579 OA
BRANCH  40  43
HETATM   43  O   UNK N   1      32.596  11.297   6.617  0.00  0.00    -0.274 OA
HETATM   44  H   UNK N   1      32.633  10.384   6.943  0.00  0.00     0.234 HD
ENDBRANCH  40  43
ENDBRANCH  39  40
ENDBRANCH  28  39
BRANCH  29  45
HETATM   45  O   UNK N   1      32.594  15.464   9.172  0.00  0.00    -0.253 OA
BRANCH  45  46
HETATM   46  S   UNK N   1      32.083  16.616   7.979  0.00  0.00     0.240 S 
HETATM   47  O   UNK N   1      30.605  16.539   7.563  0.00  0.00    -0.579 OA
HETATM   48  O   UNK N   1      32.417  18.071   8.340  0.00  0.00    -0.579 OA
BRANCH  46  49
HETATM   49  O   UNK N   1      31.178  16.933   9.400  0.00  0.00    -0.274 OA
HETATM   50  H   UNK N   1      31.367  17.506  10.159  0.00  0.00     0.234 HD
ENDBRANCH  46  49
ENDBRANCH  45  46
ENDBRANCH  29  45
BRANCH  30  51
HETATM   51  C   UNK N   1      35.349  16.516   9.956  0.00  0.00     0.244 C 
BRANCH  51  52
HETATM   52  O   UNK N   1      36.376  16.596  10.899  0.00  0.00    -0.241 OA
BRANCH  52  53
HETATM   53  O   UNK N   1      37.238  15.671  10.535  0.00  0.00    -0.251 OA
HETATM   54  H   UNK N   1      37.907  15.328  11.149  0.00  0.00     0.253 HD
ENDBRANCH  52  53
ENDBRANCH  51  52
ENDBRANCH  30  51
ENDBRANCH  25  26
ENDBRANCH  21  25
BRANCH   5  55
HETATM   55  C   UNK N   1      34.876  13.116  15.874  0.00  0.00     0.160 C 
HETATM   56  O   UNK N   1      33.708  12.816  15.674  0.00  0.00    -0.649 OA
BRANCH  55  57
HETATM   57  O   UNK N   1      35.237  13.594  17.082  0.00  0.00    -0.775 OA
HETATM   58  H   UNK N   1      35.825  13.223  17.711  0.00  0.00     0.167 HD
ENDBRANCH  55  57
ENDBRANCH   5  55
ENDBRANCH   1   5
TORSDOF 19
ENDMDL
MODEL 2
REMARK VINA RESULT:      -6.5      8.895     12.308
REMARK  19 active torsions:
REMARK  status: ('A' for Active; 'I' for Inactive)
REMARK    1  A    between atoms: C_2  and  C_4 
REMARK    2  A    between atoms: C_4  and  C_5 
REMARK    3  A    between atoms: C_5  and  O_7 
REMARK    4  A    between atoms: C_8  and  O_7 
REMARK    5  A    between atoms: C_9  and  O_10 
REMARK    6  A    between atoms: C_11  and  O_10 
REMARK    7  A    between atoms: C_24  and  C_26 
REMARK    8  A    between atoms: C_24  and  C_29 
REMARK    9  A    between atoms: C_26  and  O_27 
REMARK   10  A    between atoms: C_32  and  O_33 
REMARK   11  A    between atoms: C_37  and  C_38 
REMARK   12  A    between atoms: C_38  and  O_39 
REMARK   13  A    between atoms: O_39  and  O_40 
REMARK   14  A    between atoms: C_41  and  O_42 
REMARK   15  A    between atoms: O_42  and  S_43 
REMARK   16  A    between atoms: S_43  and  O_44 
REMARK   17  A    between atoms: C_47  and  O_48 
REMARK   18  A    between atoms: O_48  and  S_49 
REMARK   19  A    between atoms: S_49  and  O_50 
ROOT
HETATM    1  C   UNK N   1      27.985  18.858   7.324  0.00  0.00     0.160 C 
HETATM    2  O   UNK N   1      27.301  19.238   8.421  0.00  0.00    -0.775 OA
HETATM    3  O   UNK N   1      27.926  19.545   6.315  0.00  0.00    -0.649 OA
HETATM    4  H   UNK N   1      26.764  19.417   9.167  0.00  0.00     0.167 HD
ENDROOT
BRANCH   1   5
HETATM    5  C   UNK N   1      28.821  17.588   7.324  0.00  0.00     0.137 C 
HETATM    6  C   UNK N   1      29.543  17.418   5.948  0.00  0.00     0.024 C 
HETATM    7  C   UNK N   1      31.018  16.992   6.014  0.00  0.00     0.008 C 
HETATM    8  C   UNK N   1      28.756  16.665   4.821  0.00  0.00    -0.032 C 
HETATM    9  C   UNK N   1      31.126  15.494   6.245  0.00  0.00     0.013 C 
HETATM   10  C   UNK N   1      30.629  14.772   5.007  0.00  0.00    -0.005 C 
HETATM   11  C   UNK N   1      30.637  13.263   5.207  0.00  0.00     0.021 C 
HETATM   12  C   UNK N   1      29.135  15.150   4.741  0.00  0.00     0.005 C 
HETATM   13  C   UNK N   1      31.625  14.911   3.836  0.00  0.00     0.155 C 
HETATM   14  C   UNK N   1      30.474  12.751   3.777  0.00  0.00     0.017 C 
HETATM   15  C   UNK N   1      29.017  12.984   3.358  0.00  0.00     0.009 C 
HETATM   16  C   UNK N   1      31.359  13.690   3.033  0.00  0.00    -0.056 C 
HETATM   17  C   UNK N   1      28.576  14.456   3.477  0.00  0.00     0.007 C 
HETATM   18  C   UNK N   1      32.270  13.239   2.172  0.00  0.00     0.017 C 
HETATM   19  C   UNK N   1      27.236  16.772   5.054  0.00  0.00     0.042 C 
HETATM   20  C   UNK N   1      29.058  17.373   3.509  0.00  0.00     0.016 C 
HETATM   21  C   UNK N   1      26.780  16.369   6.475  0.00  0.00     0.127 C 
HETATM   22  C   UNK N   1      27.895  16.384   7.529  0.00  0.00     0.064 C 
BRANCH  13  23
HETATM   23  O   UNK N   1      31.471  16.080   3.095  0.00  0.00    -0.390 OA
HETATM   24  H   UNK N   1      31.104  16.848   2.629  0.00  0.00     0.210 HD
ENDBRANCH  13  23
BRANCH  21  25
HETATM   25  O   UNK N   1      26.109  15.145   6.508  0.00  0.00    -0.353 OA
BRANCH  25  26
HETATM   26  C   UNK N   1      24.719  15.376   6.670  0.00  0.00     0.293 C 
HETATM   27  C   UNK N   1      23.849  14.227   7.195  0.00  0.00     0.220 C 
HETATM   28  C   UNK N   1      22.939  13.639   6.095  0.00  0.00     0.211 C 
HETATM   29  C   UNK N   1      22.387  14.695   5.118  0.00  0.00     0.208 C 
HETATM   30  C   UNK N   1      23.568  15.593   4.695  0.00  0.00     0.184 C 
HETATM   31  O   UNK N   1      24.098  16.303   5.795  0.00  0.00    -0.348 OA
BRANCH  27  32
HETATM   32  O   UNK N   1      24.660  13.267   7.763  0.00  0.00    -0.308 OA
BRANCH  32  33
HETATM   33  C   UNK N   1      24.714  13.069   9.101  0.00  0.00     0.259 C 
HETATM   34  O   UNK N   1      25.535  13.653   9.789  0.00  0.00    -0.265 OA
BRANCH  33  35
HETATM   35  C   UNK N   1      23.832  12.049   9.744  0.00  0.00     0.115 C 
BRANCH  35  36
HETATM   36  C   UNK N   1      22.807  12.682  10.683  0.00  0.00    -0.013 C 
HETATM   37  C   UNK N   1      21.391  12.639  10.127  0.00  0.00     0.010 C 
HETATM   38  C   UNK N   1      22.826  11.919  11.991  0.00  0.00     0.010 C 
ENDBRANCH  35  36
ENDBRANCH  33  35
ENDBRANCH  32  33
ENDBRANCH  27  32
BRANCH  28  39
HETATM   39  O   UNK N   1      21.950  12.731   6.552  0.00  0.00    -0.253 OA
BRANCH  39  40
HETATM   40  S   UNK N   1      21.653  11.488   5.370  0.00  0.00     0.240 S 
HETATM   41  O   UNK N   1      22.847  11.054   4.510  0.00  0.00    -0.579 OA
HETATM   42  O   UNK N   1      21.006  10.227   5.959  0.00  0.00    -0.579 OA
BRANCH  40  43
HETATM   43  O   UNK N   1      22.825  10.929   6.492  0.00  0.00    -0.274 OA
HETATM   44  H   UNK N   1      23.605  11.056   7.053  0.00  0.00     0.234 HD
ENDBRANCH  40  43
ENDBRANCH  39  40
ENDBRANCH  28  39
BRANCH  29  45
HETATM   45  O   UNK N   1      21.336  15.431   5.698  0.00  0.00    -0.253 OA
BRANCH  45  46
HETATM   46  S   UNK N   1      19.871  15.004   4.872  0.00  0.00     0.240 S 
HETATM   47  O   UNK N   1      18.564  15.411   5.573  0.00  0.00    -0.579 OA
HETATM   48  O   UNK N   1      19.818  15.487   3.415  0.00  0.00    -0.579 OA
BRANCH  46  49
HETATM   49  O   UNK N   1      19.906  16.716   4.977  0.00  0.00    -0.274 OA
HETATM   50  H   UNK N   1      20.432  17.306   5.539  0.00  0.00     0.234 HD
ENDBRANCH  46  49
ENDBRANCH  45  46
ENDBRANCH  29  45
BRANCH  30  51
HETATM   51  C   UNK N   1      23.212  16.553   3.570  0.00  0.00     0.244 C 
BRANCH  51  52
HETATM   52  O   UNK N   1      23.392  17.872   3.994  0.00  0.00    -0.241 OA
BRANCH  52  53
HETATM   53  O   UNK N   1      22.272  18.180   4.613  0.00  0.00    -0.251 OA
HETATM   54  H   UNK N   1      21.530  18.596   4.147  0.00  0.00     0.253 HD
ENDBRANCH  52  53
ENDBRANCH  51  52
ENDBRANCH  30  51
ENDBRANCH  25  26
ENDBRANCH  21  25
BRANCH   5  55
HETATM   55  C   UNK N   1      29.815  17.724   8.467  0.00  0.00     0.160 C 
HETATM   56  O   UNK N   1      30.106  16.761   9.162  0.00  0.00    -0.649 OA
BRANCH  55  57
HETATM   57  O   UNK N   1      30.381  18.920   8.726  0.00  0.00    -0.775 OA
HETATM   58  H   UNK N   1      31.285  19.126   8.864  0.00  0.00     0.167 HD
ENDBRANCH  55  57
ENDBRANCH   5  55
ENDBRANCH   1   5
TORSDOF 19
ENDMDL
MODEL 3
REMARK VINA RESULT:      -6.4      6.844     11.437
REMARK  19 active torsions:
REMARK  status: ('A' for Active; 'I' for Inactive)
REMARK    1  A    between atoms: C_2  and  C_4 
REMARK    2  A    between atoms: C_4  and  C_5 
REMARK    3  A    between atoms: C_5  and  O_7 
REMARK    4  A    between atoms: C_8  and  O_7 
REMARK    5  A    between atoms: C_9  and  O_10 
REMARK    6  A    between atoms: C_11  and  O_10 
REMARK    7  A    between atoms: C_24  and  C_26 
REMARK    8  A    between atoms: C_24  and  C_29 
REMARK    9  A    between atoms: C_26  and  O_27 
REMARK   10  A    between atoms: C_32  and  O_33 
REMARK   11  A    between atoms: C_37  and  C_38 
REMARK   12  A    between atoms: C_38  and  O_39 
REMARK   13  A    between atoms: O_39  and  O_40 
REMARK   14  A    between atoms: C_41  and  O_42 
REMARK   15  A    between atoms: O_42  and  S_43 
REMARK   16  A    between atoms: S_43  and  O_44 
REMARK   17  A    between atoms: C_47  and  O_48 
REMARK   18  A    between atoms: O_48  and  S_49 
REMARK   19  A    between atoms: S_49  and  O_50 
ROOT
HETATM    1  C   UNK N   1      27.728  19.293   6.773  0.00  0.00     0.160 C 
HETATM    2  O   UNK N   1      27.412  18.570   7.866  0.00  0.00    -0.775 OA
HETATM    3  O   UNK N   1      28.242  20.392   6.912  0.00  0.00    -0.649 OA
HETATM    4  H   UNK N   1      27.091  18.083   8.599  0.00  0.00     0.167 HD
ENDROOT
BRANCH   1   5
HETATM    5  C   UNK N   1      27.447  18.762   5.377  0.00  0.00     0.137 C 
HETATM    6  C   UNK N   1      26.495  17.524   5.453  0.00  0.00     0.024 C 
HETATM    7  C   UNK N   1      25.353  17.494   4.424  0.00  0.00     0.008 C 
HETATM    8  C   UNK N   1      27.167  16.120   5.636  0.00  0.00    -0.032 C 
HETATM    9  C   UNK N   1      25.865  17.005   3.079  0.00  0.00     0.013 C 
HETATM   10  C   UNK N   1      26.239  15.540   3.203  0.00  0.00    -0.005 C 
HETATM   11  C   UNK N   1      26.836  15.011   1.906  0.00  0.00     0.021 C 
HETATM   12  C   UNK N   1      27.360  15.370   4.278  0.00  0.00     0.005 C 
HETATM   13  C   UNK N   1      24.985  14.648   3.324  0.00  0.00     0.155 C 
HETATM   14  C   UNK N   1      26.783  13.500   2.123  0.00  0.00     0.017 C 
HETATM   15  C   UNK N   1      27.884  13.131   3.126  0.00  0.00     0.009 C 
HETATM   16  C   UNK N   1      25.451  13.350   2.773  0.00  0.00    -0.056 C 
HETATM   17  C   UNK N   1      27.772  13.891   4.462  0.00  0.00     0.007 C 
HETATM   18  C   UNK N   1      24.572  12.449   2.338  0.00  0.00     0.017 C 
HETATM   19  C   UNK N   1      28.546  16.262   6.312  0.00  0.00     0.042 C 
HETATM   20  C   UNK N   1      26.286  15.319   6.582  0.00  0.00     0.016 C 
HETATM   21  C   UNK N   1      29.482  17.292   5.638  0.00  0.00     0.127 C 
HETATM   22  C   UNK N   1      28.766  18.310   4.742  0.00  0.00     0.064 C 
BRANCH  13  23
HETATM   23  O   UNK N   1      24.496  14.530   4.623  0.00  0.00    -0.390 OA
HETATM   24  H   UNK N   1      24.073  14.210   5.435  0.00  0.00     0.210 HD
ENDBRANCH  13  23
BRANCH  21  25
HETATM   25  O   UNK N   1      30.536  16.698   4.940  0.00  0.00    -0.353 OA
BRANCH  25  26
HETATM   26  C   UNK N   1      31.749  16.930   5.636  0.00  0.00     0.293 C 
HETATM   27  C   UNK N   1      32.887  15.914   5.469  0.00  0.00     0.220 C 
HETATM   28  C   UNK N   1      33.100  15.069   6.743  0.00  0.00     0.211 C 
HETATM   29  C   UNK N   1      32.902  15.859   8.051  0.00  0.00     0.208 C 
HETATM   30  C   UNK N   1      31.593  16.661   7.910  0.00  0.00     0.184 C 
HETATM   31  O   UNK N   1      31.679  17.617   6.874  0.00  0.00    -0.348 OA
BRANCH  27  32
HETATM   32  O   UNK N   1      32.634  15.129   4.364  0.00  0.00    -0.308 OA
BRANCH  32  33
HETATM   33  C   UNK N   1      33.192  15.384   3.156  0.00  0.00     0.259 C 
HETATM   34  O   UNK N   1      32.945  16.417   2.557  0.00  0.00    -0.265 OA
BRANCH  33  35
HETATM   35  C   UNK N   1      34.042  14.351   2.491  0.00  0.00     0.115 C 
BRANCH  35  36
HETATM   36  C   UNK N   1      34.411  13.210   3.438  0.00  0.00    -0.013 C 
HETATM   37  C   UNK N   1      34.097  11.838   2.860  0.00  0.00     0.010 C 
HETATM   38  C   UNK N   1      35.900  13.280   3.709  0.00  0.00     0.010 C 
ENDBRANCH  35  36
ENDBRANCH  33  35
ENDBRANCH  32  33
ENDBRANCH  27  32
BRANCH  28  39
HETATM   39  O   UNK N   1      34.272  14.270   6.747  0.00  0.00    -0.253 OA
BRANCH  39  40
HETATM   40  S   UNK N   1      33.879  12.591   6.981  0.00  0.00     0.240 S 
HETATM   41  O   UNK N   1      35.036  11.590   6.876  0.00  0.00    -0.579 OA
HETATM   42  O   UNK N   1      33.128  12.316   8.292  0.00  0.00    -0.579 OA
BRANCH  40  43
HETATM   43  O   UNK N   1      34.996  13.081   8.188  0.00  0.00    -0.274 OA
HETATM   44  H   UNK N   1      35.553  13.744   8.624  0.00  0.00     0.234 HD
ENDBRANCH  40  43
ENDBRANCH  39  40
ENDBRANCH  28  39
BRANCH  29  45
HETATM   45  O   UNK N   1      34.009  16.686   8.323  0.00  0.00    -0.253 OA
BRANCH  45  46
HETATM   46  S   UNK N   1      34.503  16.390   9.961  0.00  0.00     0.240 S 
HETATM   47  O   UNK N   1      34.721  14.915  10.338  0.00  0.00    -0.579 OA
HETATM   48  O   UNK N   1      35.738  17.195  10.390  0.00  0.00    -0.579 OA
BRANCH  46  49
HETATM   49  O   UNK N   1      35.766  15.827   8.947  0.00  0.00    -0.274 OA
HETATM   50  H   UNK N   1      36.086  14.929   8.770  0.00  0.00     0.234 HD
ENDBRANCH  46  49
ENDBRANCH  45  46
ENDBRANCH  29  45
BRANCH  30  51
HETATM   51  C   UNK N   1      31.161  17.328   9.208  0.00  0.00     0.244 C 
BRANCH  51  52
HETATM   52  O   UNK N   1      29.823  17.720   9.120  0.00  0.00    -0.241 OA
BRANCH  52  53
HETATM   53  O   UNK N   1      29.702  18.696   9.995  0.00  0.00    -0.251 OA
HETATM   54  H   UNK N   1      29.884  19.619   9.757  0.00  0.00     0.253 HD
ENDBRANCH  52  53
ENDBRANCH  51  52
ENDBRANCH  30  51
ENDBRANCH  25  26
ENDBRANCH  21  25
BRANCH   5  55
HETATM   55  C   UNK N   1      26.819  19.907   4.596  0.00  0.00     0.160 C 
HETATM   56  O   UNK N   1      27.175  20.156   3.454  0.00  0.00    -0.649 OA
BRANCH  55  57
HETATM   57  O   UNK N   1      25.861  20.664   5.169  0.00  0.00    -0.775 OA
HETATM   58  H   UNK N   1      25.378  21.379   4.802  0.00  0.00     0.167 HD
ENDBRANCH  55  57
ENDBRANCH   5  55
ENDBRANCH   1   5
TORSDOF 19
ENDMDL
MODEL 4
REMARK VINA RESULT:      -6.4     18.385     23.071
REMARK  19 active torsions:
REMARK  status: ('A' for Active; 'I' for Inactive)
REMARK    1  A    between atoms: C_2  and  C_4 
REMARK    2  A    between atoms: C_4  and  C_5 
REMARK    3  A    between atoms: C_5  and  O_7 
REMARK    4  A    between atoms: C_8  and  O_7 
REMARK    5  A    between atoms: C_9  and  O_10 
REMARK    6  A    between atoms: C_11  and  O_10 
REMARK    7  A    between atoms: C_24  and  C_26 
REMARK    8  A    between atoms: C_24  and  C_29 
REMARK    9  A    between atoms: C_26  and  O_27 
REMARK   10  A    between atoms: C_32  and  O_33 
REMARK   11  A    between atoms: C_37  and  C_38 
REMARK   12  A    between atoms: C_38  and  O_39 
REMARK   13  A    between atoms: O_39  and  O_40 
REMARK   14  A    between atoms: C_41  and  O_42 
REMARK   15  A    between atoms: O_42  and  S_43 
REMARK   16  A    between atoms: S_43  and  O_44 
REMARK   17  A    between atoms: C_47  and  O_48 
REMARK   18  A    between atoms: O_48  and  S_49 
REMARK   19  A    between atoms: S_49  and  O_50 
ROOT
HETATM    1  C   UNK N   1      28.091  21.673 -10.038  0.00  0.00     0.160 C 
HETATM    2  O   UNK N   1      28.903  20.618 -10.243  0.00  0.00    -0.775 OA
HETATM    3  O   UNK N   1      27.892  22.460 -10.951  0.00  0.00    -0.649 OA
HETATM    4  H   UNK N   1      29.535  19.930 -10.319  0.00  0.00     0.167 HD
ENDROOT
BRANCH   1   5
HETATM    5  C   UNK N   1      27.429  21.900  -8.689  0.00  0.00     0.137 C 
HETATM    6  C   UNK N   1      26.971  23.389  -8.557  0.00  0.00     0.024 C 
HETATM    7  C   UNK N   1      25.568  23.608  -7.968  0.00  0.00     0.008 C 
HETATM    8  C   UNK N   1      28.018  24.409  -7.992  0.00  0.00    -0.032 C 
HETATM    9  C   UNK N   1      25.607  23.496  -6.453  0.00  0.00     0.013 C 
HETATM   10  C   UNK N   1      26.387  24.673  -5.897  0.00  0.00    -0.005 C 
HETATM   11  C   UNK N   1      26.530  24.575  -4.385  0.00  0.00     0.021 C 
HETATM   12  C   UNK N   1      27.846  24.651  -6.457  0.00  0.00     0.005 C 
HETATM   13  C   UNK N   1      25.588  25.987  -6.024  0.00  0.00     0.155 C 
HETATM   14  C   UNK N   1      26.988  25.985  -4.016  0.00  0.00     0.017 C 
HETATM   15  C   UNK N   1      28.455  26.128  -4.442  0.00  0.00     0.009 C 
HETATM   16  C   UNK N   1      26.130  26.809  -4.912  0.00  0.00    -0.056 C 
HETATM   17  C   UNK N   1      28.687  25.840  -5.939  0.00  0.00     0.007 C 
HETATM   18  C   UNK N   1      25.436  27.842  -4.438  0.00  0.00     0.017 C 
HETATM   19  C   UNK N   1      29.455  23.908  -8.246  0.00  0.00     0.042 C 
HETATM   20  C   UNK N   1      27.853  25.704  -8.771  0.00  0.00     0.016 C 
HETATM   21  C   UNK N   1      29.715  22.458  -7.776  0.00  0.00     0.127 C 
HETATM   22  C   UNK N   1      28.449  21.616  -7.581  0.00  0.00     0.064 C 
BRANCH  13  23
HETATM   23  O   UNK N   1      25.718  26.614  -7.261  0.00  0.00    -0.390 OA
HETATM   24  H   UNK N   1      26.046  27.122  -8.020  0.00  0.00     0.210 HD
ENDBRANCH  13  23
BRANCH  21  25
HETATM   25  O   UNK N   1      30.517  22.388  -6.635  0.00  0.00    -0.353 OA
BRANCH  25  26
HETATM   26  C   UNK N   1      31.093  21.095  -6.544  0.00  0.00     0.293 C 
HETATM   27  C   UNK N   1      32.141  20.843  -5.453  0.00  0.00     0.220 C 
HETATM   28  C   UNK N   1      33.563  20.700  -6.037  0.00  0.00     0.211 C 
HETATM   29  C   UNK N   1      33.606  19.965  -7.390  0.00  0.00     0.208 C 
HETATM   30  C   UNK N   1      32.502  20.572  -8.279  0.00  0.00     0.184 C 
HETATM   31  O   UNK N   1      31.217  20.343  -7.739  0.00  0.00    -0.348 OA
BRANCH  27  32
HETATM   32  O   UNK N   1      32.067  21.849  -4.513  0.00  0.00    -0.308 OA
BRANCH  32  33
HETATM   33  C   UNK N   1      31.662  21.619  -3.241  0.00  0.00     0.259 C 
HETATM   34  O   UNK N   1      32.473  21.412  -2.353  0.00  0.00    -0.265 OA
BRANCH  33  35
HETATM   35  C   UNK N   1      30.206  21.512  -2.926  0.00  0.00     0.115 C 
BRANCH  35  36
HETATM   36  C   UNK N   1      29.507  22.871  -2.957  0.00  0.00    -0.013 C 
HETATM   37  C   UNK N   1      28.584  23.087  -1.767  0.00  0.00     0.010 C 
HETATM   38  C   UNK N   1      30.569  23.951  -2.935  0.00  0.00     0.010 C 
ENDBRANCH  35  36
ENDBRANCH  33  35
ENDBRANCH  32  33
ENDBRANCH  27  32
BRANCH  28  39
HETATM   39  O   UNK N   1      34.547  20.244  -5.123  0.00  0.00    -0.253 OA
BRANCH  39  40
HETATM   40  S   UNK N   1      35.832  21.407  -4.962  0.00  0.00     0.240 S 
HETATM   41  O   UNK N   1      36.599  21.408  -3.633  0.00  0.00    -0.579 OA
HETATM   42  O   UNK N   1      36.857  21.348  -6.104  0.00  0.00    -0.579 OA
BRANCH  40  43
HETATM   43  O   UNK N   1      36.484  19.825  -4.829  0.00  0.00    -0.274 OA
HETATM   44  H   UNK N   1      36.396  18.868  -4.702  0.00  0.00     0.234 HD
ENDBRANCH  40  43
ENDBRANCH  39  40
ENDBRANCH  28  39
BRANCH  29  45
HETATM   45  O   UNK N   1      33.454  18.574  -7.223  0.00  0.00    -0.253 OA
BRANCH  45  46
HETATM   46  S   UNK N   1      34.875  17.806  -7.858  0.00  0.00     0.240 S 
HETATM   47  O   UNK N   1      36.218  18.373  -7.371  0.00  0.00    -0.579 OA
HETATM   48  O   UNK N   1      34.888  16.281  -7.673  0.00  0.00    -0.579 OA
BRANCH  46  49
HETATM   49  O   UNK N   1      34.895  17.572  -6.159  0.00  0.00    -0.274 OA
HETATM   50  H   UNK N   1      35.109  18.183  -5.437  0.00  0.00     0.234 HD
ENDBRANCH  46  49
ENDBRANCH  45  46
ENDBRANCH  29  45
BRANCH  30  51
HETATM   51  C   UNK N   1      32.563  20.085  -9.720  0.00  0.00     0.244 C 
BRANCH  51  52
HETATM   52  O   UNK N   1      31.404  19.369 -10.030  0.00  0.00    -0.241 OA
BRANCH  52  53
HETATM   53  O   UNK N   1      31.640  18.147  -9.602  0.00  0.00    -0.251 OA
HETATM   54  H   UNK N   1      32.543  17.820  -9.467  0.00  0.00     0.253 HD
ENDBRANCH  52  53
ENDBRANCH  51  52
ENDBRANCH  30  51
ENDBRANCH  25  26
ENDBRANCH  21  25
BRANCH   5  55
HETATM   55  C   UNK N   1      26.250  20.941  -8.618  0.00  0.00     0.160 C 
HETATM   56  O   UNK N   1      26.103  20.200  -7.657  0.00  0.00    -0.649 OA
BRANCH  55  57
HETATM   57  O   UNK N   1      25.358  20.898  -9.628  0.00  0.00    -0.775 OA
HETATM   58  H   UNK N   1      25.435  20.481 -10.464  0.00  0.00     0.167 HD
ENDBRANCH  55  57
ENDBRANCH   5  55
ENDBRANCH   1   5
TORSDOF 19
ENDMDL
MODEL 5
REMARK VINA RESULT:      -6.4     11.845     15.961
REMARK  19 active torsions:
REMARK  status: ('A' for Active; 'I' for Inactive)
REMARK    1  A    between atoms: C_2  and  C_4 
REMARK    2  A    between atoms: C_4  and  C_5 
REMARK    3  A    between atoms: C_5  and  O_7 
REMARK    4  A    between atoms: C_8  and  O_7 
REMARK    5  A    between atoms: C_9  and  O_10 
REMARK    6  A    between atoms: C_11  and  O_10 
REMARK    7  A    between atoms: C_24  and  C_26 
REMARK    8  A    between atoms: C_24  and  C_29 
REMARK    9  A    between atoms: C_26  and  O_27 
REMARK   10  A    between atoms: C_32  and  O_33 
REMARK   11  A    between atoms: C_37  and  C_38 
REMARK   12  A    between atoms: C_38  and  O_39 
REMARK   13  A    between atoms: O_39  and  O_40 
REMARK   14  A    between atoms: C_41  and  O_42 
REMARK   15  A    between atoms: O_42  and  S_43 
REMARK   16  A    between atoms: S_43  and  O_44 
REMARK   17  A    between atoms: C_47  and  O_48 
REMARK   18  A    between atoms: O_48  and  S_49 
REMARK   19  A    between atoms: S_49  and  O_50 
ROOT
HETATM    1  C   UNK N   1      23.453  11.605   6.798  0.00  0.00     0.160 C 
HETATM    2  O   UNK N   1      23.574  10.285   6.559  0.00  0.00    -0.775 OA
HETATM    3  O   UNK N   1      24.311  12.173   7.457  0.00  0.00    -0.649 OA
HETATM    4  H   UNK N   1      23.573   9.353   6.455  0.00  0.00     0.167 HD
ENDROOT
BRANCH   1   5
HETATM    5  C   UNK N   1      22.266  12.391   6.268  0.00  0.00     0.137 C 
HETATM    6  C   UNK N   1      21.532  11.572   5.156  0.00  0.00     0.024 C 
HETATM    7  C   UNK N   1      19.997  11.562   5.234  0.00  0.00     0.008 C 
HETATM    8  C   UNK N   1      22.051  11.745   3.686  0.00  0.00    -0.032 C 
HETATM    9  C   UNK N   1      19.429  12.845   4.651  0.00  0.00     0.013 C 
HETATM   10  C   UNK N   1      19.684  12.855   3.155  0.00  0.00    -0.005 C 
HETATM   11  C   UNK N   1      19.207  14.156   2.523  0.00  0.00     0.021 C 
HETATM   12  C   UNK N   1      21.221  12.798   2.882  0.00  0.00     0.005 C 
HETATM   13  C   UNK N   1      18.784  11.836   2.424  0.00  0.00     0.155 C 
HETATM   14  C   UNK N   1      19.208  13.807   1.036  0.00  0.00     0.017 C 
HETATM   15  C   UNK N   1      20.669  13.769   0.566  0.00  0.00     0.009 C 
HETATM   16  C   UNK N   1      18.662  12.422   1.065  0.00  0.00    -0.056 C 
HETATM   17  C   UNK N   1      21.544  12.787   1.369  0.00  0.00     0.007 C 
HETATM   18  C   UNK N   1      17.660  12.063   0.265  0.00  0.00     0.017 C 
HETATM   19  C   UNK N   1      23.529  12.185   3.681  0.00  0.00     0.042 C 
HETATM   20  C   UNK N   1      21.989  10.378   3.023  0.00  0.00     0.016 C 
HETATM   21  C   UNK N   1      23.831  13.412   4.571  0.00  0.00     0.127 C 
HETATM   22  C   UNK N   1      22.771  13.696   5.643  0.00  0.00     0.064 C 
BRANCH  13  23
HETATM   23  O   UNK N   1      19.297  10.541   2.402  0.00  0.00    -0.390 OA
HETATM   24  H   UNK N   1      19.393   9.576   2.397  0.00  0.00     0.210 HD
ENDBRANCH  13  23
BRANCH  21  25
HETATM   25  O   UNK N   1      24.090  14.571   3.836  0.00  0.00    -0.353 OA
BRANCH  25  26
HETATM   26  C   UNK N   1      24.550  15.588   4.711  0.00  0.00     0.293 C 
HETATM   27  C   UNK N   1      23.806  16.930   4.718  0.00  0.00     0.220 C 
HETATM   28  C   UNK N   1      24.634  18.055   4.060  0.00  0.00     0.211 C 
HETATM   29  C   UNK N   1      26.145  17.962   4.348  0.00  0.00     0.208 C 
HETATM   30  C   UNK N   1      26.570  16.499   4.109  0.00  0.00     0.184 C 
HETATM   31  O   UNK N   1      25.935  15.621   5.015  0.00  0.00    -0.348 OA
BRANCH  27  32
HETATM   32  O   UNK N   1      22.578  16.770   4.112  0.00  0.00    -0.308 OA
BRANCH  32  33
HETATM   33  C   UNK N   1      21.417  17.055   4.750  0.00  0.00     0.259 C 
HETATM   34  O   UNK N   1      21.337  16.988   5.965  0.00  0.00    -0.265 OA
BRANCH  33  35
HETATM   35  C   UNK N   1      20.185  17.358   3.962  0.00  0.00     0.115 C 
BRANCH  35  36
HETATM   36  C   UNK N   1      20.487  18.184   2.712  0.00  0.00    -0.013 C 
HETATM   37  C   UNK N   1      20.179  17.436   1.422  0.00  0.00     0.010 C 
HETATM   38  C   UNK N   1      19.633  19.434   2.750  0.00  0.00     0.010 C 
ENDBRANCH  35  36
ENDBRANCH  33  35
ENDBRANCH  32  33
ENDBRANCH  27  32
BRANCH  28  39
HETATM   39  O   UNK N   1      24.114  19.364   4.229  0.00  0.00    -0.253 OA
BRANCH  39  40
HETATM   40  S   UNK N   1      23.743  20.089   2.690  0.00  0.00     0.240 S 
HETATM   41  O   UNK N   1      22.683  21.198   2.688  0.00  0.00    -0.579 OA
HETATM   42  O   UNK N   1      24.980  20.610   1.946  0.00  0.00    -0.579 OA
BRANCH  40  43
HETATM   43  O   UNK N   1      24.362  21.292   3.745  0.00  0.00    -0.274 OA
HETATM   44  H   UNK N   1      25.071  21.685   4.277  0.00  0.00     0.234 HD
ENDBRANCH  40  43
ENDBRANCH  39  40
ENDBRANCH  28  39
BRANCH  29  45
HETATM   45  O   UNK N   1      26.446  18.401   5.652  0.00  0.00    -0.253 OA
BRANCH  45  46
HETATM   46  S   UNK N   1      27.499  19.774   5.520  0.00  0.00     0.240 S 
HETATM   47  O   UNK N   1      27.003  20.912   4.612  0.00  0.00    -0.579 OA
HETATM   48  O   UNK N   1      27.912  20.369   6.874  0.00  0.00    -0.579 OA
BRANCH  46  49
HETATM   49  O   UNK N   1      26.034  20.330   6.219  0.00  0.00    -0.274 OA
HETATM   50  H   UNK N   1      25.128  20.335   5.874  0.00  0.00     0.234 HD
ENDBRANCH  46  49
ENDBRANCH  45  46
ENDBRANCH  29  45
BRANCH  30  51
HETATM   51  C   UNK N   1      28.078  16.303   4.154  0.00  0.00     0.244 C 
BRANCH  51  52
HETATM   52  O   UNK N   1      28.693  17.113   3.197  0.00  0.00    -0.241 OA
BRANCH  52  53
HETATM   53  O   UNK N   1      29.949  17.191   3.581  0.00  0.00    -0.251 OA
HETATM   54  H   UNK N   1      30.339  16.539   4.185  0.00  0.00     0.253 HD
ENDBRANCH  52  53
ENDBRANCH  51  52
ENDBRANCH  30  51
ENDBRANCH  25  26
ENDBRANCH  21  25
BRANCH   5  55
HETATM   55  C   UNK N   1      21.357  12.661   7.457  0.00  0.00     0.160 C 
HETATM   56  O   UNK N   1      20.591  13.613   7.458  0.00  0.00    -0.649 OA
BRANCH  55  57
HETATM   57  O   UNK N   1      21.398  11.847   8.531  0.00  0.00    -0.775 OA
HETATM   58  H   UNK N   1      20.907  11.066   8.698  0.00  0.00     0.167 HD
ENDBRANCH  55  57
ENDBRANCH   5  55
ENDBRANCH   1   5
TORSDOF 19
ENDMDL
MODEL 6
REMARK VINA RESULT:      -6.2      9.867     13.328
REMARK  19 active torsions:
REMARK  status: ('A' for Active; 'I' for Inactive)
REMARK    1  A    between atoms: C_2  and  C_4 
REMARK    2  A    between atoms: C_4  and  C_5 
REMARK    3  A    between atoms: C_5  and  O_7 
REMARK    4  A    between atoms: C_8  and  O_7 
REMARK    5  A    between atoms: C_9  and  O_10 
REMARK    6  A    between atoms: C_11  and  O_10 
REMARK    7  A    between atoms: C_24  and  C_26 
REMARK    8  A    between atoms: C_24  and  C_29 
REMARK    9  A    between atoms: C_26  and  O_27 
REMARK   10  A    between atoms: C_32  and  O_33 
REMARK   11  A    between atoms: C_37  and  C_38 
REMARK   12  A    between atoms: C_38  and  O_39 
REMARK   13  A    between atoms: O_39  and  O_40 
REMARK   14  A    between atoms: C_41  and  O_42 
REMARK   15  A    between atoms: O_42  and  S_43 
REMARK   16  A    between atoms: S_43  and  O_44 
REMARK   17  A    between atoms: C_47  and  O_48 
REMARK   18  A    between atoms: O_48  and  S_49 
REMARK   19  A    between atoms: S_49  and  O_50 
ROOT
HETATM    1  C   UNK N   1      22.186  14.863   3.025  0.00  0.00     0.160 C 
HETATM    2  O   UNK N   1      21.460  15.938   3.388  0.00  0.00    -0.775 OA
HETATM    3  O   UNK N   1      22.797  14.884   1.968  0.00  0.00    -0.649 OA
HETATM    4  H   UNK N   1      20.870  16.626   3.626  0.00  0.00     0.167 HD
ENDROOT
BRANCH   1   5
HETATM    5  C   UNK N   1      22.248  13.627   3.908  0.00  0.00     0.137 C 
HETATM    6  C   UNK N   1      21.696  13.956   5.334  0.00  0.00     0.024 C 
HETATM    7  C   UNK N   1      20.750  12.909   5.943  0.00  0.00     0.008 C 
HETATM    8  C   UNK N   1      22.719  14.515   6.382  0.00  0.00    -0.032 C 
HETATM    9  C   UNK N   1      21.546  11.755   6.529  0.00  0.00     0.013 C 
HETATM   10  C   UNK N   1      22.311  12.254   7.740  0.00  0.00    -0.005 C 
HETATM   11  C   UNK N   1      23.193  11.161   8.326  0.00  0.00     0.021 C 
HETATM   12  C   UNK N   1      23.290  13.395   7.312  0.00  0.00     0.005 C 
HETATM   13  C   UNK N   1      21.366  12.527   8.930  0.00  0.00     0.155 C 
HETATM   14  C   UNK N   1      23.555  11.740   9.692  0.00  0.00     0.017 C 
HETATM   15  C   UNK N   1      24.582  12.858   9.469  0.00  0.00     0.009 C 
HETATM   16  C   UNK N   1      22.254  12.337  10.104  0.00  0.00    -0.056 C 
HETATM   17  C   UNK N   1      24.088  13.959   8.511  0.00  0.00     0.007 C 
HETATM   18  C   UNK N   1      21.737  12.092  11.307  0.00  0.00     0.017 C 
HETATM   19  C   UNK N   1      23.901  15.205   5.672  0.00  0.00     0.042 C 
HETATM   20  C   UNK N   1      21.999  15.582   7.191  0.00  0.00     0.016 C 
HETATM   21  C   UNK N   1      24.574  14.348   4.575  0.00  0.00     0.127 C 
HETATM   22  C   UNK N   1      23.710  13.193   4.053  0.00  0.00     0.064 C 
BRANCH  13  23
HETATM   23  O   UNK N   1      20.775  13.788   8.907  0.00  0.00    -0.390 OA
HETATM   24  H   UNK N   1      20.574  14.727   9.045  0.00  0.00     0.210 HD
ENDBRANCH  13  23
BRANCH  21  25
HETATM   25  O   UNK N   1      25.833  13.873   4.947  0.00  0.00    -0.353 OA
BRANCH  25  26
HETATM   26  C   UNK N   1      26.833  14.605   4.258  0.00  0.00     0.293 C 
HETATM   27  C   UNK N   1      27.837  13.827   3.397  0.00  0.00     0.220 C 
HETATM   28  C   UNK N   1      29.244  13.799   4.030  0.00  0.00     0.211 C 
HETATM   29  C   UNK N   1      29.630  15.109   4.743  0.00  0.00     0.208 C 
HETATM   30  C   UNK N   1      28.434  15.522   5.624  0.00  0.00     0.184 C 
HETATM   31  O   UNK N   1      27.292  15.811   4.845  0.00  0.00    -0.348 OA
BRANCH  27  32
HETATM   32  O   UNK N   1      27.348  12.559   3.165  0.00  0.00    -0.308 OA
BRANCH  32  33
HETATM   33  C   UNK N   1      26.983  12.141   1.930  0.00  0.00     0.259 C 
HETATM   34  O   UNK N   1      27.769  11.545   1.212  0.00  0.00    -0.265 OA
BRANCH  33  35
HETATM   35  C   UNK N   1      25.638  12.497   1.385  0.00  0.00     0.115 C 
BRANCH  35  36
HETATM   36  C   UNK N   1      24.942  11.299   0.738  0.00  0.00    -0.013 C 
HETATM   37  C   UNK N   1      24.641  10.185   1.730  0.00  0.00     0.010 C 
HETATM   38  C   UNK N   1      23.631  11.774   0.147  0.00  0.00     0.010 C 
ENDBRANCH  35  36
ENDBRANCH  33  35
ENDBRANCH  32  33
ENDBRANCH  27  32
BRANCH  28  39
HETATM   39  O   UNK N   1      30.272  13.297   3.191  0.00  0.00    -0.253 OA
BRANCH  39  40
HETATM   40  S   UNK N   1      31.284  12.172   4.053  0.00  0.00     0.240 S 
HETATM   41  O   UNK N   1      30.582  11.224   5.034  0.00  0.00    -0.579 OA
HETATM   42  O   UNK N   1      32.181  11.330   3.134  0.00  0.00    -0.579 OA
BRANCH  40  43
HETATM   43  O   UNK N   1      30.161  11.299   3.094  0.00  0.00    -0.274 OA
HETATM   44  H   UNK N   1      29.651  11.159   2.281  0.00  0.00     0.234 HD
ENDBRANCH  40  43
ENDBRANCH  39  40
ENDBRANCH  28  39
BRANCH  29  45
HETATM   45  O   UNK N   1      29.984  16.111   3.818  0.00  0.00    -0.253 OA
BRANCH  45  46
HETATM   46  S   UNK N   1      31.680  16.432   4.008  0.00  0.00     0.240 S 
HETATM   47  O   UNK N   1      32.344  17.217   2.865  0.00  0.00    -0.579 OA
HETATM   48  O   UNK N   1      32.036  17.106   5.341  0.00  0.00    -0.579 OA
BRANCH  46  49
HETATM   49  O   UNK N   1      30.885  17.951   3.956  0.00  0.00    -0.274 OA
HETATM   50  H   UNK N   1      31.236  18.853   4.016  0.00  0.00     0.234 HD
ENDBRANCH  46  49
ENDBRANCH  45  46
ENDBRANCH  29  45
BRANCH  30  51
HETATM   51  C   UNK N   1      28.751  16.689   6.548  0.00  0.00     0.244 C 
BRANCH  51  52
HETATM   52  O   UNK N   1      27.581  17.395   6.842  0.00  0.00    -0.241 OA
BRANCH  52  53
HETATM   53  O   UNK N   1      26.875  16.577   7.591  0.00  0.00    -0.251 OA
HETATM   54  H   UNK N   1      26.877  15.618   7.441  0.00  0.00     0.253 HD
ENDBRANCH  52  53
ENDBRANCH  51  52
ENDBRANCH  30  51
ENDBRANCH  25  26
ENDBRANCH  21  25
BRANCH   5  55
HETATM   55  C   UNK N   1      21.417  12.557   3.217  0.00  0.00     0.160 C 
HETATM   56  O   UNK N   1      21.760  11.384   3.241  0.00  0.00    -0.649 OA
BRANCH  55  57
HETATM   57  O   UNK N   1      20.290  12.902   2.562  0.00  0.00    -0.775 OA
HETATM   58  H   UNK N   1      19.666  13.569   2.774  0.00  0.00     0.167 HD
ENDBRANCH  55  57
ENDBRANCH   5  55
ENDBRANCH   1   5
TORSDOF 19
ENDMDL
MODEL 7
REMARK VINA RESULT:      -6.1     11.467     15.935
REMARK  19 active torsions:
REMARK  status: ('A' for Active; 'I' for Inactive)
REMARK    1  A    between atoms: C_2  and  C_4 
REMARK    2  A    between atoms: C_4  and  C_5 
REMARK    3  A    between atoms: C_5  and  O_7 
REMARK    4  A    between atoms: C_8  and  O_7 
REMARK    5  A    between atoms: C_9  and  O_10 
REMARK    6  A    between atoms: C_11  and  O_10 
REMARK    7  A    between atoms: C_24  and  C_26 
REMARK    8  A    between atoms: C_24  and  C_29 
REMARK    9  A    between atoms: C_26  and  O_27 
REMARK   10  A    between atoms: C_32  and  O_33 
REMARK   11  A    between atoms: C_37  and  C_38 
REMARK   12  A    between atoms: C_38  and  O_39 
REMARK   13  A    between atoms: O_39  and  O_40 
REMARK   14  A    between atoms: C_41  and  O_42 
REMARK   15  A    between atoms: O_42  and  S_43 
REMARK   16  A    between atoms: S_43  and  O_44 
REMARK   17  A    between atoms: C_47  and  O_48 
REMARK   18  A    between atoms: O_48  and  S_49 
REMARK   19  A    between atoms: S_49  and  O_50 
ROOT
HETATM    1  C   UNK N   1      27.149  12.824   3.664  0.00  0.00     0.160 C 
HETATM    2  O   UNK N   1      26.904  12.493   4.947  0.00  0.00    -0.775 OA
HETATM    3  O   UNK N   1      27.118  11.955   2.806  0.00  0.00    -0.649 OA
HETATM    4  H   UNK N   1      26.834  12.285   5.857  0.00  0.00     0.167 HD
ENDROOT
BRANCH   1   5
HETATM    5  C   UNK N   1      27.467  14.258   3.274  0.00  0.00     0.137 C 
HETATM    6  C   UNK N   1      27.390  15.187   4.529  0.00  0.00     0.024 C 
HETATM    7  C   UNK N   1      28.528  16.211   4.675  0.00  0.00     0.008 C 
HETATM    8  C   UNK N   1      25.990  15.801   4.875  0.00  0.00    -0.032 C 
HETATM    9  C   UNK N   1      28.275  17.414   3.782  0.00  0.00     0.013 C 
HETATM   10  C   UNK N   1      27.075  18.174   4.315  0.00  0.00    -0.005 C 
HETATM   11  C   UNK N   1      26.721  19.349   3.414  0.00  0.00     0.021 C 
HETATM   12  C   UNK N   1      25.816  17.247   4.306  0.00  0.00     0.005 C 
HETATM   13  C   UNK N   1      27.415  18.912   5.627  0.00  0.00     0.155 C 
HETATM   14  C   UNK N   1      25.776  20.158   4.301  0.00  0.00     0.017 C 
HETATM   15  C   UNK N   1      24.435  19.415   4.358  0.00  0.00     0.009 C 
HETATM   16  C   UNK N   1      26.458  20.048   5.621  0.00  0.00    -0.056 C 
HETATM   17  C   UNK N   1      24.562  17.963   4.857  0.00  0.00     0.007 C 
HETATM   18  C   UNK N   1      26.691  21.128   6.365  0.00  0.00     0.017 C 
HETATM   19  C   UNK N   1      24.857  14.919   4.313  0.00  0.00     0.042 C 
HETATM   20  C   UNK N   1      25.855  15.791   6.390  0.00  0.00     0.016 C 
HETATM   21  C   UNK N   1      25.005  14.571   2.814  0.00  0.00     0.127 C 
HETATM   22  C   UNK N   1      26.425  14.741   2.260  0.00  0.00     0.064 C 
BRANCH  13  23
HETATM   23  O   UNK N   1      27.297  18.123   6.769  0.00  0.00    -0.390 OA
HETATM   24  H   UNK N   1      27.461  17.495   7.490  0.00  0.00     0.210 HD
ENDBRANCH  13  23
BRANCH  21  25
HETATM   25  O   UNK N   1      24.091  15.246   2.003  0.00  0.00    -0.353 OA
BRANCH  25  26
HETATM   26  C   UNK N   1      23.165  14.316   1.464  0.00  0.00     0.293 C 
HETATM   27  C   UNK N   1      21.670  14.553   1.714  0.00  0.00     0.220 C 
HETATM   28  C   UNK N   1      21.082  13.537   2.716  0.00  0.00     0.211 C 
HETATM   29  C   UNK N   1      21.667  12.118   2.575  0.00  0.00     0.208 C 
HETATM   30  C   UNK N   1      23.200  12.260   2.484  0.00  0.00     0.184 C 
HETATM   31  O   UNK N   1      23.587  12.970   1.326  0.00  0.00    -0.348 OA
BRANCH  27  32
HETATM   32  O   UNK N   1      21.481  15.855   2.127  0.00  0.00    -0.308 OA
BRANCH  32  33
HETATM   33  C   UNK N   1      20.608  16.687   1.512  0.00  0.00     0.259 C 
HETATM   34  O   UNK N   1      20.350  16.560   0.326  0.00  0.00    -0.265 OA
BRANCH  33  35
HETATM   35  C   UNK N   1      20.022  17.843   2.255  0.00  0.00     0.115 C 
BRANCH  35  36
HETATM   36  C   UNK N   1      21.095  18.704   2.922  0.00  0.00    -0.013 C 
HETATM   37  C   UNK N   1      21.000  20.172   2.531  0.00  0.00     0.010 C 
HETATM   38  C   UNK N   1      20.922  18.601   4.423  0.00  0.00     0.010 C 
ENDBRANCH  35  36
ENDBRANCH  33  35
ENDBRANCH  32  33
ENDBRANCH  27  32
BRANCH  28  39
HETATM   39  O   UNK N   1      19.668  13.547   2.826  0.00  0.00    -0.253 OA
BRANCH  39  40
HETATM   40  S   UNK N   1      19.172  13.355   4.483  0.00  0.00     0.240 S 
HETATM   41  O   UNK N   1      17.825  13.976   4.877  0.00  0.00    -0.579 OA
HETATM   42  O   UNK N   1      19.181  11.895   4.958  0.00  0.00    -0.579 OA
BRANCH  40  43
HETATM   43  O   UNK N   1      18.021  12.598   3.460  0.00  0.00    -0.274 OA
HETATM   44  H   UNK N   1      17.713  11.858   2.913  0.00  0.00     0.234 HD
ENDBRANCH  40  43
ENDBRANCH  39  40
ENDBRANCH  28  39
BRANCH  29  45
HETATM   45  O   UNK N   1      21.125  11.448   1.461  0.00  0.00    -0.253 OA
BRANCH  45  46
HETATM   46  S   UNK N   1      20.291  10.041   2.043  0.00  0.00     0.240 S 
HETATM   47  O   UNK N   1      18.756  10.101   1.983  0.00  0.00    -0.579 OA
HETATM   48  O   UNK N   1      20.758   8.732   1.392  0.00  0.00    -0.579 OA
BRANCH  46  49
HETATM   49  O   UNK N   1      19.891  10.211   0.384  0.00  0.00    -0.274 OA
HETATM   50  H   UNK N   1      19.075  10.002  -0.097  0.00  0.00     0.234 HD
ENDBRANCH  46  49
ENDBRANCH  45  46
ENDBRANCH  29  45
BRANCH  30  51
HETATM   51  C   UNK N   1      23.926  10.924   2.550  0.00  0.00     0.244 C 
BRANCH  51  52
HETATM   52  O   UNK N   1      24.485  10.623   1.306  0.00  0.00    -0.241 OA
BRANCH  52  53
HETATM   53  O   UNK N   1      23.537   9.977   0.661  0.00  0.00    -0.251 OA
HETATM   54  H   UNK N   1      23.714   9.142   0.198  0.00  0.00     0.253 HD
ENDBRANCH  52  53
ENDBRANCH  51  52
ENDBRANCH  30  51
ENDBRANCH  25  26
ENDBRANCH  21  25
BRANCH   5  55
HETATM   55  C   UNK N   1      28.863  14.244   2.670  0.00  0.00     0.160 C 
HETATM   56  O   UNK N   1      29.106  14.853   1.638  0.00  0.00    -0.649 OA
BRANCH  55  57
HETATM   57  O   UNK N   1      29.848  13.547   3.273  0.00  0.00    -0.775 OA
HETATM   58  H   UNK N   1      29.809  13.027   4.052  0.00  0.00     0.167 HD
ENDBRANCH  55  57
ENDBRANCH   5  55
ENDBRANCH   1   5
TORSDOF 19
ENDMDL
MODEL 8
REMARK VINA RESULT:      -6.1     11.600     15.919
REMARK  19 active torsions:
REMARK  status: ('A' for Active; 'I' for Inactive)
REMARK    1  A    between atoms: C_2  and  C_4 
REMARK    2  A    between atoms: C_4  and  C_5 
REMARK    3  A    between atoms: C_5  and  O_7 
REMARK    4  A    between atoms: C_8  and  O_7 
REMARK    5  A    between atoms: C_9  and  O_10 
REMARK    6  A    between atoms: C_11  and  O_10 
REMARK    7  A    between atoms: C_24  and  C_26 
REMARK    8  A    between atoms: C_24  and  C_29 
REMARK    9  A    between atoms: C_26  and  O_27 
REMARK   10  A    between atoms: C_32  and  O_33 
REMARK   11  A    between atoms: C_37  and  C_38 
REMARK   12  A    between atoms: C_38  and  O_39 
REMARK   13  A    between atoms: O_39  and  O_40 
REMARK   14  A    between atoms: C_41  and  O_42 
REMARK   15  A    between atoms: O_42  and  S_43 
REMARK   16  A    between atoms: S_43  and  O_44 
REMARK   17  A    between atoms: C_47  and  O_48 
REMARK   18  A    between atoms: O_48  and  S_49 
REMARK   19  A    between atoms: S_49  and  O_50 
ROOT
HETATM    1  C   UNK N   1      20.315  13.173   5.955  0.00  0.00     0.160 C 
HETATM    2  O   UNK N   1      20.646  12.123   6.732  0.00  0.00    -0.775 OA
HETATM    3  O   UNK N   1      19.943  14.211   6.480  0.00  0.00    -0.649 OA
HETATM    4  H   UNK N   1      20.791  11.345   7.234  0.00  0.00     0.167 HD
ENDROOT
BRANCH   1   5
HETATM    5  C   UNK N   1      20.392  13.079   4.440  0.00  0.00     0.137 C 
HETATM    6  C   UNK N   1      20.891  11.660   4.013  0.00  0.00     0.024 C 
HETATM    7  C   UNK N   1      20.134  11.008   2.844  0.00  0.00     0.008 C 
HETATM    8  C   UNK N   1      22.441  11.452   3.908  0.00  0.00    -0.032 C 
HETATM    9  C   UNK N   1      20.624  11.568   1.520  0.00  0.00     0.013 C 
HETATM   10  C   UNK N   1      22.050  11.103   1.291  0.00  0.00    -0.005 C 
HETATM   11  C   UNK N   1      22.627  11.697   0.014  0.00  0.00     0.021 C 
HETATM   12  C   UNK N   1      22.966  11.624   2.445  0.00  0.00     0.005 C 
HETATM   13  C   UNK N   1      22.104   9.597   0.954  0.00  0.00     0.155 C 
HETATM   14  C   UNK N   1      23.868  10.834  -0.208  0.00  0.00     0.017 C 
HETATM   15  C   UNK N   1      24.925  11.261   0.819  0.00  0.00     0.009 C 
HETATM   16  C   UNK N   1      23.347   9.486   0.149  0.00  0.00    -0.056 C 
HETATM   17  C   UNK N   1      24.434  11.165   2.277  0.00  0.00     0.007 C 
HETATM   18  C   UNK N   1      23.535   8.442  -0.656  0.00  0.00     0.017 C 
HETATM   19  C   UNK N   1      23.186  12.454   4.812  0.00  0.00     0.042 C 
HETATM   20  C   UNK N   1      22.746  10.059   4.438  0.00  0.00     0.016 C 
HETATM   21  C   UNK N   1      22.764  13.928   4.612  0.00  0.00     0.127 C 
HETATM   22  C   UNK N   1      21.402  14.112   3.929  0.00  0.00     0.064 C 
BRANCH  13  23
HETATM   23  O   UNK N   1      22.117   8.766   2.072  0.00  0.00    -0.390 OA
HETATM   24  H   UNK N   1      21.879   8.286   2.881  0.00  0.00     0.210 HD
ENDBRANCH  13  23
BRANCH  21  25
HETATM   25  O   UNK N   1      23.733  14.691   3.958  0.00  0.00    -0.353 OA
BRANCH  25  26
HETATM   26  C   UNK N   1      24.318  15.596   4.880  0.00  0.00     0.293 C 
HETATM   27  C   UNK N   1      23.818  17.047   4.889  0.00  0.00     0.220 C 
HETATM   28  C   UNK N   1      24.860  18.022   4.301  0.00  0.00     0.211 C 
HETATM   29  C   UNK N   1      26.316  17.663   4.656  0.00  0.00     0.208 C 
HETATM   30  C   UNK N   1      26.493  16.153   4.398  0.00  0.00     0.184 C 
HETATM   31  O   UNK N   1      25.670  15.382   5.249  0.00  0.00    -0.348 OA
BRANCH  27  32
HETATM   32  O   UNK N   1      22.612  17.114   4.223  0.00  0.00    -0.308 OA
BRANCH  32  33
HETATM   33  C   UNK N   1      21.504  17.644   4.792  0.00  0.00     0.259 C 
HETATM   34  O   UNK N   1      21.449  17.840   5.995  0.00  0.00    -0.265 OA
BRANCH  33  35
HETATM   35  C   UNK N   1      20.287  17.902   3.964  0.00  0.00     0.115 C 
BRANCH  35  36
HETATM   36  C   UNK N   1      20.634  18.212   2.508  0.00  0.00    -0.013 C 
HETATM   37  C   UNK N   1      19.899  17.317   1.522  0.00  0.00     0.010 C 
HETATM   38  C   UNK N   1      20.247  19.648   2.224  0.00  0.00     0.010 C 
ENDBRANCH  35  36
ENDBRANCH  33  35
ENDBRANCH  32  33
ENDBRANCH  27  32
BRANCH  28  39
HETATM   39  O   UNK N   1      24.567  19.398   4.480  0.00  0.00    -0.253 OA
BRANCH  39  40
HETATM   40  S   UNK N   1      24.230  20.167   2.955  0.00  0.00     0.240 S 
HETATM   41  O   UNK N   1      23.239  21.338   2.976  0.00  0.00    -0.579 OA
HETATM   42  O   UNK N   1      25.492  20.623   2.209  0.00  0.00    -0.579 OA
BRANCH  40  43
HETATM   43  O   UNK N   1      24.928  21.315   4.022  0.00  0.00    -0.274 OA
HETATM   44  H   UNK N   1      24.959  22.187   4.444  0.00  0.00     0.234 HD
ENDBRANCH  40  43
ENDBRANCH  39  40
ENDBRANCH  28  39
BRANCH  29  45
HETATM   45  O   UNK N   1      26.622  18.018   5.984  0.00  0.00    -0.253 OA
BRANCH  45  46
HETATM   46  S   UNK N   1      27.856  19.237   5.935  0.00  0.00     0.240 S 
HETATM   47  O   UNK N   1      27.633  20.375   4.925  0.00  0.00    -0.579 OA
HETATM   48  O   UNK N   1      28.173  19.852   7.306  0.00  0.00    -0.579 OA
BRANCH  46  49
HETATM   49  O   UNK N   1      26.403  20.013   6.413  0.00  0.00    -0.274 OA
HETATM   50  H   UNK N   1      25.642  20.311   5.892  0.00  0.00     0.234 HD
ENDBRANCH  46  49
ENDBRANCH  45  46
ENDBRANCH  29  45
BRANCH  30  51
HETATM   51  C   UNK N   1      27.940  15.695   4.507  0.00  0.00     0.244 C 
BRANCH  51  52
HETATM   52  O   UNK N   1      28.285  14.934   3.388  0.00  0.00    -0.241 OA
BRANCH  52  53
HETATM   53  O   UNK N   1      27.316  14.052   3.270  0.00  0.00    -0.251 OA
HETATM   54  H   UNK N   1      26.679  14.089   2.538  0.00  0.00     0.253 HD
ENDBRANCH  52  53
ENDBRANCH  51  52
ENDBRANCH  30  51
ENDBRANCH  25  26
ENDBRANCH  21  25
BRANCH   5  55
HETATM   55  C   UNK N   1      18.993  13.364   3.916  0.00  0.00     0.160 C 
HETATM   56  O   UNK N   1      18.826  14.047   2.916  0.00  0.00    -0.649 OA
BRANCH  55  57
HETATM   57  O   UNK N   1      17.920  12.866   4.562  0.00  0.00    -0.775 OA
HETATM   58  H   UNK N   1      17.031  12.811   4.271  0.00  0.00     0.167 HD
ENDBRANCH  55  57
ENDBRANCH   5  55
ENDBRANCH   1   5
TORSDOF 19
ENDMDL
MODEL 9
REMARK VINA RESULT:      -6.1     10.201     15.394
REMARK  19 active torsions:
REMARK  status: ('A' for Active; 'I' for Inactive)
REMARK    1  A    between atoms: C_2  and  C_4 
REMARK    2  A    between atoms: C_4  and  C_5 
REMARK    3  A    between atoms: C_5  and  O_7 
REMARK    4  A    between atoms: C_8  and  O_7 
REMARK    5  A    between atoms: C_9  and  O_10 
REMARK    6  A    between atoms: C_11  and  O_10 
REMARK    7  A    between atoms: C_24  and  C_26 
REMARK    8  A    between atoms: C_24  and  C_29 
REMARK    9  A    between atoms: C_26  and  O_27 
REMARK   10  A    between atoms: C_32  and  O_33 
REMARK   11  A    between atoms: C_37  and  C_38 
REMARK   12  A    between atoms: C_38  and  O_39 
REMARK   13  A    between atoms: O_39  and  O_40 
REMARK   14  A    between atoms: C_41  and  O_42 
REMARK   15  A    between atoms: O_42  and  S_43 
REMARK   16  A    between atoms: S_43  and  O_44 
REMARK   17  A    between atoms: C_47  and  O_48 
REMARK   18  A    between atoms: O_48  and  S_49 
REMARK   19  A    between atoms: S_49  and  O_50 
ROOT
HETATM    1  C   UNK N   1      22.551  18.370   5.595  0.00  0.00     0.160 C 
HETATM    2  O   UNK N   1      23.804  18.822   5.796  0.00  0.00    -0.775 OA
HETATM    3  O   UNK N   1      21.780  18.309   6.541  0.00  0.00    -0.649 OA
HETATM    4  H   UNK N   1      24.708  19.039   5.914  0.00  0.00     0.167 HD
ENDROOT
BRANCH   1   5
HETATM    5  C   UNK N   1      22.089  17.931   4.215  0.00  0.00     0.137 C 
HETATM    6  C   UNK N   1      21.055  16.766   4.339  0.00  0.00     0.024 C 
HETATM    7  C   UNK N   1      19.816  16.871   3.434  0.00  0.00     0.008 C 
HETATM    8  C   UNK N   1      21.629  15.308   4.393  0.00  0.00    -0.032 C 
HETATM    9  C   UNK N   1      20.150  16.412   2.025  0.00  0.00     0.013 C 
HETATM   10  C   UNK N   1      20.417  14.919   2.048  0.00  0.00    -0.005 C 
HETATM   11  C   UNK N   1      20.836  14.411   0.675  0.00  0.00     0.021 C 
HETATM   12  C   UNK N   1      21.624  14.613   2.992  0.00  0.00     0.005 C 
HETATM   13  C   UNK N   1      19.115  14.118   2.263  0.00  0.00     0.155 C 
HETATM   14  C   UNK N   1      20.686  12.899   0.834  0.00  0.00     0.017 C 
HETATM   15  C   UNK N   1      21.850  12.401   1.700  0.00  0.00     0.009 C 
HETATM   16  C   UNK N   1      19.419  12.817   1.613  0.00  0.00    -0.056 C 
HETATM   17  C   UNK N   1      21.933  13.100   3.072  0.00  0.00     0.007 C 
HETATM   18  C   UNK N   1      18.432  12.007   1.235  0.00  0.00     0.017 C 
HETATM   19  C   UNK N   1      23.076  15.314   4.927  0.00  0.00     0.042 C 
HETATM   20  C   UNK N   1      20.787  14.529   5.392  0.00  0.00     0.016 C 
HETATM   21  C   UNK N   1      24.017  16.302   4.202  0.00  0.00     0.127 C 
HETATM   22  C   UNK N   1      23.298  17.414   3.428  0.00  0.00     0.064 C 
BRANCH  13  23
HETATM   23  O   UNK N   1      18.752  13.973   3.600  0.00  0.00    -0.390 OA
HETATM   24  H   UNK N   1      18.369  13.658   4.434  0.00  0.00     0.210 HD
ENDBRANCH  13  23
BRANCH  21  25
HETATM   25  O   UNK N   1      24.945  15.667   3.374  0.00  0.00    -0.353 OA
BRANCH  25  26
HETATM   26  C   UNK N   1      25.771  14.821   4.157  0.00  0.00     0.293 C 
HETATM   27  C   UNK N   1      27.086  15.394   4.702  0.00  0.00     0.220 C 
HETATM   28  C   UNK N   1      28.318  14.806   3.980  0.00  0.00     0.211 C 
HETATM   29  C   UNK N   1      28.170  13.316   3.616  0.00  0.00     0.208 C 
HETATM   30  C   UNK N   1      26.782  13.136   2.969  0.00  0.00     0.184 C 
HETATM   31  O   UNK N   1      25.744  13.431   3.880  0.00  0.00    -0.348 OA
BRANCH  27  32
HETATM   32  O   UNK N   1      27.048  16.770   4.622  0.00  0.00    -0.308 OA
BRANCH  32  33
HETATM   33  C   UNK N   1      27.136  17.558   5.719  0.00  0.00     0.259 C 
HETATM   34  O   UNK N   1      26.816  18.735   5.673  0.00  0.00    -0.265 OA
BRANCH  33  35
HETATM   35  C   UNK N   1      27.727  17.022   6.982  0.00  0.00     0.115 C 
BRANCH  35  36
HETATM   36  C   UNK N   1      28.781  17.960   7.570  0.00  0.00    -0.013 C 
HETATM   37  C   UNK N   1      28.513  18.307   9.028  0.00  0.00     0.010 C 
HETATM   38  C   UNK N   1      30.128  17.273   7.487  0.00  0.00     0.010 C 
ENDBRANCH  35  36
ENDBRANCH  33  35
ENDBRANCH  32  33
ENDBRANCH  27  32
BRANCH  28  39
HETATM   39  O   UNK N   1      29.568  15.113   4.575  0.00  0.00    -0.253 OA
BRANCH  39  40
HETATM   40  S   UNK N   1      30.732  15.583   3.368  0.00  0.00     0.240 S 
HETATM   41  O   UNK N   1      31.603  16.804   3.689  0.00  0.00    -0.579 OA
HETATM   42  O   UNK N   1      31.657  14.438   2.933  0.00  0.00    -0.579 OA
BRANCH  40  43
HETATM   43  O   UNK N   1      31.557  15.168   4.814  0.00  0.00    -0.274 OA
HETATM   44  H   UNK N   1      32.017  14.538   5.390  0.00  0.00     0.234 HD
ENDBRANCH  40  43
ENDBRANCH  39  40
ENDBRANCH  28  39
BRANCH  29  45
HETATM   45  O   UNK N   1      28.344  12.492   4.745  0.00  0.00    -0.253 OA
BRANCH  45  46
HETATM   46  S   UNK N   1      29.366  11.168   4.282  0.00  0.00     0.240 S 
HETATM   47  O   UNK N   1      30.429  11.483   3.217  0.00  0.00    -0.579 OA
HETATM   48  O   UNK N   1      30.049  10.470   5.468  0.00  0.00    -0.579 OA
BRANCH  46  49
HETATM   49  O   UNK N   1      30.381  12.367   4.971  0.00  0.00    -0.274 OA
HETATM   50  H   UNK N   1      30.277  12.903   5.772  0.00  0.00     0.234 HD
ENDBRANCH  46  49
ENDBRANCH  45  46
ENDBRANCH  29  45
BRANCH  30  51
HETATM   51  C   UNK N   1      26.580  11.752   2.369  0.00  0.00     0.244 C 
BRANCH  51  52
HETATM   52  O   UNK N   1      25.326  11.677   1.757  0.00  0.00    -0.241 OA
BRANCH  52  53
HETATM   53  O   UNK N   1      25.174  12.841   1.162  0.00  0.00    -0.251 OA
HETATM   54  H   UNK N   1      25.711  13.095   0.394  0.00  0.00     0.253 HD
ENDBRANCH  52  53
ENDBRANCH  51  52
ENDBRANCH  30  51
ENDBRANCH  25  26
ENDBRANCH  21  25
BRANCH   5  55
HETATM   55  C   UNK N   1      21.478  19.156   3.552  0.00  0.00     0.160 C 
HETATM   56  O   UNK N   1      21.714  19.419   2.382  0.00  0.00    -0.649 OA
BRANCH  55  57
HETATM   57  O   UNK N   1      20.671  19.971   4.261  0.00  0.00    -0.775 OA
HETATM   58  H   UNK N   1      20.368  19.877   5.143  0.00  0.00     0.167 HD
ENDBRANCH  55  57
ENDBRANCH   5  55
ENDBRANCH   1   5
TORSDOF 19
ENDMDL
