MODEL 1
REMARK VINA RESULT:      -3.6      0.000      0.000
REMARK  2 active torsions:
REMARK  status: ('A' for Active; 'I' for Inactive)
REMARK    1  A    between atoms: N_1  and  C_2 
REMARK    2  A    between atoms: C_2  and  C_4 
REMARK       I    between atoms: C_4  and  N_5 
ROOT
HETATM    1  C   UNK N   1      23.924  12.122  10.919  0.00  0.00     0.084 C 
HETATM    2  C   UNK N   1      23.437  11.712   9.748  0.00  0.00     0.048 C 
ENDROOT
BRANCH   1   3
HETATM    3  N   UNK N   1      25.199  12.730  10.962  0.00  0.00    -0.395 N 
HETATM    4  H   UNK N   1      25.558  13.178  10.162  0.00  0.00     0.156 HD
HETATM    5  H   UNK N   1      25.728  12.707  11.792  0.00  0.00     0.156 HD
ENDBRANCH   1   3
BRANCH   1   6
HETATM    6  C   UNK N   1      23.149  11.948  12.167  0.00  0.00     0.264 C 
HETATM    7  N   UNK N   1      21.827  11.679  12.126  0.00  0.00    -0.365 N 
HETATM    8  H   UNK N   1      21.322  11.565  12.962  0.00  0.00     0.159 HD
HETATM    9  H   UNK N   1      21.369  11.596  11.259  0.00  0.00     0.159 HD
HETATM   10  O   UNK N   1      23.708  12.049  13.248  0.00  0.00    -0.266 OA
ENDBRANCH   1   6
TORSDOF 2
ENDMDL
MODEL 2
REMARK VINA RESULT:      -3.4     12.707     12.914
REMARK  2 active torsions:
REMARK  status: ('A' for Active; 'I' for Inactive)
REMARK    1  A    between atoms: N_1  and  C_2 
REMARK    2  A    between atoms: C_2  and  C_4 
REMARK       I    between atoms: C_4  and  N_5 
ROOT
HETATM    1  C   UNK N   1      34.809  16.985   9.237  0.00  0.00     0.084 C 
HETATM    2  C   UNK N   1      34.845  15.752   8.731  0.00  0.00     0.048 C 
ENDROOT
BRANCH   1   3
HETATM    3  N   UNK N   1      35.002  17.166  10.625  0.00  0.00    -0.395 N 
HETATM    4  H   UNK N   1      34.495  17.859  11.106  0.00  0.00     0.156 HD
HETATM    5  H   UNK N   1      35.644  16.599  11.111  0.00  0.00     0.156 HD
ENDBRANCH   1   3
BRANCH   1   6
HETATM    6  C   UNK N   1      34.571  18.157   8.367  0.00  0.00     0.264 C 
HETATM    7  N   UNK N   1      33.593  18.138   7.437  0.00  0.00    -0.365 N 
HETATM    8  H   UNK N   1      33.444  18.923   6.863  0.00  0.00     0.159 HD
HETATM    9  H   UNK N   1      33.030  17.338   7.332  0.00  0.00     0.159 HD
HETATM   10  O   UNK N   1      35.265  19.154   8.488  0.00  0.00    -0.266 OA
ENDBRANCH   1   6
TORSDOF 2
ENDMDL
MODEL 3
REMARK VINA RESULT:      -3.4     12.319     12.818
REMARK  2 active torsions:
REMARK  status: ('A' for Active; 'I' for Inactive)
REMARK    1  A    between atoms: N_1  and  C_2 
REMARK    2  A    between atoms: C_2  and  C_4 
REMARK       I    between atoms: C_4  and  N_5 
ROOT
HETATM    1  C   UNK N   1      20.145  19.400   2.688  0.00  0.00     0.084 C 
HETATM    2  C   UNK N   1      20.803  18.779   3.667  0.00  0.00     0.048 C 
ENDROOT
BRANCH   1   3
HETATM    3  N   UNK N   1      18.859  18.943   2.322  0.00  0.00    -0.395 N 
HETATM    4  H   UNK N   1      18.271  18.535   2.998  0.00  0.00     0.156 HD
HETATM    5  H   UNK N   1      18.551  19.033   1.391  0.00  0.00     0.156 HD
ENDBRANCH   1   3
BRANCH   1   6
HETATM    6  C   UNK N   1      20.744  20.555   1.984  0.00  0.00     0.264 C 
HETATM    7  N   UNK N   1      20.357  20.877   0.732  0.00  0.00    -0.365 N 
HETATM    8  H   UNK N   1      20.762  21.647   0.274  0.00  0.00     0.159 HD
HETATM    9  H   UNK N   1      19.669  20.340   0.278  0.00  0.00     0.159 HD
HETATM   10  O   UNK N   1      21.599  21.228   2.540  0.00  0.00    -0.266 OA
ENDBRANCH   1   6
TORSDOF 2
ENDMDL
MODEL 4
REMARK VINA RESULT:      -3.4     24.036     24.304
REMARK  2 active torsions:
REMARK  status: ('A' for Active; 'I' for Inactive)
REMARK    1  A    between atoms: N_1  and  C_2 
REMARK    2  A    between atoms: C_2  and  C_4 
REMARK       I    between atoms: C_4  and  N_5 
ROOT
HETATM    1  C   UNK N   1      44.513  21.790   3.676  0.00  0.00     0.084 C 
HETATM    2  C   UNK N   1      44.315  20.517   3.335  0.00  0.00     0.048 C 
ENDROOT
BRANCH   1   3
HETATM    3  N   UNK N   1      45.767  22.177   4.200  0.00  0.00    -0.395 N 
HETATM    4  H   UNK N   1      46.095  21.778   5.038  0.00  0.00     0.156 HD
HETATM    5  H   UNK N   1      46.313  22.846   3.727  0.00  0.00     0.156 HD
ENDBRANCH   1   3
BRANCH   1   6
HETATM    6  C   UNK N   1      43.440  22.795   3.514  0.00  0.00     0.264 C 
HETATM    7  N   UNK N   1      43.547  24.015   4.081  0.00  0.00    -0.365 N 
HETATM    8  H   UNK N   1      42.827  24.676   3.966  0.00  0.00     0.159 HD
HETATM    9  H   UNK N   1      44.345  24.243   4.610  0.00  0.00     0.159 HD
HETATM   10  O   UNK N   1      42.446  22.522   2.859  0.00  0.00    -0.266 OA
ENDBRANCH   1   6
TORSDOF 2
ENDMDL
MODEL 5
REMARK VINA RESULT:      -3.4      0.791      2.274
REMARK  2 active torsions:
REMARK  status: ('A' for Active; 'I' for Inactive)
REMARK    1  A    between atoms: N_1  and  C_2 
REMARK    2  A    between atoms: C_2  and  C_4 
REMARK       I    between atoms: C_4  and  N_5 
ROOT
HETATM    1  C   UNK N   1      22.531  11.958  11.062  0.00  0.00     0.084 C 
HETATM    2  C   UNK N   1      22.564  11.950   9.729  0.00  0.00     0.048 C 
ENDROOT
BRANCH   1   3
HETATM    3  N   UNK N   1      21.288  11.833  11.722  0.00  0.00    -0.395 N 
HETATM    4  H   UNK N   1      21.203  12.101  12.665  0.00  0.00     0.156 HD
HETATM    5  H   UNK N   1      20.508  11.477  11.238  0.00  0.00     0.156 HD
ENDBRANCH   1   3
BRANCH   1   6
HETATM    6  C   UNK N   1      23.775  12.094  11.851  0.00  0.00     0.264 C 
HETATM    7  N   UNK N   1      24.957  12.323  11.242  0.00  0.00    -0.365 N 
HETATM    8  H   UNK N   1      25.778  12.412  11.777  0.00  0.00     0.159 HD
HETATM    9  H   UNK N   1      24.998  12.400  10.261  0.00  0.00     0.159 HD
HETATM   10  O   UNK N   1      23.735  12.000  13.068  0.00  0.00    -0.266 OA
ENDBRANCH   1   6
TORSDOF 2
ENDMDL
MODEL 6
REMARK VINA RESULT:      -3.4      1.630      3.064
REMARK  2 active torsions:
REMARK  status: ('A' for Active; 'I' for Inactive)
REMARK    1  A    between atoms: N_1  and  C_2 
REMARK    2  A    between atoms: C_2  and  C_4 
REMARK       I    between atoms: C_4  and  N_5 
ROOT
HETATM    1  C   UNK N   1      22.983  11.962  11.742  0.00  0.00     0.084 C 
HETATM    2  C   UNK N   1      23.295  11.907  13.037  0.00  0.00     0.048 C 
ENDROOT
BRANCH   1   3
HETATM    3  N   UNK N   1      21.629  11.852  11.354  0.00  0.00    -0.395 N 
HETATM    4  H   UNK N   1      20.915  12.125  11.974  0.00  0.00     0.156 HD
HETATM    5  H   UNK N   1      21.399  11.501  10.463  0.00  0.00     0.156 HD
ENDBRANCH   1   3
BRANCH   1   6
HETATM    6  C   UNK N   1      24.032  12.136  10.714  0.00  0.00     0.264 C 
HETATM    7  N   UNK N   1      25.184  12.776  11.006  0.00  0.00    -0.365 N 
HETATM    8  H   UNK N   1      25.875  12.886  10.314  0.00  0.00     0.159 HD
HETATM    9  H   UNK N   1      25.332  13.132  11.911  0.00  0.00     0.159 HD
HETATM   10  O   UNK N   1      23.857  11.697   9.588  0.00  0.00    -0.266 OA
ENDBRANCH   1   6
TORSDOF 2
ENDMDL
MODEL 7
REMARK VINA RESULT:      -3.3      1.808      2.257
REMARK  2 active torsions:
REMARK  status: ('A' for Active; 'I' for Inactive)
REMARK    1  A    between atoms: N_1  and  C_2 
REMARK    2  A    between atoms: C_2  and  C_4 
REMARK       I    between atoms: C_4  and  N_5 
ROOT
HETATM    1  C   UNK N   1      23.468  12.041  11.867  0.00  0.00     0.084 C 
HETATM    2  C   UNK N   1      23.336  11.914  13.187  0.00  0.00     0.048 C 
ENDROOT
BRANCH   1   3
HETATM    3  N   UNK N   1      24.754  12.249  11.320  0.00  0.00    -0.395 N 
HETATM    4  H   UNK N   1      25.552  12.167  11.891  0.00  0.00     0.156 HD
HETATM    5  H   UNK N   1      24.853  12.477  10.366  0.00  0.00     0.156 HD
ENDBRANCH   1   3
BRANCH   1   6
HETATM    6  C   UNK N   1      22.291  11.967  10.975  0.00  0.00     0.264 C 
HETATM    7  N   UNK N   1      21.041  11.963  11.482  0.00  0.00    -0.365 N 
HETATM    8  H   UNK N   1      20.264  11.914  10.879  0.00  0.00     0.159 HD
HETATM    9  H   UNK N   1      20.905  12.010  12.456  0.00  0.00     0.159 HD
HETATM   10  O   UNK N   1      22.449  11.908   9.765  0.00  0.00    -0.266 OA
ENDBRANCH   1   6
TORSDOF 2
ENDMDL
MODEL 8
REMARK VINA RESULT:      -3.3     12.196     12.714
REMARK  2 active torsions:
REMARK  status: ('A' for Active; 'I' for Inactive)
REMARK    1  A    between atoms: N_1  and  C_2 
REMARK    2  A    between atoms: C_2  and  C_4 
REMARK       I    between atoms: C_4  and  N_5 
ROOT
HETATM    1  C   UNK N   1      33.492  17.860   7.671  0.00  0.00     0.084 C 
HETATM    2  C   UNK N   1      33.717  17.556   6.392  0.00  0.00     0.048 C 
ENDROOT
BRANCH   1   3
HETATM    3  N   UNK N   1      32.164  17.877   8.152  0.00  0.00    -0.395 N 
HETATM    4  H   UNK N   1      31.885  18.561   8.802  0.00  0.00     0.156 HD
HETATM    5  H   UNK N   1      31.517  17.204   7.837  0.00  0.00     0.156 HD
ENDBRANCH   1   3
BRANCH   1   6
HETATM    6  C   UNK N   1      34.611  18.176   8.585  0.00  0.00     0.264 C 
HETATM    7  N   UNK N   1      34.912  17.359   9.615  0.00  0.00    -0.365 N 
HETATM    8  H   UNK N   1      35.659  17.580  10.217  0.00  0.00     0.159 HD
HETATM    9  H   UNK N   1      34.385  16.542   9.765  0.00  0.00     0.159 HD
HETATM   10  O   UNK N   1      35.272  19.188   8.407  0.00  0.00    -0.266 OA
ENDBRANCH   1   6
TORSDOF 2
ENDMDL
MODEL 9
REMARK VINA RESULT:      -3.1      8.003      8.417
REMARK  2 active torsions:
REMARK  status: ('A' for Active; 'I' for Inactive)
REMARK    1  A    between atoms: N_1  and  C_2 
REMARK    2  A    between atoms: C_2  and  C_4 
REMARK       I    between atoms: C_4  and  N_5 
ROOT
HETATM    1  C   UNK N   1      29.591  17.661   8.549  0.00  0.00     0.084 C 
HETATM    2  C   UNK N   1      29.856  17.095   7.371  0.00  0.00     0.048 C 
ENDROOT
BRANCH   1   3
HETATM    3  N   UNK N   1      30.661  18.092   9.364  0.00  0.00    -0.395 N 
HETATM    4  H   UNK N   1      30.854  17.628  10.210  0.00  0.00     0.156 HD
HETATM    5  H   UNK N   1      31.214  18.858   9.085  0.00  0.00     0.156 HD
ENDBRANCH   1   3
BRANCH   1   6
HETATM    6  C   UNK N   1      28.196  17.840   9.008  0.00  0.00     0.264 C 
HETATM    7  N   UNK N   1      27.507  18.959   8.701  0.00  0.00    -0.365 N 
HETATM    8  H   UNK N   1      26.580  19.067   9.012  0.00  0.00     0.159 HD
HETATM    9  H   UNK N   1      27.933  19.667   8.167  0.00  0.00     0.159 HD
HETATM   10  O   UNK N   1      27.659  16.967   9.673  0.00  0.00    -0.266 OA
ENDBRANCH   1   6
TORSDOF 2
ENDMDL
