MODEL 1
REMARK VINA RESULT:      -3.3      0.000      0.000
REMARK  2 active torsions:
REMARK  status: ('A' for Active; 'I' for Inactive)
REMARK    1  A    between atoms: O_1  and  C_2 
REMARK    2  A    between atoms: C_2  and  C_4 
ROOT
HETATM    1  C   UNK N   1      34.603  18.225   8.080  0.00  0.00     0.149 C 
HETATM    2  O   UNK N   1      34.445  18.121   6.872  0.00  0.00    -0.649 OA
ENDROOT
BRANCH   1   3
HETATM    3  O   UNK N   1      35.315  19.254   8.573  0.00  0.00    -0.776 OA
HETATM    4  H   UNK N   1      36.212  19.365   8.323  0.00  0.00     0.167 HD
ENDBRANCH   1   3
BRANCH   1   5
HETATM    5  C   UNK N   1      34.012  17.222   9.026  0.00  0.00     0.194 C 
HETATM    6 Br   UNK N   1      35.254  16.571  10.371  0.00  0.00    -0.085 Br
ENDBRANCH   1   5
TORSDOF 2
ENDMDL
MODEL 2
REMARK VINA RESULT:      -3.2      1.900      2.361
REMARK  2 active torsions:
REMARK  status: ('A' for Active; 'I' for Inactive)
REMARK    1  A    between atoms: O_1  and  C_2 
REMARK    2  A    between atoms: C_2  and  C_4 
ROOT
HETATM    1  C   UNK N   1      34.488  18.256   7.972  0.00  0.00     0.149 C 
HETATM    2  O   UNK N   1      35.205  19.110   8.473  0.00  0.00    -0.649 OA
ENDROOT
BRANCH   1   3
HETATM    3  O   UNK N   1      34.510  18.063   6.641  0.00  0.00    -0.776 OA
HETATM    4  H   UNK N   1      34.790  18.754   6.073  0.00  0.00     0.167 HD
ENDBRANCH   1   3
BRANCH   1   5
HETATM    5  C   UNK N   1      33.580  17.414   8.820  0.00  0.00     0.194 C 
HETATM    6 Br   UNK N   1      31.695  17.592   8.384  0.00  0.00    -0.085 Br
ENDBRANCH   1   5
TORSDOF 2
ENDMDL
MODEL 3
REMARK VINA RESULT:      -3.1     15.915     16.147
REMARK  2 active torsions:
REMARK  status: ('A' for Active; 'I' for Inactive)
REMARK    1  A    between atoms: O_1  and  C_2 
REMARK    2  A    between atoms: C_2  and  C_4 
ROOT
HETATM    1  C   UNK N   1      20.799  21.206   0.981  0.00  0.00     0.149 C 
HETATM    2  O   UNK N   1      21.077  20.480   0.038  0.00  0.00    -0.649 OA
ENDROOT
BRANCH   1   3
HETATM    3  O   UNK N   1      20.453  22.486   0.757  0.00  0.00    -0.776 OA
HETATM    4  H   UNK N   1      20.981  23.023   0.198  0.00  0.00     0.167 HD
ENDBRANCH   1   3
BRANCH   1   5
HETATM    5  C   UNK N   1      20.837  20.693   2.390  0.00  0.00     0.194 C 
HETATM    6 Br   UNK N   1      19.919  18.999   2.644  0.00  0.00    -0.085 Br
ENDBRANCH   1   5
TORSDOF 2
ENDMDL
MODEL 4
REMARK VINA RESULT:      -3.1     13.029     13.396
REMARK  2 active torsions:
REMARK  status: ('A' for Active; 'I' for Inactive)
REMARK    1  A    between atoms: O_1  and  C_2 
REMARK    2  A    between atoms: C_2  and  C_4 
ROOT
HETATM    1  C   UNK N   1      23.657  11.966  11.838  0.00  0.00     0.149 C 
HETATM    2  O   UNK N   1      23.145  11.897  12.946  0.00  0.00    -0.649 OA
ENDROOT
BRANCH   1   3
HETATM    3  O   UNK N   1      24.954  12.305  11.724  0.00  0.00    -0.776 OA
HETATM    4  H   UNK N   1      25.525  12.228  12.464  0.00  0.00     0.167 HD
ENDBRANCH   1   3
BRANCH   1   5
HETATM    5  C   UNK N   1      22.863  11.680  10.599  0.00  0.00     0.194 C 
HETATM    6 Br   UNK N   1      21.633  13.098  10.098  0.00  0.00    -0.085 Br
ENDBRANCH   1   5
TORSDOF 2
ENDMDL
MODEL 5
REMARK VINA RESULT:      -3.0     15.211     15.433
REMARK  2 active torsions:
REMARK  status: ('A' for Active; 'I' for Inactive)
REMARK    1  A    between atoms: O_1  and  C_2 
REMARK    2  A    between atoms: C_2  and  C_4 
ROOT
HETATM    1  C   UNK N   1      20.972  20.725   2.818  0.00  0.00     0.149 C 
HETATM    2  O   UNK N   1      20.314  20.621   3.843  0.00  0.00    -0.649 OA
ENDROOT
BRANCH   1   3
HETATM    3  O   UNK N   1      21.913  21.681   2.725  0.00  0.00    -0.776 OA
HETATM    4  H   UNK N   1      21.698  22.516   2.358  0.00  0.00     0.167 HD
ENDBRANCH   1   3
BRANCH   1   5
HETATM    5  C   UNK N   1      20.747  19.803   1.657  0.00  0.00     0.194 C 
HETATM    6 Br   UNK N   1      20.096  18.041   2.156  0.00  0.00    -0.085 Br
ENDBRANCH   1   5
TORSDOF 2
ENDMDL
MODEL 6
REMARK VINA RESULT:      -2.9      3.055      3.436
REMARK  2 active torsions:
REMARK  status: ('A' for Active; 'I' for Inactive)
REMARK    1  A    between atoms: O_1  and  C_2 
REMARK    2  A    between atoms: C_2  and  C_4 
ROOT
HETATM    1  C   UNK N   1      35.771  16.348  10.747  0.00  0.00     0.149 C 
HETATM    2  O   UNK N   1      35.479  17.463  10.343  0.00  0.00    -0.649 OA
ENDROOT
BRANCH   1   3
HETATM    3  O   UNK N   1      37.065  16.011  10.894  0.00  0.00    -0.776 OA
HETATM    4  H   UNK N   1      37.682  16.215  10.218  0.00  0.00     0.167 HD
ENDBRANCH   1   3
BRANCH   1   5
HETATM    5  C   UNK N   1      34.710  15.343  11.083  0.00  0.00     0.194 C 
HETATM    6 Br   UNK N   1      33.460  14.993   9.637  0.00  0.00    -0.085 Br
ENDBRANCH   1   5
TORSDOF 2
ENDMDL
MODEL 7
REMARK VINA RESULT:      -2.8     12.922     13.243
REMARK  2 active torsions:
REMARK  status: ('A' for Active; 'I' for Inactive)
REMARK    1  A    between atoms: O_1  and  C_2 
REMARK    2  A    between atoms: C_2  and  C_4 
ROOT
HETATM    1  C   UNK N   1      30.979  22.493  -2.514  0.00  0.00     0.149 C 
HETATM    2  O   UNK N   1      32.011  21.860  -2.344  0.00  0.00    -0.649 OA
ENDROOT
BRANCH   1   3
HETATM    3  O   UNK N   1      30.358  23.050  -1.458  0.00  0.00    -0.776 OA
HETATM    4  H   UNK N   1      30.279  23.982  -1.399  0.00  0.00     0.167 HD
ENDBRANCH   1   3
BRANCH   1   5
HETATM    5  C   UNK N   1      30.391  22.662  -3.883  0.00  0.00     0.194 C 
HETATM    6 Br   UNK N   1      30.580  21.102  -5.027  0.00  0.00    -0.085 Br
ENDBRANCH   1   5
TORSDOF 2
ENDMDL
MODEL 8
REMARK VINA RESULT:      -2.8      5.630      5.889
REMARK  2 active torsions:
REMARK  status: ('A' for Active; 'I' for Inactive)
REMARK    1  A    between atoms: O_1  and  C_2 
REMARK    2  A    between atoms: C_2  and  C_4 
ROOT
HETATM    1  C   UNK N   1      28.871  18.277   9.310  0.00  0.00     0.149 C 
HETATM    2  O   UNK N   1      29.516  18.770  10.224  0.00  0.00    -0.649 OA
ENDROOT
BRANCH   1   3
HETATM    3  O   UNK N   1      27.531  18.206   9.402  0.00  0.00    -0.776 OA
HETATM    4  H   UNK N   1      27.059  17.577   8.892  0.00  0.00     0.167 HD
ENDBRANCH   1   3
BRANCH   1   5
HETATM    5  C   UNK N   1      29.551  17.747   8.082  0.00  0.00     0.194 C 
HETATM    6 Br   UNK N   1      31.470  17.514   8.274  0.00  0.00    -0.085 Br
ENDBRANCH   1   5
TORSDOF 2
ENDMDL
MODEL 9
REMARK VINA RESULT:      -2.7     11.019     11.402
REMARK  2 active torsions:
REMARK  status: ('A' for Active; 'I' for Inactive)
REMARK    1  A    between atoms: O_1  and  C_2 
REMARK    2  A    between atoms: C_2  and  C_4 
ROOT
HETATM    1  C   UNK N   1      44.557  21.958   4.299  0.00  0.00     0.149 C 
HETATM    2  O   UNK N   1      43.850  22.547   5.105  0.00  0.00    -0.649 OA
ENDROOT
BRANCH   1   3
HETATM    3  O   UNK N   1      45.854  22.295   4.181  0.00  0.00    -0.776 OA
HETATM    4  H   UNK N   1      46.452  21.710   3.758  0.00  0.00     0.167 HD
ENDBRANCH   1   3
BRANCH   1   5
HETATM    5  C   UNK N   1      44.002  20.864   3.438  0.00  0.00     0.194 C 
HETATM    6 Br   UNK N   1      42.209  21.208   2.772  0.00  0.00    -0.085 Br
ENDBRANCH   1   5
TORSDOF 2
ENDMDL
