REMARK  14 active torsions:
REMARK  status: ('A' for Active; 'I' for Inactive)
REMARK    1  A    between atoms: C_3  and  C_1 
REMARK    2  A    between atoms: O_8  and  C_1 
REMARK    3  A    between atoms: C_4  and  C_2 
REMARK    4  A    between atoms: O_15  and  C_2 
REMARK    5  A    between atoms: C_5  and  C_3 
REMARK    6  A    between atoms: C_3  and  N_7 
REMARK    7  A    between atoms: C_6  and  C_4 
REMARK    8  A    between atoms: C_4  and  O_9 
REMARK    9  A    between atoms: C_6  and  C_5 
REMARK   10  A    between atoms: C_5  and  O_10 
REMARK   11  A    between atoms: C_6  and  O_11 
REMARK   12  A    between atoms: P_16  and  O_12 
REMARK   13  A    between atoms: P_16  and  O_13 
REMARK   14  A    between atoms: P_16  and  O_15 
ROOT
HETATM    1  C   UNK N   1       4.210  -0.112  -0.276  0.00  0.00     0.179 C 
ENDROOT
BRANCH   1   2
HETATM    2  C   UNK N   1       5.257  -1.069  -0.894  0.00  0.00     0.173 C 
BRANCH   2   3
HETATM    3  C   UNK N   1       6.687  -0.534  -0.825  0.00  0.00     0.214 C 
BRANCH   3   4
HETATM    4  O   UNK N   1       7.135  -0.337   0.484  0.00  0.00    -0.294 OA
BRANCH   4   5
HETATM    5  P   UNK N   1       8.657   0.482   0.272  0.00  0.00     0.390 P 
HETATM    6  O   UNK N   1       7.951   1.415   1.290  0.00  0.00    -0.632 OA
BRANCH   5   7
HETATM    7  O   UNK N   1       9.836   0.578   1.541  0.00  0.00    -0.307 OA
HETATM    8  H   UNK N   1      10.212   0.034   2.251  0.00  0.00     0.222 HD
ENDBRANCH   5   7
BRANCH   5   9
HETATM    9  O   UNK N   1       8.918  -1.066   1.016  0.00  0.00    -0.307 OA
HETATM   10  H   UNK N   1       8.242  -1.624   1.432  0.00  0.00     0.222 HD
ENDBRANCH   5   9
ENDBRANCH   4   5
ENDBRANCH   3   4
ENDBRANCH   2   3
BRANCH   2  11
HETATM   11  O   UNK N   1       5.200  -2.324  -0.284  0.00  0.00    -0.391 OA
HETATM   12  H   UNK N   1       4.426  -2.726   0.140  0.00  0.00     0.210 HD
ENDBRANCH   2  11
ENDBRANCH   1   2
BRANCH   1  13
HETATM   13  C   UNK N   1       2.766  -0.539  -0.672  0.00  0.00     0.173 C 
BRANCH  13  14
HETATM   14  C   UNK N   1       1.640   0.359  -0.100  0.00  0.00     0.129 C 
BRANCH  14  15
HETATM   15  C   UNK N   1       1.556   0.319   1.424  0.00  0.00     0.191 C 
BRANCH  15  16
HETATM   16  O   UNK N   1       1.112  -0.931   1.863  0.00  0.00    -0.399 OA
HETATM   17  H   UNK N   1       0.206  -1.097   2.168  0.00  0.00     0.209 HD
ENDBRANCH  15  16
ENDBRANCH  14  15
BRANCH  14  18
HETATM   18  N   UNK N   1       1.811   1.738  -0.524  0.00  0.00    -0.422 N 
HETATM   19  H   UNK N   1       2.710   2.118  -0.822  0.00  0.00     0.150 HD
HETATM   20  H   UNK N   1       0.997   2.353  -0.524  0.00  0.00     0.150 HD
ENDBRANCH  14  18
ENDBRANCH  13  14
BRANCH  13  21
HETATM   21  O   UNK N   1       2.529  -1.863  -0.296  0.00  0.00    -0.391 OA
HETATM   22  H   UNK N   1       1.651  -2.181  -0.036  0.00  0.00     0.210 HD
ENDBRANCH  13  21
ENDBRANCH   1  13
BRANCH   1  23
HETATM   23  O   UNK N   1       4.451   1.181  -0.747  0.00  0.00    -0.390 OA
HETATM   24  H   UNK N   1       5.312   1.485  -1.075  0.00  0.00     0.210 HD
ENDBRANCH   1  23
TORSDOF 14
