REMARK  4 active torsions:
REMARK  status: ('A' for Active; 'I' for Inactive)
REMARK    1  A    between atoms: C_6  and  C_5 
REMARK    2  A    between atoms: O_11  and  C_7 
REMARK    3  A    between atoms: C_9  and  C_8 
REMARK    4  A    between atoms: O_14  and  C_9 
ROOT
HETATM    1  C   UNK N   1       1.222   0.452   0.000  0.00  0.00     0.014 A 
HETATM    2  C   UNK N   1      -1.122  -0.088  -0.000  0.00  0.00     0.014 A 
HETATM    3  C   UNK N   1       0.919   1.813   0.000  0.00  0.00     0.037 A 
HETATM    4  C   UNK N   1      -1.435   1.277  -0.000  0.00  0.00     0.037 A 
HETATM    5  C   UNK N   1       0.217  -0.517  -0.000  0.00  0.00    -0.033 A 
HETATM    6  C   UNK N   1      -0.410   2.227   0.000  0.00  0.00     0.065 A 
ENDROOT
BRANCH   5   7
HETATM    7  C   UNK N   1       0.487  -1.988  -0.000  0.00  0.00     0.060 C 
HETATM    8  C   UNK N   1       1.664  -2.677  -0.000  0.00  0.00     0.190 C 
HETATM    9  F   UNK N   1       1.557  -4.034   0.000  0.00  0.00    -0.199 F 
BRANCH   8  10
HETATM   10  C   UNK N   1       3.065  -2.157   0.000  0.00  0.00     0.206 C 
HETATM   11  O   UNK N   1       3.331  -0.970  -0.000  0.00  0.00    -0.644 OA
BRANCH  10  12
HETATM   12  O   UNK N   1       4.079  -3.040   0.000  0.00  0.00    -0.771 OA
HETATM   13  H   UNK N   1       3.900  -3.959   0.000  0.00  0.00     0.167 HD
ENDBRANCH  10  12
ENDBRANCH   8  10
ENDBRANCH   5   7
BRANCH   6  14
HETATM   14  O   UNK N   1      -0.702   3.537   0.000  0.00  0.00    -0.361 OA
ATOM     15  HO  UNK N   1      -1.609   3.820  -0.000  1.00  0.00     0.217 HD
ENDBRANCH   6  14
TORSDOF 4
