MODEL 1
REMARK VINA RESULT:      -4.0      0.000      0.000
REMARK  3 active torsions:
REMARK  status: ('A' for Active; 'I' for Inactive)
REMARK    1  A    between atoms: C_2  and  C_4 
REMARK    2  A    between atoms: C_4  and  C_5 
REMARK    3  A    between atoms: C_5  and  N_7 
ROOT
HETATM    1  C   UNK N   1      23.640  12.021  11.601  0.00  0.00     0.070 C 
HETATM    2  C   UNK N   1      23.369  11.899  13.086  0.00  0.00     0.031 C 
ENDROOT
BRANCH   1   3
HETATM    3  C   UNK N   1      22.525  11.765  10.586  0.00  0.00     0.028 C 
BRANCH   3   4
HETATM    4  C   UNK N   1      21.252  12.616  10.625  0.00  0.00    -0.021 C 
HETATM    5  C   UNK N   1      20.144  12.154  11.547  0.00  0.00     0.009 C 
HETATM    6  C   UNK N   1      21.018  13.880   9.815  0.00  0.00     0.009 C 
ENDBRANCH   3   4
ENDBRANCH   1   3
BRANCH   1   7
HETATM    7  N   UNK N   1      24.987  12.386  11.195  0.00  0.00    -0.426 N 
HETATM    8  H   UNK N   1      25.606  12.862  11.851  0.00  0.00     0.150 HD
HETATM    9  H   UNK N   1      25.314  12.167  10.253  0.00  0.00     0.150 HD
ENDBRANCH   1   7
TORSDOF 3
ENDMDL
MODEL 2
REMARK VINA RESULT:      -3.8      1.843      2.712
REMARK  3 active torsions:
REMARK  status: ('A' for Active; 'I' for Inactive)
REMARK    1  A    between atoms: C_2  and  C_4 
REMARK    2  A    between atoms: C_4  and  C_5 
REMARK    3  A    between atoms: C_5  and  N_7 
ROOT
HETATM    1  C   UNK N   1      24.783  12.941   9.734  0.00  0.00     0.070 C 
HETATM    2  C   UNK N   1      24.842  13.485   8.323  0.00  0.00     0.031 C 
ENDROOT
BRANCH   1   3
HETATM    3  C   UNK N   1      23.800  11.826  10.096  0.00  0.00     0.028 C 
BRANCH   3   4
HETATM    4  C   UNK N   1      22.680  12.099  11.106  0.00  0.00    -0.021 C 
HETATM    5  C   UNK N   1      23.012  11.901  12.569  0.00  0.00     0.009 C 
HETATM    6  C   UNK N   1      21.273  12.550  10.753  0.00  0.00     0.009 C 
ENDBRANCH   3   4
ENDBRANCH   1   3
BRANCH   1   7
HETATM    7  N   UNK N   1      25.690  13.519  10.712  0.00  0.00    -0.426 N 
HETATM    8  H   UNK N   1      25.494  13.424  11.708  0.00  0.00     0.150 HD
HETATM    9  H   UNK N   1      26.523  14.021  10.402  0.00  0.00     0.150 HD
ENDBRANCH   1   7
TORSDOF 3
ENDMDL
MODEL 3
REMARK VINA RESULT:      -3.6      1.886      3.487
REMARK  3 active torsions:
REMARK  status: ('A' for Active; 'I' for Inactive)
REMARK    1  A    between atoms: C_2  and  C_4 
REMARK    2  A    between atoms: C_4  and  C_5 
REMARK    3  A    between atoms: C_5  and  N_7 
ROOT
HETATM    1  C   UNK N   1      21.437  12.959   9.575  0.00  0.00     0.070 C 
HETATM    2  C   UNK N   1      21.046  14.422   9.577  0.00  0.00     0.031 C 
ENDROOT
BRANCH   1   3
HETATM    3  C   UNK N   1      21.652  12.211  10.891  0.00  0.00     0.028 C 
BRANCH   3   4
HETATM    4  C   UNK N   1      23.062  12.098  11.480  0.00  0.00    -0.021 C 
HETATM    5  C   UNK N   1      23.167  11.837  12.966  0.00  0.00     0.009 C 
HETATM    6  C   UNK N   1      24.353  12.228  10.690  0.00  0.00     0.009 C 
ENDBRANCH   3   4
ENDBRANCH   1   3
BRANCH   1   7
HETATM    7  N   UNK N   1      21.596  12.312   8.282  0.00  0.00    -0.426 N 
HETATM    8  H   UNK N   1      20.901  12.459   7.550  0.00  0.00     0.150 HD
HETATM    9  H   UNK N   1      22.401  11.710   8.108  0.00  0.00     0.150 HD
ENDBRANCH   1   7
TORSDOF 3
ENDMDL
MODEL 4
REMARK VINA RESULT:      -3.5     14.091     14.835
REMARK  3 active torsions:
REMARK  status: ('A' for Active; 'I' for Inactive)
REMARK    1  A    between atoms: C_2  and  C_4 
REMARK    2  A    between atoms: C_4  and  C_5 
REMARK    3  A    between atoms: C_5  and  N_7 
ROOT
HETATM    1  C   UNK N   1      36.668  13.595  15.322  0.00  0.00     0.070 C 
HETATM    2  C   UNK N   1      37.207  14.961  15.687  0.00  0.00     0.031 C 
ENDROOT
BRANCH   1   3
HETATM    3  C   UNK N   1      35.342  13.103  15.904  0.00  0.00     0.028 C 
BRANCH   3   4
HETATM    4  C   UNK N   1      35.266  12.686  17.376  0.00  0.00    -0.021 C 
HETATM    5  C   UNK N   1      35.315  11.203  17.673  0.00  0.00     0.009 C 
HETATM    6  C   UNK N   1      35.147  13.641  18.551  0.00  0.00     0.009 C 
ENDBRANCH   3   4
ENDBRANCH   1   3
BRANCH   1   7
HETATM    7  N   UNK N   1      37.458  12.787  14.406  0.00  0.00    -0.426 N 
HETATM    8  H   UNK N   1      37.919  11.941  14.741  0.00  0.00     0.150 HD
HETATM    9  H   UNK N   1      37.551  13.066  13.429  0.00  0.00     0.150 HD
ENDBRANCH   1   7
TORSDOF 3
ENDMDL
MODEL 5
REMARK VINA RESULT:      -3.5     21.019     22.428
REMARK  3 active torsions:
REMARK  status: ('A' for Active; 'I' for Inactive)
REMARK    1  A    between atoms: C_2  and  C_4 
REMARK    2  A    between atoms: C_4  and  C_5 
REMARK    3  A    between atoms: C_5  and  N_7 
ROOT
HETATM    1  C   UNK N   1      25.787  28.093  -4.321  0.00  0.00     0.070 C 
HETATM    2  C   UNK N   1      26.731  29.202  -4.734  0.00  0.00     0.031 C 
ENDROOT
BRANCH   1   3
HETATM    3  C   UNK N   1      24.932  27.372  -5.365  0.00  0.00     0.028 C 
BRANCH   3   4
HETATM    4  C   UNK N   1      25.457  26.095  -6.026  0.00  0.00    -0.021 C 
HETATM    5  C   UNK N   1      25.860  26.190  -7.482  0.00  0.00     0.009 C 
HETATM    6  C   UNK N   1      25.604  24.749  -5.337  0.00  0.00     0.009 C 
ENDBRANCH   3   4
ENDBRANCH   1   3
BRANCH   1   7
HETATM    7  N   UNK N   1      25.732  27.752  -2.908  0.00  0.00    -0.426 N 
HETATM    8  H   UNK N   1      24.864  27.407  -2.500  0.00  0.00     0.150 HD
HETATM    9  H   UNK N   1      26.563  27.859  -2.325  0.00  0.00     0.150 HD
ENDBRANCH   1   7
TORSDOF 3
ENDMDL
MODEL 6
REMARK VINA RESULT:      -3.4     14.057     14.877
REMARK  3 active torsions:
REMARK  status: ('A' for Active; 'I' for Inactive)
REMARK    1  A    between atoms: C_2  and  C_4 
REMARK    2  A    between atoms: C_4  and  C_5 
REMARK    3  A    between atoms: C_5  and  N_7 
ROOT
HETATM    1  C   UNK N   1      35.177  13.617  18.290  0.00  0.00     0.070 C 
HETATM    2  C   UNK N   1      35.274  12.611  19.416  0.00  0.00     0.031 C 
ENDROOT
BRANCH   1   3
HETATM    3  C   UNK N   1      34.895  13.156  16.859  0.00  0.00     0.028 C 
BRANCH   3   4
HETATM    4  C   UNK N   1      36.061  12.801  15.931  0.00  0.00    -0.021 C 
HETATM    5  C   UNK N   1      36.811  13.953  15.299  0.00  0.00     0.009 C 
HETATM    6  C   UNK N   1      36.518  11.390  15.600  0.00  0.00     0.009 C 
ENDBRANCH   3   4
ENDBRANCH   1   3
BRANCH   1   7
HETATM    7  N   UNK N   1      35.362  15.020  18.628  0.00  0.00    -0.426 N 
HETATM    8  H   UNK N   1      35.379  15.723  17.890  0.00  0.00     0.150 HD
HETATM    9  H   UNK N   1      35.474  15.299  19.602  0.00  0.00     0.150 HD
ENDBRANCH   1   7
TORSDOF 3
ENDMDL
MODEL 7
REMARK VINA RESULT:      -3.3     13.415     14.794
REMARK  3 active torsions:
REMARK  status: ('A' for Active; 'I' for Inactive)
REMARK    1  A    between atoms: C_2  and  C_4 
REMARK    2  A    between atoms: C_4  and  C_5 
REMARK    3  A    between atoms: C_5  and  N_7 
ROOT
HETATM    1  C   UNK N   1      36.876  14.366  14.886  0.00  0.00     0.070 C 
HETATM    2  C   UNK N   1      37.350  15.359  15.927  0.00  0.00     0.031 C 
ENDROOT
BRANCH   1   3
HETATM    3  C   UNK N   1      36.838  12.870  15.201  0.00  0.00     0.028 C 
BRANCH   3   4
HETATM    4  C   UNK N   1      35.786  12.324  16.172  0.00  0.00    -0.021 C 
HETATM    5  C   UNK N   1      34.496  13.105  16.297  0.00  0.00     0.009 C 
HETATM    6  C   UNK N   1      35.939  11.068  17.013  0.00  0.00     0.009 C 
ENDBRANCH   3   4
ENDBRANCH   1   3
BRANCH   1   7
HETATM    7  N   UNK N   1      36.465  14.895  13.595  0.00  0.00    -0.426 N 
HETATM    8  H   UNK N   1      37.141  15.381  13.005  0.00  0.00     0.150 HD
HETATM    9  H   UNK N   1      35.502  14.781  13.280  0.00  0.00     0.150 HD
ENDBRANCH   1   7
TORSDOF 3
ENDMDL
MODEL 8
REMARK VINA RESULT:      -3.3      2.423      3.106
REMARK  3 active torsions:
REMARK  status: ('A' for Active; 'I' for Inactive)
REMARK    1  A    between atoms: C_2  and  C_4 
REMARK    2  A    between atoms: C_4  and  C_5 
REMARK    3  A    between atoms: C_5  and  N_7 
ROOT
HETATM    1  C   UNK N   1      22.217  12.263  11.391  0.00  0.00     0.070 C 
HETATM    2  C   UNK N   1      23.318  11.879  12.356  0.00  0.00     0.031 C 
ENDROOT
BRANCH   1   3
HETATM    3  C   UNK N   1      22.540  13.036  10.111  0.00  0.00     0.028 C 
BRANCH   3   4
HETATM    4  C   UNK N   1      23.673  12.554   9.199  0.00  0.00    -0.021 C 
HETATM    5  C   UNK N   1      23.529  11.174   8.596  0.00  0.00     0.009 C 
HETATM    6  C   UNK N   1      24.920  13.351   8.856  0.00  0.00     0.009 C 
ENDBRANCH   3   4
ENDBRANCH   1   3
BRANCH   1   7
HETATM    7  N   UNK N   1      20.859  11.869  11.734  0.00  0.00    -0.426 N 
HETATM    8  H   UNK N   1      20.134  11.863  11.017  0.00  0.00     0.150 HD
HETATM    9  H   UNK N   1      20.632  11.599  12.691  0.00  0.00     0.150 HD
ENDBRANCH   1   7
TORSDOF 3
ENDMDL
MODEL 9
REMARK VINA RESULT:      -3.2      1.549      2.042
REMARK  3 active torsions:
REMARK  status: ('A' for Active; 'I' for Inactive)
REMARK    1  A    between atoms: C_2  and  C_4 
REMARK    2  A    between atoms: C_4  and  C_5 
REMARK    3  A    between atoms: C_5  and  N_7 
ROOT
HETATM    1  C   UNK N   1      23.889  12.449   9.821  0.00  0.00     0.070 C 
HETATM    2  C   UNK N   1      23.912  11.275   8.866  0.00  0.00     0.031 C 
ENDROOT
BRANCH   1   3
HETATM    3  C   UNK N   1      22.872  13.578   9.640  0.00  0.00     0.028 C 
BRANCH   3   4
HETATM    4  C   UNK N   1      21.429  13.383  10.116  0.00  0.00    -0.021 C 
HETATM    5  C   UNK N   1      21.182  12.290  11.133  0.00  0.00     0.009 C 
HETATM    6  C   UNK N   1      20.235  14.198   9.649  0.00  0.00     0.009 C 
ENDBRANCH   3   4
ENDBRANCH   1   3
BRANCH   1   7
HETATM    7  N   UNK N   1      24.863  12.452  10.901  0.00  0.00    -0.426 N 
HETATM    8  H   UNK N   1      25.466  13.263  11.041  0.00  0.00     0.150 HD
HETATM    9  H   UNK N   1      24.944  11.644  11.518  0.00  0.00     0.150 HD
ENDBRANCH   1   7
TORSDOF 3
ENDMDL
