REMARK  6 active torsions:
REMARK  status: ('A' for Active; 'I' for Inactive)
REMARK    1  A    between atoms: C_4  and  C_2 
REMARK    2  A    between atoms: O_19  and  C_2 
REMARK    3  A    between atoms: C_6  and  C_3 
REMARK    4  A    between atoms: C_8  and  O_20 
REMARK    5  A    between atoms: C_9  and  O_21 
REMARK    6  A    between atoms: O_22  and  C_10 
REMARK       I    between atoms: N_12  and  C_11 
ROOT
HETATM    1  C   UNK N   1      -0.955  -1.632  -0.193  0.00  0.00     0.100 A 
HETATM    2  C   UNK N   1      -0.245  -0.451   0.030  0.00  0.00     0.012 A 
HETATM    3  C   UNK N   1       1.066  -0.815   0.130  0.00  0.00     0.090 A 
HETATM    4  C   UNK N   1       1.138  -2.153  -0.017  0.00  0.00     0.112 A 
HETATM    5  C   UNK N   1       2.372  -2.786   0.054  0.00  0.00     0.184 A 
HETATM    6  C   UNK N   1       3.380  -0.650   0.398  0.00  0.00     0.678 A 
HETATM    7  N   UNK N   1       4.430   0.054   0.581  0.00  0.00    -0.234 N 
ATOM      8  HN  UNK N   1       4.362   1.071   0.581  1.00  0.00     0.174 HD
HETATM    9  N   UNK N   1      -0.085  -2.683  -0.218  0.00  0.00    -0.360 N 
HETATM   10  N   UNK N   1       2.158  -0.043   0.339  0.00  0.00    -0.189 N 
HETATM   11  N   UNK N   1       3.481  -2.013   0.261  0.00  0.00    -0.169 N 
ATOM     12  HN  UNK N   1       4.399  -2.456   0.313  1.00  0.00     0.186 HD
HETATM   13  H   UNK N   1       5.305  -0.376   0.721  0.00  0.00     0.174 HD
HETATM   14  H   UNK N   1      -0.306  -3.633  -0.354  0.00  0.00     0.165 HD
HETATM   15  H   UNK N   1       2.074   0.932   0.446  0.00  0.00     0.184 HD
ENDROOT
BRANCH   2  16
HETATM   16  C   UNK N   1      -0.740   0.953   0.186  0.00  0.00     0.145 C 
HETATM   17  C   UNK N   1      -2.226   1.212  -0.018  0.00  0.00     0.175 C 
HETATM   18  C   UNK N   1      -2.180   2.723   0.020  0.00  0.00     0.173 C 
HETATM   19  C   UNK N   1      -0.978   3.004  -0.892  0.00  0.00     0.132 C 
HETATM   20  N   UNK N   1      -0.070   1.861  -0.745  0.00  0.00    -0.402 N 
HETATM   21  H   UNK N   1       0.836   1.727  -1.195  0.00  0.00     0.154 HD
BRANCH  17  22
HETATM   22  O   UNK N   1      -3.016   0.677   1.002  0.00  0.00    -0.391 OA
HETATM   23  H   UNK N   1      -3.613   0.966   1.710  0.00  0.00     0.210 HD
ENDBRANCH  17  22
BRANCH  18  24
HETATM   24  O   UNK N   1      -3.357   3.326  -0.428  0.00  0.00    -0.391 OA
HETATM   25  H   UNK N   1      -3.404   4.243  -0.739  0.00  0.00     0.210 HD
ENDBRANCH  18  24
BRANCH  19  26
HETATM   26  C   UNK N   1      -0.237   4.285  -0.517  0.00  0.00     0.191 C 
BRANCH  26  27
HETATM   27  O   UNK N   1      -1.079   5.394  -0.587  0.00  0.00    -0.399 OA
HETATM   28  H   UNK N   1      -0.703   6.287  -0.636  0.00  0.00     0.209 HD
ENDBRANCH  26  27
ENDBRANCH  19  26
ENDBRANCH   2  16
BRANCH   5  29
HETATM   29  O   UNK N   1       2.482  -4.118  -0.073  0.00  0.00    -0.344 OA
HETATM   30  H   UNK N   1       1.715  -4.649  -0.162  0.00  0.00     0.219 HD
ENDBRANCH   5  29
TORSDOF 6
