MODEL 1
REMARK VINA RESULT:      -4.9      0.000      0.000
REMARK  2 active torsions:
REMARK  status: ('A' for Active; 'I' for Inactive)
REMARK    1  A    between atoms: C_2  and  C_4 
REMARK    2  A    between atoms: C_7  and  N_8 
ROOT
HETATM    1  C   UNK N   1      34.859  12.040  16.281  0.00  0.00    -0.055 A 
HETATM    2  C   UNK N   1      34.856  13.336  16.819  0.00  0.00     0.010 A 
HETATM    3  C   UNK N   1      35.123  13.538  18.174  0.00  0.00     0.029 A 
HETATM    4  C   UNK N   1      35.394  12.448  19.003  0.00  0.00     0.025 A 
HETATM    5  C   UNK N   1      35.399  11.152  18.477  0.00  0.00     0.029 A 
HETATM    6  C   UNK N   1      35.132  10.948  17.119  0.00  0.00     0.010 A 
ENDROOT
BRANCH   1   7
HETATM    7  C   UNK N   1      34.571  11.829  14.822  0.00  0.00     0.010 C 
HETATM    8  C   UNK N   1      35.148  12.757  13.768  0.00  0.00     0.015 C 
HETATM    9  C   UNK N   1      33.692  10.676  14.367  0.00  0.00     0.015 C 
ENDBRANCH   1   7
BRANCH   4  10
HETATM   10  N   UNK N   1      35.663  12.654  20.370  0.00  0.00    -0.399 N 
HETATM   11  H   UNK N   1      34.949  12.529  21.037  0.00  0.00     0.156 HD
HETATM   12  H   UNK N   1      36.565  12.923  20.658  0.00  0.00     0.156 HD
ENDBRANCH   4  10
TORSDOF 2
ENDMDL
MODEL 2
REMARK VINA RESULT:      -4.9      0.022      1.532
REMARK  2 active torsions:
REMARK  status: ('A' for Active; 'I' for Inactive)
REMARK    1  A    between atoms: C_2  and  C_4 
REMARK    2  A    between atoms: C_7  and  N_8 
ROOT
HETATM    1  C   UNK N   1      34.856  12.044  16.297  0.00  0.00    -0.055 A 
HETATM    2  C   UNK N   1      35.130  10.951  17.132  0.00  0.00     0.010 A 
HETATM    3  C   UNK N   1      35.401  11.148  18.488  0.00  0.00     0.029 A 
HETATM    4  C   UNK N   1      35.401  12.439  19.019  0.00  0.00     0.025 A 
HETATM    5  C   UNK N   1      35.130  13.535  18.195  0.00  0.00     0.029 A 
HETATM    6  C   UNK N   1      34.858  13.340  16.837  0.00  0.00     0.010 A 
ENDROOT
BRANCH   1   7
HETATM    7  C   UNK N   1      34.566  11.825  14.840  0.00  0.00     0.010 C 
HETATM    8  C   UNK N   1      35.155  12.736  13.778  0.00  0.00     0.015 C 
HETATM    9  C   UNK N   1      33.670  10.681  14.394  0.00  0.00     0.015 C 
ENDBRANCH   1   7
BRANCH   4  10
HETATM   10  N   UNK N   1      35.674  12.636  20.386  0.00  0.00    -0.399 N 
HETATM   11  H   UNK N   1      36.424  12.161  20.812  0.00  0.00     0.156 HD
HETATM   12  H   UNK N   1      35.115  13.249  20.916  0.00  0.00     0.156 HD
ENDBRANCH   4  10
TORSDOF 2
ENDMDL
MODEL 3
REMARK VINA RESULT:      -4.5      2.947      4.561
REMARK  2 active torsions:
REMARK  status: ('A' for Active; 'I' for Inactive)
REMARK    1  A    between atoms: C_2  and  C_4 
REMARK    2  A    between atoms: C_7  and  N_8 
ROOT
HETATM    1  C   UNK N   1      35.620  12.996  16.157  0.00  0.00    -0.055 A 
HETATM    2  C   UNK N   1      36.536  14.055  16.072  0.00  0.00     0.010 A 
HETATM    3  C   UNK N   1      36.821  14.643  14.838  0.00  0.00     0.029 A 
HETATM    4  C   UNK N   1      36.194  14.178  13.681  0.00  0.00     0.025 A 
HETATM    5  C   UNK N   1      35.280  13.122  13.756  0.00  0.00     0.029 A 
HETATM    6  C   UNK N   1      34.993  12.533  14.991  0.00  0.00     0.010 A 
ENDROOT
BRANCH   1   7
HETATM    7  C   UNK N   1      35.317  12.368  17.488  0.00  0.00     0.010 C 
HETATM    8  C   UNK N   1      35.173  10.863  17.629  0.00  0.00     0.015 C 
HETATM    9  C   UNK N   1      35.148  13.230  18.728  0.00  0.00     0.015 C 
ENDBRANCH   1   7
BRANCH   4  10
HETATM   10  N   UNK N   1      36.483  14.772  12.437  0.00  0.00    -0.399 N 
HETATM   11  H   UNK N   1      37.346  15.226  12.296  0.00  0.00     0.156 HD
HETATM   12  H   UNK N   1      35.823  14.733  11.708  0.00  0.00     0.156 HD
ENDBRANCH   4  10
TORSDOF 2
ENDMDL
MODEL 4
REMARK VINA RESULT:      -4.5      2.849      4.720
REMARK  2 active torsions:
REMARK  status: ('A' for Active; 'I' for Inactive)
REMARK    1  A    between atoms: C_2  and  C_4 
REMARK    2  A    between atoms: C_7  and  N_8 
ROOT
HETATM    1  C   UNK N   1      35.009  12.399  15.978  0.00  0.00    -0.055 A 
HETATM    2  C   UNK N   1      34.292  11.281  15.527  0.00  0.00     0.010 A 
HETATM    3  C   UNK N   1      34.109  11.065  14.160  0.00  0.00     0.029 A 
HETATM    4  C   UNK N   1      34.642  11.963  13.233  0.00  0.00     0.025 A 
HETATM    5  C   UNK N   1      35.359  13.080  13.673  0.00  0.00     0.029 A 
HETATM    6  C   UNK N   1      35.542  13.298  15.042  0.00  0.00     0.010 A 
ENDROOT
BRANCH   1   7
HETATM    7  C   UNK N   1      35.202  12.626  17.450  0.00  0.00     0.010 C 
HETATM    8  C   UNK N   1      35.246  14.029  18.027  0.00  0.00     0.015 C 
HETATM    9  C   UNK N   1      35.358  11.449  18.400  0.00  0.00     0.015 C 
ENDBRANCH   1   7
BRANCH   4  10
HETATM   10  N   UNK N   1      34.457  11.743  11.854  0.00  0.00    -0.399 N 
HETATM   11  H   UNK N   1      34.587  12.482  11.216  0.00  0.00     0.156 HD
HETATM   12  H   UNK N   1      34.198  10.851  11.529  0.00  0.00     0.156 HD
ENDBRANCH   4  10
TORSDOF 2
ENDMDL
MODEL 5
REMARK VINA RESULT:      -4.4     11.181     11.833
REMARK  2 active torsions:
REMARK  status: ('A' for Active; 'I' for Inactive)
REMARK    1  A    between atoms: C_2  and  C_4 
REMARK    2  A    between atoms: C_7  and  N_8 
ROOT
HETATM    1  C   UNK N   1      31.501  17.680   7.538  0.00  0.00    -0.055 A 
HETATM    2  C   UNK N   1      31.320  18.357   8.754  0.00  0.00     0.010 A 
HETATM    3  C   UNK N   1      30.038  18.536   9.277  0.00  0.00     0.029 A 
HETATM    4  C   UNK N   1      28.928  18.041   8.590  0.00  0.00     0.025 A 
HETATM    5  C   UNK N   1      29.099  17.365   7.378  0.00  0.00     0.029 A 
HETATM    6  C   UNK N   1      30.382  17.185   6.852  0.00  0.00     0.010 A 
ENDROOT
BRANCH   1   7
HETATM    7  C   UNK N   1      32.883  17.491   6.981  0.00  0.00     0.010 C 
HETATM    8  C   UNK N   1      34.113  17.831   7.804  0.00  0.00     0.015 C 
HETATM    9  C   UNK N   1      33.082  16.953   5.574  0.00  0.00     0.015 C 
ENDBRANCH   1   7
BRANCH   4  10
HETATM   10  N   UNK N   1      27.635  18.222   9.119  0.00  0.00    -0.399 N 
HETATM   11  H   UNK N   1      27.290  17.601   9.800  0.00  0.00     0.156 HD
HETATM   12  H   UNK N   1      27.077  18.971   8.807  0.00  0.00     0.156 HD
ENDBRANCH   4  10
TORSDOF 2
ENDMDL
MODEL 6
REMARK VINA RESULT:      -4.4     26.341     27.752
REMARK  2 active torsions:
REMARK  status: ('A' for Active; 'I' for Inactive)
REMARK    1  A    between atoms: C_2  and  C_4 
REMARK    2  A    between atoms: C_7  and  N_8 
ROOT
HETATM    1  C   UNK N   1      25.843  25.181  -5.958  0.00  0.00    -0.055 A 
HETATM    2  C   UNK N   1      25.304  26.460  -6.163  0.00  0.00     0.010 A 
HETATM    3  C   UNK N   1      25.340  27.412  -5.143  0.00  0.00     0.029 A 
HETATM    4  C   UNK N   1      25.914  27.095  -3.911  0.00  0.00     0.025 A 
HETATM    5  C   UNK N   1      26.453  25.822  -3.697  0.00  0.00     0.029 A 
HETATM    6  C   UNK N   1      26.418  24.867  -4.717  0.00  0.00     0.010 A 
ENDROOT
BRANCH   1   7
HETATM    7  C   UNK N   1      25.801  24.160  -7.059  0.00  0.00     0.010 C 
HETATM    8  C   UNK N   1      25.864  22.674  -6.754  0.00  0.00     0.015 C 
HETATM    9  C   UNK N   1      25.693  24.595  -8.511  0.00  0.00     0.015 C 
ENDBRANCH   1   7
BRANCH   4  10
HETATM   10  N   UNK N   1      25.950  28.057  -2.883  0.00  0.00    -0.399 N 
HETATM   11  H   UNK N   1      25.222  28.715  -2.798  0.00  0.00     0.156 HD
HETATM   12  H   UNK N   1      26.702  28.071  -2.249  0.00  0.00     0.156 HD
ENDBRANCH   4  10
TORSDOF 2
ENDMDL
MODEL 7
REMARK VINA RESULT:      -4.3     28.160     28.853
REMARK  2 active torsions:
REMARK  status: ('A' for Active; 'I' for Inactive)
REMARK    1  A    between atoms: C_2  and  C_4 
REMARK    2  A    between atoms: C_7  and  N_8 
ROOT
HETATM    1  C   UNK N   1      26.171  27.057  -6.203  0.00  0.00    -0.055 A 
HETATM    2  C   UNK N   1      25.346  27.135  -5.072  0.00  0.00     0.010 A 
HETATM    3  C   UNK N   1      25.501  28.177  -4.155  0.00  0.00     0.029 A 
HETATM    4  C   UNK N   1      26.482  29.148  -4.363  0.00  0.00     0.025 A 
HETATM    5  C   UNK N   1      27.309  29.079  -5.488  0.00  0.00     0.029 A 
HETATM    6  C   UNK N   1      27.155  28.036  -6.406  0.00  0.00     0.010 A 
ENDROOT
BRANCH   1   7
HETATM    7  C   UNK N   1      25.999  25.933  -7.185  0.00  0.00     0.010 C 
HETATM    8  C   UNK N   1      25.943  26.200  -8.679  0.00  0.00     0.015 C 
HETATM    9  C   UNK N   1      25.876  24.498  -6.703  0.00  0.00     0.015 C 
ENDBRANCH   1   7
BRANCH   4  10
HETATM   10  N   UNK N   1      26.637  30.199  -3.437  0.00  0.00    -0.399 N 
HETATM   11  H   UNK N   1      27.474  30.284  -2.924  0.00  0.00     0.156 HD
HETATM   12  H   UNK N   1      25.910  30.848  -3.304  0.00  0.00     0.156 HD
ENDBRANCH   4  10
TORSDOF 2
ENDMDL
MODEL 8
REMARK VINA RESULT:      -4.2     26.750     28.298
REMARK  2 active torsions:
REMARK  status: ('A' for Active; 'I' for Inactive)
REMARK    1  A    between atoms: C_2  and  C_4 
REMARK    2  A    between atoms: C_7  and  N_8 
ROOT
HETATM    1  C   UNK N   1      26.560  27.506  -5.222  0.00  0.00    -0.055 A 
HETATM    2  C   UNK N   1      26.121  27.121  -6.497  0.00  0.00     0.010 A 
HETATM    3  C   UNK N   1      25.724  25.804  -6.739  0.00  0.00     0.029 A 
HETATM    4  C   UNK N   1      25.761  24.863  -5.709  0.00  0.00     0.025 A 
HETATM    5  C   UNK N   1      26.197  25.237  -4.434  0.00  0.00     0.029 A 
HETATM    6  C   UNK N   1      26.596  26.555  -4.190  0.00  0.00     0.010 A 
ENDROOT
BRANCH   1   7
HETATM    7  C   UNK N   1      26.986  28.923  -4.968  0.00  0.00     0.010 C 
HETATM    8  C   UNK N   1      26.378  29.734  -3.838  0.00  0.00     0.015 C 
HETATM    9  C   UNK N   1      28.041  29.581  -5.842  0.00  0.00     0.015 C 
ENDBRANCH   1   7
BRANCH   4  10
HETATM   10  N   UNK N   1      25.360  23.535  -5.954  0.00  0.00    -0.399 N 
HETATM   11  H   UNK N   1      26.027  22.811  -5.952  0.00  0.00     0.156 HD
HETATM   12  H   UNK N   1      24.413  23.333  -6.128  0.00  0.00     0.156 HD
ENDBRANCH   4  10
TORSDOF 2
ENDMDL
MODEL 9
REMARK VINA RESULT:      -4.1     13.194     14.836
REMARK  2 active torsions:
REMARK  status: ('A' for Active; 'I' for Inactive)
REMARK    1  A    between atoms: C_2  and  C_4 
REMARK    2  A    between atoms: C_7  and  N_8 
ROOT
HETATM    1  C   UNK N   1      22.106  13.024   9.009  0.00  0.00    -0.055 A 
HETATM    2  C   UNK N   1      21.048  12.839   9.911  0.00  0.00     0.010 A 
HETATM    3  C   UNK N   1      21.293  12.354  11.197  0.00  0.00     0.029 A 
HETATM    4  C   UNK N   1      22.597  12.048  11.592  0.00  0.00     0.025 A 
HETATM    5  C   UNK N   1      23.658  12.229  10.700  0.00  0.00     0.029 A 
HETATM    6  C   UNK N   1      23.415  12.715   9.412  0.00  0.00     0.010 A 
ENDROOT
BRANCH   1   7
HETATM    7  C   UNK N   1      21.836  13.546   7.627  0.00  0.00     0.010 C 
HETATM    8  C   UNK N   1      20.987  12.760   6.645  0.00  0.00     0.015 C 
HETATM    9  C   UNK N   1      22.409  14.881   7.180  0.00  0.00     0.015 C 
ENDBRANCH   1   7
BRANCH   4  10
HETATM   10  N   UNK N   1      22.842  11.559  12.889  0.00  0.00    -0.399 N 
HETATM   11  H   UNK N   1      23.749  11.270  13.144  0.00  0.00     0.156 HD
HETATM   12  H   UNK N   1      22.107  11.505  13.541  0.00  0.00     0.156 HD
ENDBRANCH   4  10
TORSDOF 2
ENDMDL
