MODEL 1
REMARK VINA RESULT:      -4.8      0.000      0.000
REMARK  3 active torsions:
REMARK  status: ('A' for Active; 'I' for Inactive)
REMARK    1  A    between atoms: N_1  and  C_2 
REMARK    2  A    between atoms: C_6  and  C_8 
REMARK    3  A    between atoms: C_8  and  O_9 
ROOT
HETATM    1  C   UNK N   1      25.817  27.724  -3.987  0.00  0.00     0.026 A 
HETATM    2  C   UNK N   1      25.076  27.541  -5.159  0.00  0.00     0.029 A 
HETATM    3  C   UNK N   1      25.052  26.291  -5.784  0.00  0.00     0.003 A 
HETATM    4  C   UNK N   1      25.771  25.223  -5.238  0.00  0.00     0.018 A 
HETATM    5  C   UNK N   1      26.514  25.404  -4.064  0.00  0.00     0.039 A 
HETATM    6  C   UNK N   1      26.534  26.659  -3.442  0.00  0.00     0.047 A 
ENDROOT
BRANCH   5   7
HETATM    7  C   UNK N   1      27.271  24.281  -3.488  0.00  0.00     0.176 C 
HETATM    8  O   UNK N   1      26.962  23.827  -2.396  0.00  0.00    -0.646 OA
BRANCH   7   9
HETATM    9  O   UNK N   1      28.308  23.748  -4.161  0.00  0.00    -0.773 OA
HETATM   10  H   UNK N   1      28.255  22.870  -4.484  0.00  0.00     0.167 HD
ENDBRANCH   7   9
ENDBRANCH   5   7
BRANCH   1  11
HETATM   11  N   UNK N   1      25.842  28.981  -3.356  0.00  0.00    -0.399 N 
HETATM   12  H   UNK N   1      26.348  29.724  -3.758  0.00  0.00     0.156 HD
HETATM   13  H   UNK N   1      25.353  29.118  -2.512  0.00  0.00     0.156 HD
ENDBRANCH   1  11
TORSDOF 3
ENDMDL
MODEL 2
REMARK VINA RESULT:      -4.7     15.041     15.948
REMARK  3 active torsions:
REMARK  status: ('A' for Active; 'I' for Inactive)
REMARK    1  A    between atoms: N_1  and  C_2 
REMARK    2  A    between atoms: C_6  and  C_8 
REMARK    3  A    between atoms: C_8  and  O_9 
ROOT
HETATM    1  C   UNK N   1      31.165  17.249   7.220  0.00  0.00     0.026 A 
HETATM    2  C   UNK N   1      31.451  17.065   5.864  0.00  0.00     0.029 A 
HETATM    3  C   UNK N   1      32.756  17.240   5.394  0.00  0.00     0.003 A 
HETATM    4  C   UNK N   1      33.775  17.599   6.281  0.00  0.00     0.018 A 
HETATM    5  C   UNK N   1      33.491  17.784   7.640  0.00  0.00     0.039 A 
HETATM    6  C   UNK N   1      32.182  17.607   8.105  0.00  0.00     0.047 A 
ENDROOT
BRANCH   5   7
HETATM    7  C   UNK N   1      34.563  18.162   8.574  0.00  0.00     0.176 C 
HETATM    8  O   UNK N   1      35.229  19.167   8.373  0.00  0.00    -0.646 OA
BRANCH   7   9
HETATM    9  O   UNK N   1      34.817  17.403   9.657  0.00  0.00    -0.773 OA
HETATM   10  H   UNK N   1      35.665  17.024   9.774  0.00  0.00     0.167 HD
ENDBRANCH   7   9
ENDBRANCH   5   7
BRANCH   1  11
HETATM   11  N   UNK N   1      29.853  17.073   7.696  0.00  0.00    -0.399 N 
HETATM   12  H   UNK N   1      29.110  16.955   7.060  0.00  0.00     0.156 HD
HETATM   13  H   UNK N   1      29.676  17.069   8.665  0.00  0.00     0.156 HD
ENDBRANCH   1  11
TORSDOF 3
ENDMDL
MODEL 3
REMARK VINA RESULT:      -4.7     17.017     18.598
REMARK  3 active torsions:
REMARK  status: ('A' for Active; 'I' for Inactive)
REMARK    1  A    between atoms: N_1  and  C_2 
REMARK    2  A    between atoms: C_6  and  C_8 
REMARK    3  A    between atoms: C_8  and  O_9 
ROOT
HETATM    1  C   UNK N   1      33.317  14.968   9.575  0.00  0.00     0.026 A 
HETATM    2  C   UNK N   1      34.075  14.835  10.743  0.00  0.00     0.029 A 
HETATM    3  C   UNK N   1      35.039  15.794  11.065  0.00  0.00     0.003 A 
HETATM    4  C   UNK N   1      35.247  16.887  10.218  0.00  0.00     0.018 A 
HETATM    5  C   UNK N   1      34.489  17.022   9.046  0.00  0.00     0.039 A 
HETATM    6  C   UNK N   1      33.524  16.058   8.730  0.00  0.00     0.047 A 
ENDROOT
BRANCH   5   7
HETATM    7  C   UNK N   1      34.707  18.172   8.154  0.00  0.00     0.176 C 
HETATM    8  O   UNK N   1      35.239  19.187   8.578  0.00  0.00    -0.646 OA
BRANCH   7   9
HETATM    9  O   UNK N   1      34.321  18.111   6.866  0.00  0.00    -0.773 OA
HETATM   10  H   UNK N   1      33.731  18.754   6.523  0.00  0.00     0.167 HD
ENDBRANCH   7   9
ENDBRANCH   5   7
BRANCH   1  11
HETATM   11  N   UNK N   1      32.346  14.004   9.250  0.00  0.00    -0.399 N 
HETATM   12  H   UNK N   1      31.768  13.629   9.954  0.00  0.00     0.156 HD
HETATM   13  H   UNK N   1      32.243  13.703   8.318  0.00  0.00     0.156 HD
ENDBRANCH   1  11
TORSDOF 3
ENDMDL
MODEL 4
REMARK VINA RESULT:      -4.7     25.433     27.063
REMARK  3 active torsions:
REMARK  status: ('A' for Active; 'I' for Inactive)
REMARK    1  A    between atoms: N_1  and  C_2 
REMARK    2  A    between atoms: C_6  and  C_8 
REMARK    3  A    between atoms: C_8  and  O_9 
ROOT
HETATM    1  C   UNK N   1      35.160  12.767  19.074  0.00  0.00     0.026 A 
HETATM    2  C   UNK N   1      35.380  11.391  19.189  0.00  0.00     0.029 A 
HETATM    3  C   UNK N   1      35.738  10.643  18.063  0.00  0.00     0.003 A 
HETATM    4  C   UNK N   1      35.876  11.272  16.822  0.00  0.00     0.018 A 
HETATM    5  C   UNK N   1      35.657  12.651  16.704  0.00  0.00     0.039 A 
HETATM    6  C   UNK N   1      35.298  13.395  17.836  0.00  0.00     0.047 A 
ENDROOT
BRANCH   5   7
HETATM    7  C   UNK N   1      35.802  13.313  15.399  0.00  0.00     0.176 C 
HETATM    8  O   UNK N   1      34.850  13.386  14.636  0.00  0.00    -0.646 OA
BRANCH   7   9
HETATM    9  O   UNK N   1      36.985  13.843  15.037  0.00  0.00    -0.773 OA
HETATM   10  H   UNK N   1      37.051  14.760  14.854  0.00  0.00     0.167 HD
ENDBRANCH   7   9
ENDBRANCH   5   7
BRANCH   1  11
HETATM   11  N   UNK N   1      34.800  13.522  20.205  0.00  0.00    -0.399 N 
HETATM   12  H   UNK N   1      34.905  13.139  21.106  0.00  0.00     0.156 HD
HETATM   13  H   UNK N   1      34.442  14.433  20.096  0.00  0.00     0.156 HD
ENDBRANCH   1  11
TORSDOF 3
ENDMDL
MODEL 5
REMARK VINA RESULT:      -4.7     19.129     20.183
REMARK  3 active torsions:
REMARK  status: ('A' for Active; 'I' for Inactive)
REMARK    1  A    between atoms: N_1  and  C_2 
REMARK    2  A    between atoms: C_6  and  C_8 
REMARK    3  A    between atoms: C_8  and  O_9 
ROOT
HETATM    1  C   UNK N   1      20.844  12.345  11.214  0.00  0.00     0.026 A 
HETATM    2  C   UNK N   1      20.226  13.243  10.338  0.00  0.00     0.029 A 
HETATM    3  C   UNK N   1      20.995  13.979   9.432  0.00  0.00     0.003 A 
HETATM    4  C   UNK N   1      22.383  13.817   9.402  0.00  0.00     0.018 A 
HETATM    5  C   UNK N   1      23.005  12.917  10.279  0.00  0.00     0.039 A 
HETATM    6  C   UNK N   1      22.229  12.183  11.184  0.00  0.00     0.047 A 
ENDROOT
BRANCH   5   7
HETATM    7  C   UNK N   1      24.466  12.746  10.247  0.00  0.00     0.176 C 
HETATM    8  O   UNK N   1      25.084  12.922   9.208  0.00  0.00    -0.646 OA
BRANCH   7   9
HETATM    9  O   UNK N   1      25.130  12.394  11.364  0.00  0.00    -0.773 OA
HETATM   10  H   UNK N   1      25.270  13.024  12.044  0.00  0.00     0.167 HD
ENDBRANCH   7   9
ENDBRANCH   5   7
BRANCH   1  11
HETATM   11  N   UNK N   1      20.072  11.603  12.126  0.00  0.00    -0.399 N 
HETATM   12  H   UNK N   1      19.921  11.947  13.037  0.00  0.00     0.156 HD
HETATM   13  H   UNK N   1      19.682  10.741  11.855  0.00  0.00     0.156 HD
ENDBRANCH   1  11
TORSDOF 3
ENDMDL
MODEL 6
REMARK VINA RESULT:      -4.7     18.475     19.869
REMARK  3 active torsions:
REMARK  status: ('A' for Active; 'I' for Inactive)
REMARK    1  A    between atoms: N_1  and  C_2 
REMARK    2  A    between atoms: C_6  and  C_8 
REMARK    3  A    between atoms: C_8  and  O_9 
ROOT
HETATM    1  C   UNK N   1      23.523  12.630  10.715  0.00  0.00     0.026 A 
HETATM    2  C   UNK N   1      22.758  11.922  11.646  0.00  0.00     0.029 A 
HETATM    3  C   UNK N   1      21.363  12.013  11.620  0.00  0.00     0.003 A 
HETATM    4  C   UNK N   1      20.733  12.813  10.661  0.00  0.00     0.018 A 
HETATM    5  C   UNK N   1      21.498  13.523   9.726  0.00  0.00     0.039 A 
HETATM    6  C   UNK N   1      22.895  13.428   9.758  0.00  0.00     0.047 A 
ENDROOT
BRANCH   5   7
HETATM    7  C   UNK N   1      20.836  14.365   8.717  0.00  0.00     0.176 C 
HETATM    8  O   UNK N   1      20.262  13.851   7.769  0.00  0.00    -0.646 OA
BRANCH   7   9
HETATM    9  O   UNK N   1      20.860  15.706   8.834  0.00  0.00    -0.773 OA
HETATM   10  H   UNK N   1      20.773  16.104   9.677  0.00  0.00     0.167 HD
ENDBRANCH   7   9
ENDBRANCH   5   7
BRANCH   1  11
HETATM   11  N   UNK N   1      24.927  12.540  10.739  0.00  0.00    -0.399 N 
HETATM   12  H   UNK N   1      25.409  12.151   9.973  0.00  0.00     0.156 HD
HETATM   13  H   UNK N   1      25.428  12.866  11.521  0.00  0.00     0.156 HD
ENDBRANCH   1  11
TORSDOF 3
ENDMDL
MODEL 7
REMARK VINA RESULT:      -4.6     19.100     20.148
REMARK  3 active torsions:
REMARK  status: ('A' for Active; 'I' for Inactive)
REMARK    1  A    between atoms: N_1  and  C_2 
REMARK    2  A    between atoms: C_6  and  C_8 
REMARK    3  A    between atoms: C_8  and  O_9 
ROOT
HETATM    1  C   UNK N   1      22.767  12.049  11.549  0.00  0.00     0.026 A 
HETATM    2  C   UNK N   1      23.989  12.169  10.880  0.00  0.00     0.029 A 
HETATM    3  C   UNK N   1      24.048  12.815   9.642  0.00  0.00     0.003 A 
HETATM    4  C   UNK N   1      22.885  13.342   9.073  0.00  0.00     0.018 A 
HETATM    5  C   UNK N   1      21.659  13.223   9.742  0.00  0.00     0.039 A 
HETATM    6  C   UNK N   1      21.606  12.574  10.982  0.00  0.00     0.047 A 
ENDROOT
BRANCH   5   7
HETATM    7  C   UNK N   1      20.434  13.776   9.143  0.00  0.00     0.176 C 
HETATM    8  O   UNK N   1      19.508  14.132   9.856  0.00  0.00    -0.646 OA
BRANCH   7   9
HETATM    9  O   UNK N   1      20.327  13.894   7.807  0.00  0.00    -0.773 OA
HETATM   10  H   UNK N   1      21.099  13.946   7.278  0.00  0.00     0.167 HD
ENDBRANCH   7   9
ENDBRANCH   5   7
BRANCH   1  11
HETATM   11  N   UNK N   1      22.705  11.399  12.795  0.00  0.00    -0.399 N 
HETATM   12  H   UNK N   1      21.968  11.598  13.419  0.00  0.00     0.156 HD
HETATM   13  H   UNK N   1      23.397  10.744  13.045  0.00  0.00     0.156 HD
ENDBRANCH   1  11
TORSDOF 3
ENDMDL
MODEL 8
REMARK VINA RESULT:      -4.6     15.020     15.586
REMARK  3 active torsions:
REMARK  status: ('A' for Active; 'I' for Inactive)
REMARK    1  A    between atoms: N_1  and  C_2 
REMARK    2  A    between atoms: C_6  and  C_8 
REMARK    3  A    between atoms: C_8  and  O_9 
ROOT
HETATM    1  C   UNK N   1      30.661  17.930   8.627  0.00  0.00     0.026 A 
HETATM    2  C   UNK N   1      29.829  17.425   7.621  0.00  0.00     0.029 A 
HETATM    3  C   UNK N   1      30.380  16.977   6.417  0.00  0.00     0.003 A 
HETATM    4  C   UNK N   1      31.763  17.033   6.219  0.00  0.00     0.018 A 
HETATM    5  C   UNK N   1      32.598  17.537   7.224  0.00  0.00     0.039 A 
HETATM    6  C   UNK N   1      32.040  17.985   8.428  0.00  0.00     0.047 A 
ENDROOT
BRANCH   5   7
HETATM    7  C   UNK N   1      34.053  17.596   7.016  0.00  0.00     0.176 C 
HETATM    8  O   UNK N   1      34.722  18.450   7.580  0.00  0.00    -0.646 OA
BRANCH   7   9
HETATM    9  O   UNK N   1      34.657  16.710   6.203  0.00  0.00    -0.773 OA
HETATM   10  H   UNK N   1      34.142  16.105   5.705  0.00  0.00     0.167 HD
ENDBRANCH   7   9
ENDBRANCH   5   7
BRANCH   1  11
HETATM   11  N   UNK N   1      30.109  18.382   9.839  0.00  0.00    -0.399 N 
HETATM   12  H   UNK N   1      29.481  17.810  10.338  0.00  0.00     0.156 HD
HETATM   13  H   UNK N   1      30.349  19.270  10.189  0.00  0.00     0.156 HD
ENDBRANCH   1  11
TORSDOF 3
ENDMDL
MODEL 9
REMARK VINA RESULT:      -4.5     10.935     11.990
REMARK  3 active torsions:
REMARK  status: ('A' for Active; 'I' for Inactive)
REMARK    1  A    between atoms: N_1  and  C_2 
REMARK    2  A    between atoms: C_6  and  C_8 
REMARK    3  A    between atoms: C_8  and  O_9 
ROOT
HETATM    1  C   UNK N   1      20.126  17.120   2.971  0.00  0.00     0.026 A 
HETATM    2  C   UNK N   1      20.630  17.381   4.249  0.00  0.00     0.029 A 
HETATM    3  C   UNK N   1      21.201  18.625   4.535  0.00  0.00     0.003 A 
HETATM    4  C   UNK N   1      21.267  19.608   3.543  0.00  0.00     0.018 A 
HETATM    5  C   UNK N   1      20.762  19.349   2.262  0.00  0.00     0.039 A 
HETATM    6  C   UNK N   1      20.191  18.101   1.981  0.00  0.00     0.047 A 
ENDROOT
BRANCH   5   7
HETATM    7  C   UNK N   1      20.831  20.382   1.217  0.00  0.00     0.176 C 
HETATM    8  O   UNK N   1      21.053  21.546   1.517  0.00  0.00    -0.646 OA
BRANCH   7   9
HETATM    9  O   UNK N   1      20.650  20.052  -0.075  0.00  0.00    -0.773 OA
HETATM   10  H   UNK N   1      20.386  20.705  -0.693  0.00  0.00     0.167 HD
ENDBRANCH   7   9
ENDBRANCH   5   7
BRANCH   1  11
HETATM   11  N   UNK N   1      19.551  15.870   2.680  0.00  0.00    -0.399 N 
HETATM   12  H   UNK N   1      18.870  15.488   3.282  0.00  0.00     0.156 HD
HETATM   13  H   UNK N   1      19.829  15.375   1.875  0.00  0.00     0.156 HD
ENDBRANCH   1  11
TORSDOF 3
ENDMDL
