REMARK  6 active torsions:
REMARK  status: ('A' for Active; 'I' for Inactive)
REMARK    1  A    between atoms: C_4  and  C_2 
REMARK    2  A    between atoms: S_10  and  C_2 
REMARK    3  A    between atoms: S_10  and  C_3 
REMARK    4  A    between atoms: C_5  and  C_4 
REMARK    5  A    between atoms: C_4  and  N_6 
REMARK    6  A    between atoms: O_9  and  C_5 
ROOT
HETATM    1  C   UNK N   1      -1.295   1.015  -0.126  0.00  0.00     0.183 C 
ENDROOT
BRANCH   1   2
HETATM    2  C   UNK N   1      -0.058   1.544   0.595  0.00  0.00     0.117 C 
BRANCH   2   3
HETATM    3  S   UNK N   1       0.827   2.778  -0.420  0.00  0.00    -0.090 SA
BRANCH   3   4
HETATM    4  C   UNK N   1       2.462   2.266   0.122  0.00  0.00     0.182 C 
HETATM    5  C   UNK N   1       2.902   0.846  -0.005  0.00  0.00     0.104 C 
HETATM    6  O   UNK N   1       3.233   3.097   0.573  0.00  0.00    -0.286 OA
ENDBRANCH   3   4
ENDBRANCH   2   3
ENDBRANCH   1   2
BRANCH   1   7
HETATM    7  C   UNK N   1      -2.447   1.984  -0.001  0.00  0.00     0.163 C 
HETATM    8  O   UNK N   1      -3.497   1.638   0.518  0.00  0.00    -0.648 OA
BRANCH   7   9
HETATM    9  O   UNK N   1      -2.325   3.240  -0.472  0.00  0.00    -0.775 OA
HETATM   10  H   UNK N   1      -1.527   3.604  -0.800  0.00  0.00     0.167 HD
ENDBRANCH   7   9
ENDBRANCH   1   7
BRANCH   1  11
HETATM   11  N   UNK N   1      -1.653  -0.271   0.452  0.00  0.00    -0.417 N 
HETATM   12  H   UNK N   1      -2.559  -0.505   0.857  0.00  0.00     0.150 HD
HETATM   13  H   UNK N   1      -0.939  -1.000   0.452  0.00  0.00     0.150 HD
ENDBRANCH   1  11
TORSDOF 6
