MODEL 1
REMARK VINA RESULT:      -5.6      0.000      0.000
REMARK  5 active torsions:
REMARK  status: ('A' for Active; 'I' for Inactive)
REMARK    1  A    between atoms: C_2  and  O_7 
REMARK    2  A    between atoms: C_5  and  C_3 
REMARK    3  A    between atoms: C_4  and  O_8 
REMARK    4  A    between atoms: O_10  and  C_5 
REMARK    5  A    between atoms: C_6  and  O_11 
ROOT
HETATM    1  C   UNK N   1      33.432  16.340   9.030  0.00  0.00     0.051 C 
HETATM    2  C   UNK N   1      33.288  15.087   9.845  0.00  0.00     0.177 C 
HETATM    3  C   UNK N   1      34.608  16.995   8.982  0.00  0.00     0.144 C 
HETATM    4  C   UNK N   1      34.239  15.146  11.042  0.00  0.00     0.206 C 
HETATM    5  C   UNK N   1      35.665  15.457  10.557  0.00  0.00     0.295 C 
HETATM    6  O   UNK N   1      35.685  16.550   9.697  0.00  0.00    -0.311 OA
ENDROOT
BRANCH   3   7
HETATM    7  C   UNK N   1      34.757  18.196   8.136  0.00  0.00     0.200 C 
HETATM    8  O   UNK N   1      35.270  19.213   8.584  0.00  0.00    -0.645 OA
BRANCH   7   9
HETATM    9  O   UNK N   1      34.310  18.182   6.868  0.00  0.00    -0.771 OA
HETATM   10  H   UNK N   1      34.273  18.978   6.374  0.00  0.00     0.167 HD
ENDBRANCH   7   9
ENDBRANCH   3   7
BRANCH   2  11
HETATM   11  O   UNK N   1      31.969  14.962  10.285  0.00  0.00    -0.389 OA
HETATM   12  H   UNK N   1      31.289  14.348   9.967  0.00  0.00     0.210 HD
ENDBRANCH   2  11
BRANCH   5  13
HETATM   13  O   UNK N   1      36.476  15.726  11.661  0.00  0.00    -0.368 OA
HETATM   14  H   UNK N   1      37.026  15.093  12.147  0.00  0.00     0.212 HD
ENDBRANCH   5  13
BRANCH   4  15
HETATM   15  O   UNK N   1      34.217  13.939  11.745  0.00  0.00    -0.388 OA
HETATM   16  H   UNK N   1      33.398  13.578  12.119  0.00  0.00     0.210 HD
ENDBRANCH   4  15
TORSDOF 5
ENDMDL
MODEL 2
REMARK VINA RESULT:      -5.6     15.206     16.792
REMARK  5 active torsions:
REMARK  status: ('A' for Active; 'I' for Inactive)
REMARK    1  A    between atoms: C_2  and  O_7 
REMARK    2  A    between atoms: C_5  and  C_3 
REMARK    3  A    between atoms: C_4  and  O_8 
REMARK    4  A    between atoms: O_10  and  C_5 
REMARK    5  A    between atoms: C_6  and  O_11 
ROOT
HETATM    1  C   UNK N   1      20.649  18.158   2.561  0.00  0.00     0.051 C 
HETATM    2  C   UNK N   1      21.271  19.400   3.132  0.00  0.00     0.177 C 
HETATM    3  C   UNK N   1      20.387  18.065   1.243  0.00  0.00     0.144 C 
HETATM    4  C   UNK N   1      20.850  20.610   2.296  0.00  0.00     0.206 C 
HETATM    5  C   UNK N   1      21.150  20.344   0.811  0.00  0.00     0.295 C 
HETATM    6  O   UNK N   1      20.656  19.110   0.403  0.00  0.00    -0.311 OA
ENDROOT
BRANCH   3   7
HETATM    7  C   UNK N   1      19.826  16.821   0.682  0.00  0.00     0.200 C 
HETATM    8  O   UNK N   1      20.525  15.825   0.553  0.00  0.00    -0.645 OA
BRANCH   7   9
HETATM    9  O   UNK N   1      18.540  16.783   0.290  0.00  0.00    -0.771 OA
HETATM   10  H   UNK N   1      17.897  16.364   0.828  0.00  0.00     0.167 HD
ENDBRANCH   7   9
ENDBRANCH   3   7
BRANCH   2  11
HETATM   11  O   UNK N   1      20.861  19.566   4.456  0.00  0.00    -0.389 OA
HETATM   12  H   UNK N   1      20.668  18.877   5.112  0.00  0.00     0.210 HD
ENDBRANCH   2  11
BRANCH   5  13
HETATM   13  O   UNK N   1      20.566  21.350   0.038  0.00  0.00    -0.368 OA
HETATM   14  H   UNK N   1      20.642  21.463  -0.922  0.00  0.00     0.212 HD
ENDBRANCH   5  13
BRANCH   4  15
HETATM   15  O   UNK N   1      21.517  21.760   2.728  0.00  0.00    -0.388 OA
HETATM   16  H   UNK N   1      21.230  22.254   3.512  0.00  0.00     0.210 HD
ENDBRANCH   4  15
TORSDOF 5
ENDMDL
MODEL 3
REMARK VINA RESULT:      -5.4     13.492     15.161
REMARK  5 active torsions:
REMARK  status: ('A' for Active; 'I' for Inactive)
REMARK    1  A    between atoms: C_2  and  O_7 
REMARK    2  A    between atoms: C_5  and  C_3 
REMARK    3  A    between atoms: C_4  and  O_8 
REMARK    4  A    between atoms: O_10  and  C_5 
REMARK    5  A    between atoms: C_6  and  O_11 
ROOT
HETATM    1  C   UNK N   1      22.283  19.370   3.718  0.00  0.00     0.051 C 
HETATM    2  C   UNK N   1      20.807  19.108   3.634  0.00  0.00     0.177 C 
HETATM    3  C   UNK N   1      22.889  20.174   2.824  0.00  0.00     0.144 C 
HETATM    4  C   UNK N   1      20.358  19.188   2.174  0.00  0.00     0.206 C 
HETATM    5  C   UNK N   1      20.828  20.518   1.560  0.00  0.00     0.295 C 
HETATM    6  O   UNK N   1      22.178  20.744   1.805  0.00  0.00    -0.311 OA
ENDROOT
BRANCH   3   7
HETATM    7  C   UNK N   1      24.330  20.470   2.945  0.00  0.00     0.200 C 
HETATM    8  O   UNK N   1      24.886  20.420   4.035  0.00  0.00    -0.645 OA
BRANCH   7   9
HETATM    9  O   UNK N   1      25.038  20.815   1.855  0.00  0.00    -0.771 OA
HETATM   10  H   UNK N   1      24.675  20.688   1.000  0.00  0.00     0.167 HD
ENDBRANCH   7   9
ENDBRANCH   3   7
BRANCH   2  11
HETATM   11  O   UNK N   1      20.523  17.843   4.154  0.00  0.00    -0.389 OA
HETATM   12  H   UNK N   1      19.654  17.460   4.352  0.00  0.00     0.210 HD
ENDBRANCH   2  11
BRANCH   5  13
HETATM   13  O   UNK N   1      20.611  20.488   0.180  0.00  0.00    -0.368 OA
HETATM   14  H   UNK N   1      20.115  21.135  -0.344  0.00  0.00     0.212 HD
ENDBRANCH   5  13
BRANCH   4  15
HETATM   15  O   UNK N   1      18.968  19.075   2.081  0.00  0.00    -0.388 OA
HETATM   16  H   UNK N   1      18.379  19.431   2.764  0.00  0.00     0.210 HD
ENDBRANCH   4  15
TORSDOF 5
ENDMDL
MODEL 4
REMARK VINA RESULT:      -5.3     14.196     15.940
REMARK  5 active torsions:
REMARK  status: ('A' for Active; 'I' for Inactive)
REMARK    1  A    between atoms: C_2  and  O_7 
REMARK    2  A    between atoms: C_5  and  C_3 
REMARK    3  A    between atoms: C_4  and  O_8 
REMARK    4  A    between atoms: O_10  and  C_5 
REMARK    5  A    between atoms: C_6  and  O_11 
ROOT
HETATM    1  C   UNK N   1      20.514  18.081   2.705  0.00  0.00     0.051 C 
HETATM    2  C   UNK N   1      20.184  18.816   1.438  0.00  0.00     0.177 C 
HETATM    3  C   UNK N   1      20.947  18.747   3.792  0.00  0.00     0.144 C 
HETATM    4  C   UNK N   1      21.059  20.067   1.334  0.00  0.00     0.206 C 
HETATM    5  C   UNK N   1      20.938  20.892   2.626  0.00  0.00     0.295 C 
HETATM    6  O   UNK N   1      21.122  20.102   3.756  0.00  0.00    -0.311 OA
ENDROOT
BRANCH   3   7
HETATM    7  C   UNK N   1      21.217  18.023   5.050  0.00  0.00     0.200 C 
HETATM    8  O   UNK N   1      21.298  18.628   6.111  0.00  0.00    -0.645 OA
BRANCH   7   9
HETATM    9  O   UNK N   1      21.395  16.690   5.032  0.00  0.00    -0.771 OA
HETATM   10  H   UNK N   1      20.670  16.122   4.860  0.00  0.00     0.167 HD
ENDBRANCH   7   9
ENDBRANCH   3   7
BRANCH   2  11
HETATM   11  O   UNK N   1      20.406  17.983   0.339  0.00  0.00    -0.389 OA
HETATM   12  H   UNK N   1      20.235  18.172  -0.597  0.00  0.00     0.210 HD
ENDBRANCH   2  11
BRANCH   5  13
HETATM   13  O   UNK N   1      21.899  21.906   2.614  0.00  0.00    -0.368 OA
HETATM   14  H   UNK N   1      22.772  21.875   2.193  0.00  0.00     0.212 HD
ENDBRANCH   5  13
BRANCH   4  15
HETATM   15  O   UNK N   1      20.683  20.837   0.229  0.00  0.00    -0.388 OA
HETATM   16  H   UNK N   1      20.592  20.452  -0.656  0.00  0.00     0.210 HD
ENDBRANCH   4  15
TORSDOF 5
ENDMDL
MODEL 5
REMARK VINA RESULT:      -5.2      0.961      2.580
REMARK  5 active torsions:
REMARK  status: ('A' for Active; 'I' for Inactive)
REMARK    1  A    between atoms: C_2  and  O_7 
REMARK    2  A    between atoms: C_5  and  C_3 
REMARK    3  A    between atoms: C_4  and  O_8 
REMARK    4  A    between atoms: O_10  and  C_5 
REMARK    5  A    between atoms: C_6  and  O_11 
ROOT
HETATM    1  C   UNK N   1      35.392  16.937  10.212  0.00  0.00     0.051 C 
HETATM    2  C   UNK N   1      35.200  15.925  11.304  0.00  0.00     0.177 C 
HETATM    3  C   UNK N   1      34.510  17.030   9.199  0.00  0.00     0.144 C 
HETATM    4  C   UNK N   1      34.471  14.702  10.741  0.00  0.00     0.206 C 
HETATM    5  C   UNK N   1      33.187  15.149  10.022  0.00  0.00     0.295 C 
HETATM    6  O   UNK N   1      33.437  16.186   9.129  0.00  0.00    -0.311 OA
ENDROOT
BRANCH   3   7
HETATM    7  C   UNK N   1      34.677  18.064   8.159  0.00  0.00     0.200 C 
HETATM    8  O   UNK N   1      34.410  17.819   6.990  0.00  0.00    -0.645 OA
BRANCH   7   9
HETATM    9  O   UNK N   1      35.143  19.281   8.492  0.00  0.00    -0.771 OA
HETATM   10  H   UNK N   1      35.248  19.940   7.834  0.00  0.00     0.167 HD
ENDBRANCH   7   9
ENDBRANCH   3   7
BRANCH   2  11
HETATM   11  O   UNK N   1      36.441  15.547  11.820  0.00  0.00    -0.389 OA
HETATM   12  H   UNK N   1      37.270  16.050  11.807  0.00  0.00     0.210 HD
ENDBRANCH   2  11
BRANCH   5  13
HETATM   13  O   UNK N   1      32.649  14.064   9.327  0.00  0.00    -0.368 OA
HETATM   14  H   UNK N   1      31.790  13.642   9.483  0.00  0.00     0.212 HD
ENDBRANCH   5  13
BRANCH   4  15
HETATM   15  O   UNK N   1      34.166  13.800  11.764  0.00  0.00    -0.388 OA
HETATM   16  H   UNK N   1      34.808  13.142  12.075  0.00  0.00     0.210 HD
ENDBRANCH   4  15
TORSDOF 5
ENDMDL
MODEL 6
REMARK VINA RESULT:      -5.0     13.784     15.796
REMARK  5 active torsions:
REMARK  status: ('A' for Active; 'I' for Inactive)
REMARK    1  A    between atoms: C_2  and  O_7 
REMARK    2  A    between atoms: C_5  and  C_3 
REMARK    3  A    between atoms: C_4  and  O_8 
REMARK    4  A    between atoms: O_10  and  C_5 
REMARK    5  A    between atoms: C_6  and  O_11 
ROOT
HETATM    1  C   UNK N   1      22.000  19.415   4.106  0.00  0.00     0.051 C 
HETATM    2  C   UNK N   1      21.859  19.953   2.711  0.00  0.00     0.177 C 
HETATM    3  C   UNK N   1      21.125  18.510   4.585  0.00  0.00     0.144 C 
HETATM    4  C   UNK N   1      20.381  19.957   2.315  0.00  0.00     0.206 C 
HETATM    5  C   UNK N   1      19.777  18.563   2.549  0.00  0.00     0.295 C 
HETATM    6  O   UNK N   1      20.074  18.084   3.820  0.00  0.00    -0.311 OA
ENDROOT
BRANCH   3   7
HETATM    7  C   UNK N   1      21.301  17.947   5.938  0.00  0.00     0.200 C 
HETATM    8  O   UNK N   1      21.683  16.794   6.086  0.00  0.00    -0.645 OA
BRANCH   7   9
HETATM    9  O   UNK N   1      21.023  18.698   7.018  0.00  0.00    -0.771 OA
HETATM   10  H   UNK N   1      21.163  19.625   6.995  0.00  0.00     0.167 HD
ENDBRANCH   7   9
ENDBRANCH   3   7
BRANCH   2  11
HETATM   11  O   UNK N   1      22.376  21.248   2.652  0.00  0.00    -0.389 OA
HETATM   12  H   UNK N   1      23.094  21.629   3.181  0.00  0.00     0.210 HD
ENDBRANCH   2  11
BRANCH   5  13
HETATM   13  O   UNK N   1      18.391  18.632   2.397  0.00  0.00    -0.368 OA
HETATM   14  H   UNK N   1      17.722  18.222   2.967  0.00  0.00     0.212 HD
ENDBRANCH   5  13
BRANCH   4  15
HETATM   15  O   UNK N   1      20.235  20.332   0.976  0.00  0.00    -0.388 OA
HETATM   16  H   UNK N   1      19.593  19.902   0.391  0.00  0.00     0.210 HD
ENDBRANCH   4  15
TORSDOF 5
ENDMDL
MODEL 7
REMARK VINA RESULT:      -5.0      1.364      4.180
REMARK  5 active torsions:
REMARK  status: ('A' for Active; 'I' for Inactive)
REMARK    1  A    between atoms: C_2  and  O_7 
REMARK    2  A    between atoms: C_5  and  C_3 
REMARK    3  A    between atoms: C_4  and  O_8 
REMARK    4  A    between atoms: O_10  and  C_5 
REMARK    5  A    between atoms: C_6  and  O_11 
ROOT
HETATM    1  C   UNK N   1      34.074  15.292   8.716  0.00  0.00     0.051 C 
HETATM    2  C   UNK N   1      33.720  15.933   7.405  0.00  0.00     0.177 C 
HETATM    3  C   UNK N   1      34.465  16.044   9.764  0.00  0.00     0.144 C 
HETATM    4  C   UNK N   1      34.533  17.218   7.231  0.00  0.00     0.206 C 
HETATM    5  C   UNK N   1      34.361  18.112   8.470  0.00  0.00     0.295 C 
HETATM    6  O   UNK N   1      34.573  17.402   9.646  0.00  0.00    -0.311 OA
ENDROOT
BRANCH   3   7
HETATM    7  C   UNK N   1      34.759  15.412  11.065  0.00  0.00     0.200 C 
HETATM    8  O   UNK N   1      35.784  15.688  11.673  0.00  0.00    -0.645 OA
BRANCH   7   9
HETATM    9  O   UNK N   1      33.905  14.509  11.580  0.00  0.00    -0.771 OA
HETATM   10  H   UNK N   1      33.999  13.601  11.371  0.00  0.00     0.167 HD
ENDBRANCH   7   9
ENDBRANCH   3   7
BRANCH   2  11
HETATM   11  O   UNK N   1      33.992  15.048   6.360  0.00  0.00    -0.389 OA
HETATM   12  H   UNK N   1      33.965  14.078   6.377  0.00  0.00     0.210 HD
ENDBRANCH   2  11
BRANCH   5  13
HETATM   13  O   UNK N   1      35.270  19.170   8.402  0.00  0.00    -0.368 OA
HETATM   14  H   UNK N   1      36.200  19.120   8.132  0.00  0.00     0.212 HD
ENDBRANCH   5  13
BRANCH   4  15
HETATM   15  O   UNK N   1      34.129  17.899   6.079  0.00  0.00    -0.388 OA
HETATM   16  H   UNK N   1      33.354  17.624   5.566  0.00  0.00     0.210 HD
ENDBRANCH   4  15
TORSDOF 5
ENDMDL
MODEL 8
REMARK VINA RESULT:      -4.9     10.203     12.737
REMARK  5 active torsions:
REMARK  status: ('A' for Active; 'I' for Inactive)
REMARK    1  A    between atoms: C_2  and  O_7 
REMARK    2  A    between atoms: C_5  and  C_3 
REMARK    3  A    between atoms: C_4  and  O_8 
REMARK    4  A    between atoms: O_10  and  C_5 
REMARK    5  A    between atoms: C_6  and  O_11 
ROOT
HETATM    1  C   UNK N   1      43.701  20.884   3.664  0.00  0.00     0.051 C 
HETATM    2  C   UNK N   1      44.575  22.071   3.382  0.00  0.00     0.177 C 
HETATM    3  C   UNK N   1      42.455  20.813   3.157  0.00  0.00     0.144 C 
HETATM    4  C   UNK N   1      43.701  23.312   3.188  0.00  0.00     0.206 C 
HETATM    5  C   UNK N   1      42.619  23.024   2.133  0.00  0.00     0.295 C 
HETATM    6  O   UNK N   1      41.952  21.833   2.399  0.00  0.00    -0.311 OA
ENDROOT
BRANCH   3   7
HETATM    7  C   UNK N   1      41.622  19.618   3.394  0.00  0.00     0.200 C 
HETATM    8  O   UNK N   1      41.956  18.528   2.950  0.00  0.00    -0.645 OA
BRANCH   7   9
HETATM    9  O   UNK N   1      40.474  19.728   4.087  0.00  0.00    -0.771 OA
HETATM   10  H   UNK N   1      39.763  19.142   3.914  0.00  0.00     0.167 HD
ENDBRANCH   7   9
ENDBRANCH   3   7
BRANCH   2  11
HETATM   11  O   UNK N   1      45.458  22.269   4.446  0.00  0.00    -0.389 OA
HETATM   12  H   UNK N   1      46.059  23.016   4.592  0.00  0.00     0.210 HD
ENDBRANCH   2  11
BRANCH   5  13
HETATM   13  O   UNK N   1      41.698  24.074   2.122  0.00  0.00    -0.368 OA
HETATM   14  H   UNK N   1      41.213  24.413   1.355  0.00  0.00     0.212 HD
ENDBRANCH   5  13
BRANCH   4  15
HETATM   15  O   UNK N   1      44.481  24.404   2.798  0.00  0.00    -0.388 OA
HETATM   16  H   UNK N   1      45.159  24.783   3.379  0.00  0.00     0.210 HD
ENDBRANCH   4  15
TORSDOF 5
ENDMDL
MODEL 9
REMARK VINA RESULT:      -4.8     14.478     16.252
REMARK  5 active torsions:
REMARK  status: ('A' for Active; 'I' for Inactive)
REMARK    1  A    between atoms: C_2  and  O_7 
REMARK    2  A    between atoms: C_5  and  C_3 
REMARK    3  A    between atoms: C_4  and  O_8 
REMARK    4  A    between atoms: O_10  and  C_5 
REMARK    5  A    between atoms: C_6  and  O_11 
ROOT
HETATM    1  C   UNK N   1      20.300  18.767   0.927  0.00  0.00     0.051 C 
HETATM    2  C   UNK N   1      20.525  20.221   1.229  0.00  0.00     0.177 C 
HETATM    3  C   UNK N   1      20.521  17.829   1.868  0.00  0.00     0.144 C 
HETATM    4  C   UNK N   1      21.634  20.357   2.274  0.00  0.00     0.206 C 
HETATM    5  C   UNK N   1      21.313  19.473   3.490  0.00  0.00     0.295 C 
HETATM    6  O   UNK N   1      20.982  18.178   3.107  0.00  0.00    -0.311 OA
ENDROOT
BRANCH   3   7
HETATM    7  C   UNK N   1      20.247  16.407   1.580  0.00  0.00     0.200 C 
HETATM    8  O   UNK N   1      20.695  15.879   0.571  0.00  0.00    -0.645 OA
BRANCH   7   9
HETATM    9  O   UNK N   1      19.483  15.688   2.421  0.00  0.00    -0.771 OA
HETATM   10  H   UNK N   1      18.554  15.656   2.301  0.00  0.00     0.167 HD
ENDBRANCH   7   9
ENDBRANCH   3   7
BRANCH   2  11
HETATM   11  O   UNK N   1      20.882  20.895   0.060  0.00  0.00    -0.389 OA
HETATM   12  H   UNK N   1      21.724  21.330  -0.145  0.00  0.00     0.210 HD
ENDBRANCH   2  11
BRANCH   5  13
HETATM   13  O   UNK N   1      22.425  19.431   4.334  0.00  0.00    -0.368 OA
HETATM   14  H   UNK N   1      22.737  18.670   4.847  0.00  0.00     0.212 HD
ENDBRANCH   5  13
BRANCH   4  15
HETATM   15  O   UNK N   1      21.775  21.691   2.667  0.00  0.00    -0.388 OA
HETATM   16  H   UNK N   1      22.304  22.323   2.155  0.00  0.00     0.210 HD
ENDBRANCH   4  15
TORSDOF 5
ENDMDL
