MODEL 1
REMARK VINA RESULT:      -5.7      0.000      0.000
REMARK  8 active torsions:
REMARK  status: ('A' for Active; 'I' for Inactive)
REMARK       I    between atoms: N_1  and  C_2 
REMARK    1  A    between atoms: N_7  and  C_8 
REMARK    2  A    between atoms: C_8  and  C_9 
REMARK    3  A    between atoms: C_9  and  N_10 
REMARK    4  A    between atoms: N_10  and  C_11 
REMARK    5  A    between atoms: C_11  and  C_12 
REMARK    6  A    between atoms: C_11  and  C_14 
REMARK    7  A    between atoms: C_12  and  O_13 
REMARK    8  A    between atoms: C_14  and  O_15 
ROOT
HETATM    1  N   UNK N   1      22.896  11.456  13.121  0.00  0.00    -0.234 N 
HETATM    2  C   UNK N   1      22.925  11.995  11.821  0.00  0.00     0.680 A 
HETATM    3  N   UNK N   1      24.118  12.387  11.273  0.00  0.00    -0.174 N 
ATOM      4  HN  UNK N   1      24.989  12.295  11.795  1.00  0.00     0.186 HD
HETATM    5  C   UNK N   1      24.109  12.900  10.020  0.00  0.00     0.154 A 
HETATM    6  C   UNK N   1      22.978  13.036   9.301  0.00  0.00     0.149 A 
HETATM    7  N   UNK N   1      23.287  13.564   8.111  0.00  0.00    -0.334 N 
HETATM    8  C   UNK N   1      24.634  13.741   8.129  0.00  0.00     0.185 A 
HETATM    9  N   UNK N   1      25.169  13.335   9.314  0.00  0.00    -0.336 N 
ATOM     10  HN  UNK N   1      26.147  13.355   9.601  1.00  0.00     0.168 HD
HETATM   11  C   UNK N   1      21.758  12.645   9.835  0.00  0.00     0.290 A 
HETATM   12  O   UNK N   1      20.721  12.757   9.209  0.00  0.00    -0.265 OA
HETATM   13  N   UNK N   1      21.756  12.122  11.110  0.00  0.00    -0.154 N 
HETATM   14  H   UNK N   1      23.707  11.459  13.680  0.00  0.00     0.174 HD
HETATM   15  H   UNK N   1      22.060  11.075  13.474  0.00  0.00     0.174 HD
HETATM   16  H   UNK N   1      20.907  11.837  11.516  0.00  0.00     0.187 HD
ENDROOT
BRANCH   7  17
HETATM   17  C   UNK N   1      22.381  13.853   7.013  0.00  0.00     0.149 C 
BRANCH  17  18
HETATM   18  C   UNK N   1      21.909  15.293   7.057  0.00  0.00     0.134 C 
BRANCH  18  19
HETATM   19  N   UNK N   1      20.504  15.283   7.432  0.00  0.00    -0.411 N 
HETATM   20  H   UNK N   1      19.983  14.432   7.651  0.00  0.00     0.153 HD
BRANCH  19  21
HETATM   21  C   UNK N   1      19.914  16.629   7.463  0.00  0.00     0.123 C 
BRANCH  21  22
HETATM   22  C   UNK N   1      20.855  17.580   6.746  0.00  0.00     0.191 C 
BRANCH  22  23
HETATM   23  O   UNK N   1      20.895  18.809   7.402  0.00  0.00    -0.399 OA
HETATM   24  H   UNK N   1      21.434  19.581   7.167  0.00  0.00     0.209 HD
ENDBRANCH  22  23
ENDBRANCH  21  22
BRANCH  21  25
HETATM   25  C   UNK N   1      19.703  17.181   8.874  0.00  0.00     0.191 C 
BRANCH  25  26
HETATM   26  O   UNK N   1      18.493  17.874   8.940  0.00  0.00    -0.399 OA
HETATM   27  H   UNK N   1      18.220  18.804   8.968  0.00  0.00     0.209 HD
ENDBRANCH  25  26
ENDBRANCH  21  25
ENDBRANCH  19  21
ENDBRANCH  18  19
ENDBRANCH  17  18
ENDBRANCH   7  17
TORSDOF 8
ENDMDL
MODEL 2
REMARK VINA RESULT:      -5.7      9.598     11.362
REMARK  8 active torsions:
REMARK  status: ('A' for Active; 'I' for Inactive)
REMARK       I    between atoms: N_1  and  C_2 
REMARK    1  A    between atoms: N_7  and  C_8 
REMARK    2  A    between atoms: C_8  and  C_9 
REMARK    3  A    between atoms: C_9  and  N_10 
REMARK    4  A    between atoms: N_10  and  C_11 
REMARK    5  A    between atoms: C_11  and  C_12 
REMARK    6  A    between atoms: C_11  and  C_14 
REMARK    7  A    between atoms: C_12  and  O_13 
REMARK    8  A    between atoms: C_14  and  O_15 
ROOT
HETATM    1  N   UNK N   1      36.673  14.199  13.259  0.00  0.00    -0.234 N 
HETATM    2  C   UNK N   1      35.906  14.733  12.206  0.00  0.00     0.680 A 
HETATM    3  N   UNK N   1      34.893  13.992  11.657  0.00  0.00    -0.174 N 
ATOM      4  HN  UNK N   1      34.685  13.055  12.001  1.00  0.00     0.186 HD
HETATM    5  C   UNK N   1      34.175  14.537  10.646  0.00  0.00     0.154 A 
HETATM    6  C   UNK N   1      34.421  15.772  10.168  0.00  0.00     0.149 A 
HETATM    7  N   UNK N   1      33.553  16.030   9.183  0.00  0.00    -0.334 N 
HETATM    8  C   UNK N   1      32.775  14.921   9.082  0.00  0.00     0.185 A 
HETATM    9  N   UNK N   1      33.148  13.973   9.985  0.00  0.00    -0.336 N 
ATOM     10  HN  UNK N   1      32.742  13.049  10.129  1.00  0.00     0.168 HD
HETATM   11  C   UNK N   1      35.441  16.541  10.708  0.00  0.00     0.290 A 
HETATM   12  O   UNK N   1      35.686  17.660  10.296  0.00  0.00    -0.265 OA
HETATM   13  N   UNK N   1      36.178  15.996  11.737  0.00  0.00    -0.154 N 
HETATM   14  H   UNK N   1      36.560  13.259  13.531  0.00  0.00     0.174 HD
HETATM   15  H   UNK N   1      37.326  14.768  13.725  0.00  0.00     0.174 HD
HETATM   16  H   UNK N   1      36.909  16.517  12.140  0.00  0.00     0.187 HD
ENDROOT
BRANCH   7  17
HETATM   17  C   UNK N   1      33.437  17.254   8.409  0.00  0.00     0.149 C 
BRANCH  17  18
HETATM   18  C   UNK N   1      32.021  17.452   7.907  0.00  0.00     0.134 C 
BRANCH  18  19
HETATM   19  N   UNK N   1      31.207  17.864   9.041  0.00  0.00    -0.411 N 
HETATM   20  H   UNK N   1      31.528  17.827  10.009  0.00  0.00     0.153 HD
BRANCH  19  21
HETATM   21  C   UNK N   1      29.875  18.339   8.641  0.00  0.00     0.123 C 
BRANCH  21  22
HETATM   22  C   UNK N   1      28.915  18.095   9.790  0.00  0.00     0.191 C 
BRANCH  22  23
HETATM   23  O   UNK N   1      27.601  18.050   9.325  0.00  0.00    -0.399 OA
HETATM   24  H   UNK N   1      27.275  17.585   8.538  0.00  0.00     0.209 HD
ENDBRANCH  22  23
ENDBRANCH  21  22
BRANCH  21  25
HETATM   25  C   UNK N   1      29.303  17.622   7.415  0.00  0.00     0.191 C 
BRANCH  25  26
HETATM   26  O   UNK N   1      28.538  18.509   6.657  0.00  0.00    -0.399 OA
HETATM   27  H   UNK N   1      28.649  18.994   5.824  0.00  0.00     0.209 HD
ENDBRANCH  25  26
ENDBRANCH  21  25
ENDBRANCH  19  21
ENDBRANCH  18  19
ENDBRANCH  17  18
ENDBRANCH   7  17
TORSDOF 8
ENDMDL
MODEL 3
REMARK VINA RESULT:      -5.5      9.360     11.781
REMARK  8 active torsions:
REMARK  status: ('A' for Active; 'I' for Inactive)
REMARK       I    between atoms: N_1  and  C_2 
REMARK    1  A    between atoms: N_7  and  C_8 
REMARK    2  A    between atoms: C_8  and  C_9 
REMARK    3  A    between atoms: C_9  and  N_10 
REMARK    4  A    between atoms: N_10  and  C_11 
REMARK    5  A    between atoms: C_11  and  C_12 
REMARK    6  A    between atoms: C_11  and  C_14 
REMARK    7  A    between atoms: C_12  and  O_13 
REMARK    8  A    between atoms: C_14  and  O_15 
ROOT
HETATM    1  N   UNK N   1      28.389  18.549   9.347  0.00  0.00    -0.234 N 
HETATM    2  C   UNK N   1      29.445  17.951   8.633  0.00  0.00     0.680 A 
HETATM    3  N   UNK N   1      29.171  17.147   7.558  0.00  0.00    -0.174 N 
ATOM      4  HN  UNK N   1      28.210  16.975   7.265  1.00  0.00     0.186 HD
HETATM    5  C   UNK N   1      30.210  16.589   6.894  0.00  0.00     0.154 A 
HETATM    6  C   UNK N   1      31.493  16.795   7.251  0.00  0.00     0.149 A 
HETATM    7  N   UNK N   1      32.286  16.120   6.412  0.00  0.00    -0.334 N 
HETATM    8  C   UNK N   1      31.450  15.503   5.536  0.00  0.00     0.185 A 
HETATM    9  N   UNK N   1      30.147  15.780   5.821  0.00  0.00    -0.336 N 
ATOM     10  HN  UNK N   1      29.314  15.452   5.332  1.00  0.00     0.168 HD
HETATM   11  C   UNK N   1      31.795  17.605   8.337  0.00  0.00     0.290 A 
HETATM   12  O   UNK N   1      32.944  17.809   8.683  0.00  0.00    -0.265 OA
HETATM   13  N   UNK N   1      30.744  18.178   9.020  0.00  0.00    -0.154 N 
HETATM   14  H   UNK N   1      27.455  18.309   9.149  0.00  0.00     0.174 HD
HETATM   15  H   UNK N   1      28.587  19.210  10.048  0.00  0.00     0.174 HD
HETATM   16  H   UNK N   1      30.927  18.757   9.794  0.00  0.00     0.187 HD
ENDROOT
BRANCH   7  17
HETATM   17  C   UNK N   1      33.738  16.083   6.409  0.00  0.00     0.149 C 
BRANCH  17  18
HETATM   18  C   UNK N   1      34.260  15.001   7.332  0.00  0.00     0.134 C 
BRANCH  18  19
HETATM   19  N   UNK N   1      35.150  15.635   8.293  0.00  0.00    -0.411 N 
HETATM   20  H   UNK N   1      35.772  16.411   8.060  0.00  0.00     0.153 HD
BRANCH  19  21
HETATM   21  C   UNK N   1      35.057  15.039   9.633  0.00  0.00     0.123 C 
BRANCH  21  22
HETATM   22  C   UNK N   1      33.615  14.633   9.877  0.00  0.00     0.191 C 
BRANCH  22  23
HETATM   23  O   UNK N   1      33.218  15.001  11.162  0.00  0.00    -0.399 OA
HETATM   24  H   UNK N   1      33.416  15.833  11.620  0.00  0.00     0.209 HD
ENDBRANCH  22  23
ENDBRANCH  21  22
BRANCH  21  25
HETATM   25  C   UNK N   1      35.455  15.990  10.763  0.00  0.00     0.191 C 
BRANCH  25  26
HETATM   26  O   UNK N   1      34.917  17.258  10.533  0.00  0.00    -0.399 OA
HETATM   27  H   UNK N   1      35.252  18.167  10.512  0.00  0.00     0.209 HD
ENDBRANCH  25  26
ENDBRANCH  21  25
ENDBRANCH  19  21
ENDBRANCH  18  19
ENDBRANCH  17  18
ENDBRANCH   7  17
TORSDOF 8
ENDMDL
MODEL 4
REMARK VINA RESULT:      -5.4      5.221      8.678
REMARK  8 active torsions:
REMARK  status: ('A' for Active; 'I' for Inactive)
REMARK       I    between atoms: N_1  and  C_2 
REMARK    1  A    between atoms: N_7  and  C_8 
REMARK    2  A    between atoms: C_8  and  C_9 
REMARK    3  A    between atoms: C_9  and  N_10 
REMARK    4  A    between atoms: N_10  and  C_11 
REMARK    5  A    between atoms: C_11  and  C_12 
REMARK    6  A    between atoms: C_11  and  C_14 
REMARK    7  A    between atoms: C_12  and  O_13 
REMARK    8  A    between atoms: C_14  and  O_15 
ROOT
HETATM    1  N   UNK N   1      20.550  20.959   0.432  0.00  0.00    -0.234 N 
HETATM    2  C   UNK N   1      20.516  19.980   1.444  0.00  0.00     0.680 A 
HETATM    3  N   UNK N   1      20.162  18.693   1.135  0.00  0.00    -0.174 N 
ATOM      4  HN  UNK N   1      19.922  18.432   0.179  1.00  0.00     0.186 HD
HETATM    5  C   UNK N   1      20.141  17.777   2.131  0.00  0.00     0.154 A 
HETATM    6  C   UNK N   1      20.454  18.086   3.405  0.00  0.00     0.149 A 
HETATM    7  N   UNK N   1      20.346  16.982   4.153  0.00  0.00    -0.334 N 
HETATM    8  C   UNK N   1      19.963  15.998   3.298  0.00  0.00     0.185 A 
HETATM    9  N   UNK N   1      19.826  16.474   2.028  0.00  0.00    -0.336 N 
ATOM     10  HN  UNK N   1      19.550  15.960   1.192  1.00  0.00     0.168 HD
HETATM   11  C   UNK N   1      20.816  19.383   3.742  0.00  0.00     0.290 A 
HETATM   12  O   UNK N   1      21.102  19.691   4.884  0.00  0.00    -0.265 OA
HETATM   13  N   UNK N   1      20.840  20.323   2.735  0.00  0.00    -0.154 N 
HETATM   14  H   UNK N   1      20.218  20.753  -0.472  0.00  0.00     0.174 HD
HETATM   15  H   UNK N   1      20.907  21.854   0.631  0.00  0.00     0.174 HD
HETATM   16  H   UNK N   1      21.091  21.251   2.943  0.00  0.00     0.187 HD
ENDROOT
BRANCH   7  17
HETATM   17  C   UNK N   1      20.618  16.849   5.573  0.00  0.00     0.149 C 
BRANCH  17  18
HETATM   18  C   UNK N   1      21.963  16.194   5.814  0.00  0.00     0.134 C 
BRANCH  18  19
HETATM   19  N   UNK N   1      22.958  17.253   5.898  0.00  0.00    -0.411 N 
HETATM   20  H   UNK N   1      23.021  17.908   6.678  0.00  0.00     0.153 HD
BRANCH  19  21
HETATM   21  C   UNK N   1      23.863  17.276   4.740  0.00  0.00     0.123 C 
BRANCH  21  22
HETATM   22  C   UNK N   1      25.029  16.348   5.026  0.00  0.00     0.191 C 
BRANCH  22  23
HETATM   23  O   UNK N   1      25.377  16.405   6.375  0.00  0.00    -0.399 OA
HETATM   24  H   UNK N   1      24.793  16.613   7.121  0.00  0.00     0.209 HD
ENDBRANCH  22  23
ENDBRANCH  21  22
BRANCH  21  25
HETATM   25  C   UNK N   1      24.449  18.657   4.438  0.00  0.00     0.191 C 
BRANCH  25  26
HETATM   26  O   UNK N   1      25.219  19.095   5.517  0.00  0.00    -0.399 OA
HETATM   27  H   UNK N   1      26.017  19.634   5.634  0.00  0.00     0.209 HD
ENDBRANCH  25  26
ENDBRANCH  21  25
ENDBRANCH  19  21
ENDBRANCH  18  19
ENDBRANCH  17  18
ENDBRANCH   7  17
TORSDOF 8
ENDMDL
MODEL 5
REMARK VINA RESULT:      -5.4      4.303      8.431
REMARK  8 active torsions:
REMARK  status: ('A' for Active; 'I' for Inactive)
REMARK       I    between atoms: N_1  and  C_2 
REMARK    1  A    between atoms: N_7  and  C_8 
REMARK    2  A    between atoms: C_8  and  C_9 
REMARK    3  A    between atoms: C_9  and  N_10 
REMARK    4  A    between atoms: N_10  and  C_11 
REMARK    5  A    between atoms: C_11  and  C_12 
REMARK    6  A    between atoms: C_11  and  C_14 
REMARK    7  A    between atoms: C_12  and  O_13 
REMARK    8  A    between atoms: C_14  and  O_15 
ROOT
HETATM    1  N   UNK N   1      20.388  21.177   0.489  0.00  0.00    -0.234 N 
HETATM    2  C   UNK N   1      20.634  20.273   1.540  0.00  0.00     0.680 A 
HETATM    3  N   UNK N   1      19.731  19.279   1.808  0.00  0.00    -0.174 N 
ATOM      4  HN  UNK N   1      18.880  19.182   1.255  1.00  0.00     0.186 HD
HETATM    5  C   UNK N   1      19.998  18.427   2.826  0.00  0.00     0.154 A 
HETATM    6  C   UNK N   1      21.113  18.524   3.577  0.00  0.00     0.149 A 
HETATM    7  N   UNK N   1      21.098  17.549   4.493  0.00  0.00    -0.334 N 
HETATM    8  C   UNK N   1      19.948  16.859   4.274  0.00  0.00     0.185 A 
HETATM    9  N   UNK N   1      19.243  17.392   3.238  0.00  0.00    -0.336 N 
ATOM     10  HN  UNK N   1      18.350  17.079   2.860  1.00  0.00     0.168 HD
HETATM   11  C   UNK N   1      22.042  19.523   3.324  0.00  0.00     0.290 A 
HETATM   12  O   UNK N   1      23.057  19.635   3.986  0.00  0.00    -0.265 OA
HETATM   13  N   UNK N   1      21.779  20.395   2.291  0.00  0.00    -0.154 N 
HETATM   14  H   UNK N   1      19.525  21.168   0.015  0.00  0.00     0.174 HD
HETATM   15  H   UNK N   1      21.084  21.821   0.226  0.00  0.00     0.174 HD
HETATM   16  H   UNK N   1      22.418  21.115   2.088  0.00  0.00     0.187 HD
ENDROOT
BRANCH   7  17
HETATM   17  C   UNK N   1      22.115  17.261   5.489  0.00  0.00     0.149 C 
BRANCH  17  18
HETATM   18  C   UNK N   1      21.510  16.609   6.716  0.00  0.00     0.134 C 
BRANCH  18  19
HETATM   19  N   UNK N   1      22.383  15.512   7.106  0.00  0.00    -0.411 N 
HETATM   20  H   UNK N   1      23.373  15.464   6.861  0.00  0.00     0.153 HD
BRANCH  19  21
HETATM   21  C   UNK N   1      21.687  14.483   7.891  0.00  0.00     0.123 C 
BRANCH  21  22
HETATM   22  C   UNK N   1      20.711  13.763   6.977  0.00  0.00     0.191 C 
BRANCH  22  23
HETATM   23  O   UNK N   1      20.739  12.391   7.222  0.00  0.00    -0.399 OA
HETATM   24  H   UNK N   1      21.166  11.708   6.681  0.00  0.00     0.209 HD
ENDBRANCH  22  23
ENDBRANCH  21  22
BRANCH  21  25
HETATM   25  C   UNK N   1      20.879  15.039   9.065  0.00  0.00     0.191 C 
BRANCH  25  26
HETATM   26  O   UNK N   1      19.715  14.289   9.242  0.00  0.00    -0.399 OA
HETATM   27  H   UNK N   1      18.815  14.459   9.558  0.00  0.00     0.209 HD
ENDBRANCH  25  26
ENDBRANCH  21  25
ENDBRANCH  19  21
ENDBRANCH  18  19
ENDBRANCH  17  18
ENDBRANCH   7  17
TORSDOF 8
ENDMDL
MODEL 6
REMARK VINA RESULT:      -5.4      8.607     11.238
REMARK  8 active torsions:
REMARK  status: ('A' for Active; 'I' for Inactive)
REMARK       I    between atoms: N_1  and  C_2 
REMARK    1  A    between atoms: N_7  and  C_8 
REMARK    2  A    between atoms: C_8  and  C_9 
REMARK    3  A    between atoms: C_9  and  N_10 
REMARK    4  A    between atoms: N_10  and  C_11 
REMARK    5  A    between atoms: C_11  and  C_12 
REMARK    6  A    between atoms: C_11  and  C_14 
REMARK    7  A    between atoms: C_12  and  O_13 
REMARK    8  A    between atoms: C_14  and  O_15 
ROOT
HETATM    1  N   UNK N   1      26.397  19.821   3.661  0.00  0.00    -0.234 N 
HETATM    2  C   UNK N   1      27.266  19.218   4.591  0.00  0.00     0.680 A 
HETATM    3  N   UNK N   1      26.984  19.285   5.930  0.00  0.00    -0.174 N 
ATOM      4  HN  UNK N   1      26.150  19.766   6.265  1.00  0.00     0.186 HD
HETATM    5  C   UNK N   1      27.841  18.694   6.795  0.00  0.00     0.154 A 
HETATM    6  C   UNK N   1      28.951  18.049   6.388  0.00  0.00     0.149 A 
HETATM    7  N   UNK N   1      29.588  17.572   7.464  0.00  0.00    -0.334 N 
HETATM    8  C   UNK N   1      28.832  17.942   8.530  0.00  0.00     0.185 A 
HETATM    9  N   UNK N   1      27.736  18.648   8.136  0.00  0.00    -0.336 N 
ATOM     10  HN  UNK N   1      27.003  19.048   8.721  1.00  0.00     0.168 HD
HETATM   11  C   UNK N   1      29.258  17.968   5.037  0.00  0.00     0.290 A 
HETATM   12  O   UNK N   1      30.254  17.392   4.641  0.00  0.00    -0.265 OA
HETATM   13  N   UNK N   1      28.392  18.566   4.148  0.00  0.00    -0.154 N 
HETATM   14  H   UNK N   1      25.648  20.380   3.970  0.00  0.00     0.174 HD
HETATM   15  H   UNK N   1      26.539  19.681   2.698  0.00  0.00     0.174 HD
HETATM   16  H   UNK N   1      28.583  18.527   3.183  0.00  0.00     0.187 HD
ENDROOT
BRANCH   7  17
HETATM   17  C   UNK N   1      30.810  16.787   7.488  0.00  0.00     0.149 C 
BRANCH  17  18
HETATM   18  C   UNK N   1      31.879  17.464   8.321  0.00  0.00     0.134 C 
BRANCH  18  19
HETATM   19  N   UNK N   1      32.319  16.512   9.330  0.00  0.00    -0.411 N 
HETATM   20  H   UNK N   1      31.758  16.249  10.141  0.00  0.00     0.153 HD
BRANCH  19  21
HETATM   21  C   UNK N   1      33.656  15.968   9.053  0.00  0.00     0.123 C 
BRANCH  21  22
HETATM   22  C   UNK N   1      33.880  14.767   9.953  0.00  0.00     0.191 C 
BRANCH  22  23
HETATM   23  O   UNK N   1      33.173  14.916  11.146  0.00  0.00    -0.399 OA
HETATM   24  H   UNK N   1      32.571  14.273  11.553  0.00  0.00     0.209 HD
ENDBRANCH  22  23
ENDBRANCH  21  22
BRANCH  21  25
HETATM   25  C   UNK N   1      34.794  16.954   9.325  0.00  0.00     0.191 C 
BRANCH  25  26
HETATM   26  O   UNK N   1      34.896  17.200  10.695  0.00  0.00    -0.399 OA
HETATM   27  H   UNK N   1      34.881  16.667  11.505  0.00  0.00     0.209 HD
ENDBRANCH  25  26
ENDBRANCH  21  25
ENDBRANCH  19  21
ENDBRANCH  18  19
ENDBRANCH  17  18
ENDBRANCH   7  17
TORSDOF 8
ENDMDL
MODEL 7
REMARK VINA RESULT:      -5.3     11.104     12.925
REMARK  8 active torsions:
REMARK  status: ('A' for Active; 'I' for Inactive)
REMARK       I    between atoms: N_1  and  C_2 
REMARK    1  A    between atoms: N_7  and  C_8 
REMARK    2  A    between atoms: C_8  and  C_9 
REMARK    3  A    between atoms: C_9  and  N_10 
REMARK    4  A    between atoms: N_10  and  C_11 
REMARK    5  A    between atoms: C_11  and  C_12 
REMARK    6  A    between atoms: C_11  and  C_14 
REMARK    7  A    between atoms: C_12  and  O_13 
REMARK    8  A    between atoms: C_14  and  O_15 
ROOT
HETATM    1  N   UNK N   1      36.931  14.156  14.820  0.00  0.00    -0.234 N 
HETATM    2  C   UNK N   1      36.400  14.124  13.517  0.00  0.00     0.680 A 
HETATM    3  N   UNK N   1      35.752  13.002  13.073  0.00  0.00    -0.174 N 
ATOM      4  HN  UNK N   1      35.648  12.185  13.675  1.00  0.00     0.186 HD
HETATM    5  C   UNK N   1      35.252  13.005  11.815  0.00  0.00     0.154 A 
HETATM    6  C   UNK N   1      35.370  14.066  10.992  0.00  0.00     0.149 A 
HETATM    7  N   UNK N   1      34.779  13.773   9.828  0.00  0.00    -0.334 N 
HETATM    8  C   UNK N   1      34.300  12.510   9.970  0.00  0.00     0.185 A 
HETATM    9  N   UNK N   1      34.587  12.009  11.204  0.00  0.00    -0.336 N 
ATOM     10  HN  UNK N   1      34.350  11.091  11.579  1.00  0.00     0.168 HD
HETATM   11  C   UNK N   1      36.021  15.214  11.420  0.00  0.00     0.290 A 
HETATM   12  O   UNK N   1      36.143  16.187  10.699  0.00  0.00    -0.265 OA
HETATM   13  N   UNK N   1      36.534  15.220  12.699  0.00  0.00    -0.154 N 
HETATM   14  H   UNK N   1      36.937  13.343  15.377  0.00  0.00     0.174 HD
HETATM   15  H   UNK N   1      37.299  14.996  15.177  0.00  0.00     0.174 HD
HETATM   16  H   UNK N   1      37.002  16.020  13.030  0.00  0.00     0.187 HD
ENDROOT
BRANCH   7  17
HETATM   17  C   UNK N   1      34.643  14.636   8.668  0.00  0.00     0.149 C 
BRANCH  17  18
HETATM   18  C   UNK N   1      33.251  15.230   8.588  0.00  0.00     0.134 C 
BRANCH  18  19
HETATM   19  N   UNK N   1      33.259  16.472   9.346  0.00  0.00    -0.411 N 
HETATM   20  H   UNK N   1      33.418  16.518  10.354  0.00  0.00     0.153 HD
BRANCH  19  21
HETATM   21  C   UNK N   1      33.015  17.653   8.505  0.00  0.00     0.123 C 
BRANCH  21  22
HETATM   22  C   UNK N   1      32.210  17.219   7.294  0.00  0.00     0.191 C 
BRANCH  22  23
HETATM   23  O   UNK N   1      30.863  17.535   7.469  0.00  0.00    -0.399 OA
HETATM   24  H   UNK N   1      30.153  16.935   7.748  0.00  0.00     0.209 HD
ENDBRANCH  22  23
ENDBRANCH  21  22
BRANCH  21  25
HETATM   25  C   UNK N   1      34.291  18.317   7.985  0.00  0.00     0.191 C 
BRANCH  25  26
HETATM   26  O   UNK N   1      34.464  18.024   6.631  0.00  0.00    -0.399 OA
HETATM   27  H   UNK N   1      35.195  17.728   6.067  0.00  0.00     0.209 HD
ENDBRANCH  25  26
ENDBRANCH  21  25
ENDBRANCH  19  21
ENDBRANCH  18  19
ENDBRANCH  17  18
ENDBRANCH   7  17
TORSDOF 8
ENDMDL
MODEL 8
REMARK VINA RESULT:      -5.3      2.017      2.312
REMARK  8 active torsions:
REMARK  status: ('A' for Active; 'I' for Inactive)
REMARK       I    between atoms: N_1  and  C_2 
REMARK    1  A    between atoms: N_7  and  C_8 
REMARK    2  A    between atoms: C_8  and  C_9 
REMARK    3  A    between atoms: C_9  and  N_10 
REMARK    4  A    between atoms: N_10  and  C_11 
REMARK    5  A    between atoms: C_11  and  C_12 
REMARK    6  A    between atoms: C_11  and  C_14 
REMARK    7  A    between atoms: C_12  and  O_13 
REMARK    8  A    between atoms: C_14  and  O_15 
ROOT
HETATM    1  N   UNK N   1      22.817  11.508  12.999  0.00  0.00    -0.234 N 
HETATM    2  C   UNK N   1      22.900  12.018  11.690  0.00  0.00     0.680 A 
HETATM    3  N   UNK N   1      24.108  12.439  11.199  0.00  0.00    -0.174 N 
ATOM      4  HN  UNK N   1      24.951  12.388  11.770  1.00  0.00     0.186 HD
HETATM    5  C   UNK N   1      24.153  12.922   9.935  0.00  0.00     0.154 A 
HETATM    6  C   UNK N   1      23.059  13.003   9.151  0.00  0.00     0.149 A 
HETATM    7  N   UNK N   1      23.417  13.514   7.968  0.00  0.00    -0.334 N 
HETATM    8  C   UNK N   1      24.754  13.737   8.055  0.00  0.00     0.185 A 
HETATM    9  N   UNK N   1      25.235  13.377   9.278  0.00  0.00    -0.336 N 
ATOM     10  HN  UNK N   1      26.194  13.437   9.617  1.00  0.00     0.168 HD
HETATM   11  C   UNK N   1      21.825  12.582   9.627  0.00  0.00     0.290 A 
HETATM   12  O   UNK N   1      20.821  12.644   8.942  0.00  0.00    -0.265 OA
HETATM   13  N   UNK N   1      21.769  12.089  10.912  0.00  0.00    -0.154 N 
HETATM   14  H   UNK N   1      23.594  11.552  13.602  0.00  0.00     0.174 HD
HETATM   15  H   UNK N   1      21.975  11.106  13.314  0.00  0.00     0.174 HD
HETATM   16  H   UNK N   1      20.908  11.784  11.278  0.00  0.00     0.187 HD
ENDROOT
BRANCH   7  17
HETATM   17  C   UNK N   1      22.565  13.746   6.815  0.00  0.00     0.149 C 
BRANCH  17  18
HETATM   18  C   UNK N   1      21.808  15.052   6.947  0.00  0.00     0.134 C 
BRANCH  18  19
HETATM   19  N   UNK N   1      20.391  14.756   6.798  0.00  0.00    -0.411 N 
HETATM   20  H   UNK N   1      19.785  14.491   7.575  0.00  0.00     0.153 HD
BRANCH  19  21
HETATM   21  C   UNK N   1      19.929  14.880   5.408  0.00  0.00     0.123 C 
BRANCH  21  22
HETATM   22  C   UNK N   1      18.860  15.957   5.354  0.00  0.00     0.191 C 
BRANCH  22  23
HETATM   23  O   UNK N   1      18.827  16.544   4.089  0.00  0.00    -0.399 OA
HETATM   24  H   UNK N   1      18.057  16.930   3.643  0.00  0.00     0.209 HD
ENDBRANCH  22  23
ENDBRANCH  21  22
BRANCH  21  25
HETATM   25  C   UNK N   1      19.309  13.600   4.845  0.00  0.00     0.191 C 
BRANCH  25  26
HETATM   26  O   UNK N   1      17.923  13.741   4.754  0.00  0.00    -0.399 OA
HETATM   27  H   UNK N   1      17.290  14.474   4.791  0.00  0.00     0.209 HD
ENDBRANCH  25  26
ENDBRANCH  21  25
ENDBRANCH  19  21
ENDBRANCH  18  19
ENDBRANCH  17  18
ENDBRANCH   7  17
TORSDOF 8
ENDMDL
MODEL 9
REMARK VINA RESULT:      -5.2     10.287     13.046
REMARK  8 active torsions:
REMARK  status: ('A' for Active; 'I' for Inactive)
REMARK       I    between atoms: N_1  and  C_2 
REMARK    1  A    between atoms: N_7  and  C_8 
REMARK    2  A    between atoms: C_8  and  C_9 
REMARK    3  A    between atoms: C_9  and  N_10 
REMARK    4  A    between atoms: N_10  and  C_11 
REMARK    5  A    between atoms: C_11  and  C_12 
REMARK    6  A    between atoms: C_11  and  C_14 
REMARK    7  A    between atoms: C_12  and  O_13 
REMARK    8  A    between atoms: C_14  and  O_15 
ROOT
HETATM    1  N   UNK N   1      31.763  17.173   2.323  0.00  0.00    -0.234 N 
HETATM    2  C   UNK N   1      31.902  17.199   3.724  0.00  0.00     0.680 A 
HETATM    3  N   UNK N   1      30.802  17.016   4.520  0.00  0.00    -0.174 N 
ATOM      4  HN  UNK N   1      29.881  16.860   4.113  1.00  0.00     0.186 HD
HETATM    5  C   UNK N   1      30.972  17.046   5.863  0.00  0.00     0.154 A 
HETATM    6  C   UNK N   1      32.174  17.248   6.437  0.00  0.00     0.149 A 
HETATM    7  N   UNK N   1      32.024  17.221   7.766  0.00  0.00    -0.334 N 
HETATM    8  C   UNK N   1      30.702  16.995   7.980  0.00  0.00     0.185 A 
HETATM    9  N   UNK N   1      30.024  16.885   6.804  0.00  0.00    -0.336 N 
ATOM     10  HN  UNK N   1      29.027  16.718   6.668  1.00  0.00     0.168 HD
HETATM   11  C   UNK N   1      33.302  17.435   5.651  0.00  0.00     0.290 A 
HETATM   12  O   UNK N   1      34.400  17.620   6.141  0.00  0.00    -0.265 OA
HETATM   13  N   UNK N   1      33.140  17.407   4.283  0.00  0.00    -0.154 N 
HETATM   14  H   UNK N   1      30.869  17.133   1.911  0.00  0.00     0.174 HD
HETATM   15  H   UNK N   1      32.564  17.195   1.752  0.00  0.00     0.174 HD
HETATM   16  H   UNK N   1      33.921  17.537   3.699  0.00  0.00     0.187 HD
ENDROOT
BRANCH   7  17
HETATM   17  C   UNK N   1      33.062  17.364   8.772  0.00  0.00     0.149 C 
BRANCH  17  18
HETATM   18  C   UNK N   1      33.601  16.013   9.198  0.00  0.00     0.134 C 
BRANCH  18  19
HETATM   19  N   UNK N   1      34.321  16.202  10.449  0.00  0.00    -0.411 N 
HETATM   20  H   UNK N   1      34.490  17.116  10.870  0.00  0.00     0.153 HD
BRANCH  19  21
HETATM   21  C   UNK N   1      34.777  14.935  11.039  0.00  0.00     0.123 C 
BRANCH  21  22
HETATM   22  C   UNK N   1      36.205  15.118  11.519  0.00  0.00     0.191 C 
BRANCH  22  23
HETATM   23  O   UNK N   1      36.808  16.184  10.853  0.00  0.00    -0.399 OA
HETATM   24  H   UNK N   1      36.450  17.078  10.733  0.00  0.00     0.209 HD
ENDBRANCH  22  23
ENDBRANCH  21  22
BRANCH  21  25
HETATM   25  C   UNK N   1      34.777  13.760  10.060  0.00  0.00     0.191 C 
BRANCH  25  26
HETATM   26  O   UNK N   1      33.893  12.773  10.499  0.00  0.00    -0.399 OA
HETATM   27  H   UNK N   1      33.137  12.294  10.126  0.00  0.00     0.209 HD
ENDBRANCH  25  26
ENDBRANCH  21  25
ENDBRANCH  19  21
ENDBRANCH  18  19
ENDBRANCH  17  18
ENDBRANCH   7  17
TORSDOF 8
ENDMDL
