REMARK  4 active torsions:
REMARK  status: ('A' for Active; 'I' for Inactive)
REMARK    1  A    between atoms: C_2  and  C_3 
REMARK    2  A    between atoms: C_3  and  C_4 
REMARK    3  A    between atoms: C_4  and  C_5 
REMARK    4  A    between atoms: C_5  and  O_6 
ROOT
HETATM    1  C   UNK N   1       1.897   1.547   0.000  0.00  0.00     0.110 C 
ENDROOT
BRANCH   1   2
HETATM    2  C   UNK N   1       0.676   0.640  -0.000  0.00  0.00     0.010 C 
BRANCH   2   3
HETATM    3  C   UNK N   1      -0.600   1.449   0.000  0.00  0.00    -0.004 C 
HETATM    4  C   UNK N   1      -1.773   0.492   0.000  0.00  0.00     0.005 C 
ENDBRANCH   2   3
ENDBRANCH   1   2
BRANCH   1   5
HETATM    5  C   UNK N   1       3.173   0.754   0.000  0.00  0.00     0.139 C 
HETATM    6  O   UNK N   1       3.152  -0.469  -0.000  0.00  0.00    -0.650 OA
BRANCH   5   7
HETATM    7  O   UNK N   1       4.354   1.397   0.000  0.00  0.00    -0.776 OA
HETATM    8  H   UNK N   1       5.153   0.908   0.000  0.00  0.00     0.167 HD
ENDBRANCH   5   7
ENDBRANCH   1   5
TORSDOF 4
