MODEL 1
REMARK VINA RESULT:      -5.3      0.000      0.000
REMARK  5 active torsions:
REMARK  status: ('A' for Active; 'I' for Inactive)
REMARK    1  A    between atoms: N_1  and  C_2 
REMARK    2  A    between atoms: C_2  and  C_3 
REMARK    3  A    between atoms: C_6  and  N_7 
REMARK       I    between atoms: N_7  and  C_8 
REMARK    4  A    between atoms: C_8  and  C_10 
REMARK    5  A    between atoms: C_10  and  O_11 
ROOT
HETATM    1  C   UNK N   1      26.968  26.274  -3.725  0.00  0.00    -0.041 A 
HETATM    2  C   UNK N   1      28.305  26.557  -4.004  0.00  0.00     0.011 A 
HETATM    3  C   UNK N   1      29.252  25.534  -4.016  0.00  0.00     0.030 A 
HETATM    4  C   UNK N   1      28.879  24.207  -3.748  0.00  0.00     0.035 A 
HETATM    5  C   UNK N   1      27.536  23.921  -3.468  0.00  0.00     0.030 A 
HETATM    6  C   UNK N   1      26.583  24.949  -3.456  0.00  0.00     0.011 A 
ENDROOT
BRANCH   4   7
HETATM    7  N   UNK N   1      29.833  23.143  -3.755  0.00  0.00    -0.318 N 
HETATM    8  C   UNK N   1      30.516  22.688  -2.664  0.00  0.00     0.319 C 
HETATM    9  O   UNK N   1      30.345  23.186  -1.561  0.00  0.00    -0.261 OA
HETATM   10  H   UNK N   1      30.012  22.703  -4.616  0.00  0.00     0.169 HD
BRANCH   8  11
HETATM   11  C   UNK N   1      31.476  21.579  -2.802  0.00  0.00     0.237 C 
HETATM   12  O   UNK N   1      32.537  21.601  -2.198  0.00  0.00    -0.643 OA
BRANCH  11  13
HETATM   13  O   UNK N   1      31.185  20.533  -3.600  0.00  0.00    -0.769 OA
HETATM   14  H   UNK N   1      31.802  20.251  -4.247  0.00  0.00     0.168 HD
ENDBRANCH  11  13
ENDBRANCH   8  11
ENDBRANCH   4   7
BRANCH   1  15
HETATM   15  C   UNK N   1      25.987  27.409  -3.724  0.00  0.00     0.150 C 
BRANCH  15  16
HETATM   16  N   UNK N   1      26.436  28.526  -2.909  0.00  0.00    -0.426 N 
HETATM   17  H   UNK N   1      25.898  29.392  -2.890  0.00  0.00     0.150 HD
HETATM   18  H   UNK N   1      27.289  28.444  -2.357  0.00  0.00     0.150 HD
ENDBRANCH  15  16
ENDBRANCH   1  15
TORSDOF 5
ENDMDL
MODEL 2
REMARK VINA RESULT:      -5.2     22.231     24.572
REMARK  5 active torsions:
REMARK  status: ('A' for Active; 'I' for Inactive)
REMARK    1  A    between atoms: N_1  and  C_2 
REMARK    2  A    between atoms: C_2  and  C_3 
REMARK    3  A    between atoms: C_6  and  N_7 
REMARK       I    between atoms: N_7  and  C_8 
REMARK    4  A    between atoms: C_8  and  C_10 
REMARK    5  A    between atoms: C_10  and  O_11 
ROOT
HETATM    1  C   UNK N   1      35.395  11.292  19.254  0.00  0.00    -0.041 A 
HETATM    2  C   UNK N   1      35.260  12.675  19.134  0.00  0.00     0.011 A 
HETATM    3  C   UNK N   1      35.120  13.261  17.876  0.00  0.00     0.030 A 
HETATM    4  C   UNK N   1      35.112  12.474  16.714  0.00  0.00     0.035 A 
HETATM    5  C   UNK N   1      35.247  11.084  16.833  0.00  0.00     0.030 A 
HETATM    6  C   UNK N   1      35.388  10.494  18.096  0.00  0.00     0.011 A 
ENDROOT
BRANCH   4   7
HETATM    7  N   UNK N   1      34.969  13.053  15.416  0.00  0.00    -0.318 N 
HETATM    8  C   UNK N   1      35.987  13.563  14.662  0.00  0.00     0.319 C 
HETATM    9  O   UNK N   1      37.139  13.555  15.072  0.00  0.00    -0.261 OA
HETATM   10  H   UNK N   1      34.063  13.087  15.034  0.00  0.00     0.169 HD
BRANCH   8  11
HETATM   11  C   UNK N   1      35.709  14.135  13.334  0.00  0.00     0.237 C 
HETATM   12  O   UNK N   1      34.740  13.763  12.690  0.00  0.00    -0.643 OA
BRANCH  11  13
HETATM   13  O   UNK N   1      36.528  15.076  12.822  0.00  0.00    -0.769 OA
HETATM   14  H   UNK N   1      37.454  14.932  12.805  0.00  0.00     0.168 HD
ENDBRANCH  11  13
ENDBRANCH   8  11
ENDBRANCH   4   7
BRANCH   1  15
HETATM   15  C   UNK N   1      35.543  10.709  20.628  0.00  0.00     0.150 C 
BRANCH  15  16
HETATM   16  N   UNK N   1      34.291  10.715  21.367  0.00  0.00    -0.426 N 
HETATM   17  H   UNK N   1      33.654  11.507  21.285  0.00  0.00     0.150 HD
HETATM   18  H   UNK N   1      34.049   9.927  21.968  0.00  0.00     0.150 HD
ENDBRANCH  15  16
ENDBRANCH   1  15
TORSDOF 5
ENDMDL
MODEL 3
REMARK VINA RESULT:      -5.1      4.414      5.266
REMARK  5 active torsions:
REMARK  status: ('A' for Active; 'I' for Inactive)
REMARK    1  A    between atoms: N_1  and  C_2 
REMARK    2  A    between atoms: C_2  and  C_3 
REMARK    3  A    between atoms: C_6  and  N_7 
REMARK       I    between atoms: N_7  and  C_8 
REMARK    4  A    between atoms: C_8  and  C_10 
REMARK    5  A    between atoms: C_10  and  O_11 
ROOT
HETATM    1  C   UNK N   1      26.509  27.187  -3.981  0.00  0.00    -0.041 A 
HETATM    2  C   UNK N   1      25.659  27.315  -5.078  0.00  0.00     0.011 A 
HETATM    3  C   UNK N   1      25.221  26.184  -5.765  0.00  0.00     0.030 A 
HETATM    4  C   UNK N   1      25.626  24.900  -5.367  0.00  0.00     0.035 A 
HETATM    5  C   UNK N   1      26.481  24.769  -4.264  0.00  0.00     0.030 A 
HETATM    6  C   UNK N   1      26.922  25.906  -3.573  0.00  0.00     0.011 A 
ENDROOT
BRANCH   4   7
HETATM    7  N   UNK N   1      25.191  23.728  -6.056  0.00  0.00    -0.318 N 
HETATM    8  C   UNK N   1      25.773  23.206  -7.175  0.00  0.00     0.319 C 
HETATM    9  O   UNK N   1      26.751  23.738  -7.682  0.00  0.00    -0.261 OA
HETATM   10  H   UNK N   1      24.407  23.256  -5.694  0.00  0.00     0.169 HD
BRANCH   8  11
HETATM   11  C   UNK N   1      25.226  21.987  -7.795  0.00  0.00     0.237 C 
HETATM   12  O   UNK N   1      25.950  21.029  -8.017  0.00  0.00    -0.643 OA
BRANCH  11  13
HETATM   13  O   UNK N   1      23.919  21.925  -8.118  0.00  0.00    -0.769 OA
HETATM   14  H   UNK N   1      23.629  22.233  -8.954  0.00  0.00     0.168 HD
ENDBRANCH  11  13
ENDBRANCH   8  11
ENDBRANCH   4   7
BRANCH   1  15
HETATM   15  C   UNK N   1      26.952  28.434  -3.275  0.00  0.00     0.150 C 
BRANCH  15  16
HETATM   16  N   UNK N   1      26.006  29.526  -3.439  0.00  0.00    -0.426 N 
HETATM   17  H   UNK N   1      25.779  29.867  -4.372  0.00  0.00     0.150 HD
HETATM   18  H   UNK N   1      25.571  29.951  -2.621  0.00  0.00     0.150 HD
ENDBRANCH  15  16
ENDBRANCH   1  15
TORSDOF 5
ENDMDL
MODEL 4
REMARK VINA RESULT:      -5.0     12.109     13.733
REMARK  5 active torsions:
REMARK  status: ('A' for Active; 'I' for Inactive)
REMARK    1  A    between atoms: N_1  and  C_2 
REMARK    2  A    between atoms: C_2  and  C_3 
REMARK    3  A    between atoms: C_6  and  N_7 
REMARK       I    between atoms: N_7  and  C_8 
REMARK    4  A    between atoms: C_8  and  C_10 
REMARK    5  A    between atoms: C_10  and  O_11 
ROOT
HETATM    1  C   UNK N   1      28.916  18.137   7.112  0.00  0.00    -0.041 A 
HETATM    2  C   UNK N   1      29.245  18.640   8.370  0.00  0.00     0.011 A 
HETATM    3  C   UNK N   1      30.420  18.236   9.004  0.00  0.00     0.030 A 
HETATM    4  C   UNK N   1      31.287  17.318   8.390  0.00  0.00     0.035 A 
HETATM    5  C   UNK N   1      30.957  16.811   7.127  0.00  0.00     0.030 A 
HETATM    6  C   UNK N   1      29.777  17.217   6.489  0.00  0.00     0.011 A 
ENDROOT
BRANCH   4   7
HETATM    7  N   UNK N   1      32.495  16.890   9.021  0.00  0.00    -0.318 N 
HETATM    8  C   UNK N   1      33.737  17.404   8.781  0.00  0.00     0.319 C 
HETATM    9  O   UNK N   1      33.899  18.306   7.972  0.00  0.00    -0.261 OA
HETATM   10  H   UNK N   1      32.427  16.166   9.683  0.00  0.00     0.169 HD
BRANCH   8  11
HETATM   11  C   UNK N   1      34.909  16.874   9.499  0.00  0.00     0.237 C 
HETATM   12  O   UNK N   1      35.497  17.564  10.317  0.00  0.00    -0.643 OA
BRANCH  11  13
HETATM   13  O   UNK N   1      35.337  15.620   9.254  0.00  0.00    -0.769 OA
HETATM   14  H   UNK N   1      35.348  15.292   8.376  0.00  0.00     0.168 HD
ENDBRANCH  11  13
ENDBRANCH   8  11
ENDBRANCH   4   7
BRANCH   1  15
HETATM   15  C   UNK N   1      27.642  18.602   6.472  0.00  0.00     0.150 C 
BRANCH  15  16
HETATM   16  N   UNK N   1      26.731  17.503   6.192  0.00  0.00    -0.426 N 
HETATM   17  H   UNK N   1      26.274  17.440   5.282  0.00  0.00     0.150 HD
HETATM   18  H   UNK N   1      26.550  16.797   6.904  0.00  0.00     0.150 HD
ENDBRANCH  15  16
ENDBRANCH   1  15
TORSDOF 5
ENDMDL
MODEL 5
REMARK VINA RESULT:      -5.0     19.261     21.649
REMARK  5 active torsions:
REMARK  status: ('A' for Active; 'I' for Inactive)
REMARK    1  A    between atoms: N_1  and  C_2 
REMARK    2  A    between atoms: C_2  and  C_3 
REMARK    3  A    between atoms: C_6  and  N_7 
REMARK       I    between atoms: N_7  and  C_8 
REMARK    4  A    between atoms: C_8  and  C_10 
REMARK    5  A    between atoms: C_10  and  O_11 
ROOT
HETATM    1  C   UNK N   1      35.485  13.330  16.577  0.00  0.00    -0.041 A 
HETATM    2  C   UNK N   1      36.496  14.260  16.337  0.00  0.00     0.011 A 
HETATM    3  C   UNK N   1      36.941  14.496  15.037  0.00  0.00     0.030 A 
HETATM    4  C   UNK N   1      36.383  13.803  13.951  0.00  0.00     0.035 A 
HETATM    5  C   UNK N   1      35.367  12.868  14.190  0.00  0.00     0.030 A 
HETATM    6  C   UNK N   1      34.919  12.631  15.497  0.00  0.00     0.011 A 
ENDROOT
BRANCH   4   7
HETATM    7  N   UNK N   1      36.823  14.028  12.611  0.00  0.00    -0.318 N 
HETATM    8  C   UNK N   1      36.152  14.754  11.669  0.00  0.00     0.319 C 
HETATM    9  O   UNK N   1      35.079  15.281  11.928  0.00  0.00    -0.261 OA
HETATM   10  H   UNK N   1      37.681  13.628  12.344  0.00  0.00     0.169 HD
BRANCH   8  11
HETATM   11  C   UNK N   1      36.714  14.913  10.317  0.00  0.00     0.237 C 
HETATM   12  O   UNK N   1      35.977  14.998   9.347  0.00  0.00    -0.643 OA
BRANCH  11  13
HETATM   13  O   UNK N   1      38.050  14.965  10.146  0.00  0.00    -0.769 OA
HETATM   14  H   UNK N   1      38.455  15.761   9.865  0.00  0.00     0.168 HD
ENDBRANCH  11  13
ENDBRANCH   8  11
ENDBRANCH   4   7
BRANCH   1  15
HETATM   15  C   UNK N   1      35.041  13.113  17.993  0.00  0.00     0.150 C 
BRANCH  15  16
HETATM   16  N   UNK N   1      35.307  14.266  18.838  0.00  0.00    -0.426 N 
HETATM   17  H   UNK N   1      35.447  14.142  19.841  0.00  0.00     0.150 HD
HETATM   18  H   UNK N   1      35.355  15.198  18.429  0.00  0.00     0.150 HD
ENDBRANCH  15  16
ENDBRANCH   1  15
TORSDOF 5
ENDMDL
MODEL 6
REMARK VINA RESULT:      -5.0     21.187     23.606
REMARK  5 active torsions:
REMARK  status: ('A' for Active; 'I' for Inactive)
REMARK    1  A    between atoms: N_1  and  C_2 
REMARK    2  A    between atoms: C_2  and  C_3 
REMARK    3  A    between atoms: C_6  and  N_7 
REMARK       I    between atoms: N_7  and  C_8 
REMARK    4  A    between atoms: C_8  and  C_10 
REMARK    5  A    between atoms: C_10  and  O_11 
ROOT
HETATM    1  C   UNK N   1      35.451  11.515  18.026  0.00  0.00    -0.041 A 
HETATM    2  C   UNK N   1      36.094  10.767  17.041  0.00  0.00     0.011 A 
HETATM    3  C   UNK N   1      36.497  11.370  15.850  0.00  0.00     0.030 A 
HETATM    4  C   UNK N   1      36.263  12.735  15.622  0.00  0.00     0.035 A 
HETATM    5  C   UNK N   1      35.617  13.488  16.611  0.00  0.00     0.030 A 
HETATM    6  C   UNK N   1      35.212  12.883  17.808  0.00  0.00     0.011 A 
ENDROOT
BRANCH   4   7
HETATM    7  N   UNK N   1      36.667  13.374  14.410  0.00  0.00    -0.318 N 
HETATM    8  C   UNK N   1      35.863  13.597  13.329  0.00  0.00     0.319 C 
HETATM    9  O   UNK N   1      34.691  13.247  13.332  0.00  0.00    -0.261 OA
HETATM   10  H   UNK N   1      37.600  13.677  14.348  0.00  0.00     0.169 HD
BRANCH   8  11
HETATM   11  C   UNK N   1      36.401  14.269  12.133  0.00  0.00     0.237 C 
HETATM   12  O   UNK N   1      35.833  15.242  11.662  0.00  0.00    -0.643 OA
BRANCH  11  13
HETATM   13  O   UNK N   1      37.526  13.808  11.552  0.00  0.00    -0.769 OA
HETATM   14  H   UNK N   1      38.321  14.301  11.615  0.00  0.00     0.168 HD
ENDBRANCH  11  13
ENDBRANCH   8  11
ENDBRANCH   4   7
BRANCH   1  15
HETATM   15  C   UNK N   1      35.037  10.820  19.290  0.00  0.00     0.150 C 
BRANCH  15  16
HETATM   16  N   UNK N   1      35.062  11.709  20.441  0.00  0.00    -0.426 N 
HETATM   17  H   UNK N   1      35.847  12.346  20.575  0.00  0.00     0.150 HD
HETATM   18  H   UNK N   1      34.296  11.694  21.113  0.00  0.00     0.150 HD
ENDBRANCH  15  16
ENDBRANCH   1  15
TORSDOF 5
ENDMDL
MODEL 7
REMARK VINA RESULT:      -4.8     19.062     21.756
REMARK  5 active torsions:
REMARK  status: ('A' for Active; 'I' for Inactive)
REMARK    1  A    between atoms: N_1  and  C_2 
REMARK    2  A    between atoms: C_2  and  C_3 
REMARK    3  A    between atoms: C_6  and  N_7 
REMARK       I    between atoms: N_7  and  C_8 
REMARK    4  A    between atoms: C_8  and  C_10 
REMARK    5  A    between atoms: C_10  and  O_11 
ROOT
HETATM    1  C   UNK N   1      36.734  11.472  15.213  0.00  0.00    -0.041 A 
HETATM    2  C   UNK N   1      37.030  11.281  13.864  0.00  0.00     0.011 A 
HETATM    3  C   UNK N   1      36.930  12.341  12.964  0.00  0.00     0.030 A 
HETATM    4  C   UNK N   1      36.532  13.616  13.398  0.00  0.00     0.035 A 
HETATM    5  C   UNK N   1      36.235  13.810  14.753  0.00  0.00     0.030 A 
HETATM    6  C   UNK N   1      36.334  12.744  15.658  0.00  0.00     0.011 A 
ENDROOT
BRANCH   4   7
HETATM    7  N   UNK N   1      36.424  14.716  12.495  0.00  0.00    -0.318 N 
HETATM    8  C   UNK N   1      35.316  15.030  11.761  0.00  0.00     0.319 C 
HETATM    9  O   UNK N   1      34.299  14.356  11.837  0.00  0.00    -0.261 OA
HETATM   10  H   UNK N   1      37.212  15.296  12.392  0.00  0.00     0.169 HD
BRANCH   8  11
HETATM   11  C   UNK N   1      35.330  16.196  10.861  0.00  0.00     0.237 C 
HETATM   12  O   UNK N   1      36.370  16.798  10.645  0.00  0.00    -0.643 OA
BRANCH  11  13
HETATM   13  O   UNK N   1      34.189  16.604  10.271  0.00  0.00    -0.769 OA
HETATM   14  H   UNK N   1      33.707  16.013   9.724  0.00  0.00     0.168 HD
ENDBRANCH  11  13
ENDBRANCH   8  11
ENDBRANCH   4   7
BRANCH   1  15
HETATM   15  C   UNK N   1      36.856  10.300  16.141  0.00  0.00     0.150 C 
BRANCH  15  16
HETATM   16  N   UNK N   1      35.780  10.256  17.118  0.00  0.00    -0.426 N 
HETATM   17  H   UNK N   1      35.893  10.718  18.021  0.00  0.00     0.150 HD
HETATM   18  H   UNK N   1      34.914   9.764  16.902  0.00  0.00     0.150 HD
ENDBRANCH  15  16
ENDBRANCH   1  15
TORSDOF 5
ENDMDL
MODEL 8
REMARK VINA RESULT:      -4.8     12.012     14.153
REMARK  5 active torsions:
REMARK  status: ('A' for Active; 'I' for Inactive)
REMARK    1  A    between atoms: N_1  and  C_2 
REMARK    2  A    between atoms: C_2  and  C_3 
REMARK    3  A    between atoms: C_6  and  N_7 
REMARK       I    between atoms: N_7  and  C_8 
REMARK    4  A    between atoms: C_8  and  C_10 
REMARK    5  A    between atoms: C_10  and  O_11 
ROOT
HETATM    1  C   UNK N   1      31.645  17.173   5.353  0.00  0.00    -0.041 A 
HETATM    2  C   UNK N   1      33.013  17.423   5.261  0.00  0.00     0.011 A 
HETATM    3  C   UNK N   1      33.799  17.471   6.411  0.00  0.00     0.030 A 
HETATM    4  C   UNK N   1      33.230  17.269   7.679  0.00  0.00     0.035 A 
HETATM    5  C   UNK N   1      31.854  17.018   7.774  0.00  0.00     0.030 A 
HETATM    6  C   UNK N   1      31.064  16.970   6.618  0.00  0.00     0.011 A 
ENDROOT
BRANCH   4   7
HETATM    7  N   UNK N   1      34.015  17.314   8.870  0.00  0.00    -0.318 N 
HETATM    8  C   UNK N   1      34.876  16.338   9.287  0.00  0.00     0.319 C 
HETATM    9  O   UNK N   1      35.034  15.317   8.633  0.00  0.00    -0.261 OA
HETATM   10  H   UNK N   1      33.930  18.112   9.438  0.00  0.00     0.169 HD
BRANCH   8  11
HETATM   11  C   UNK N   1      35.632  16.504  10.540  0.00  0.00     0.237 C 
HETATM   12  O   UNK N   1      36.757  16.043  10.649  0.00  0.00    -0.643 OA
BRANCH  11  13
HETATM   13  O   UNK N   1      35.080  17.168  11.575  0.00  0.00    -0.769 OA
HETATM   14  H   UNK N   1      34.893  18.083  11.499  0.00  0.00     0.168 HD
ENDBRANCH  11  13
ENDBRANCH   8  11
ENDBRANCH   4   7
BRANCH   1  15
HETATM   15  C   UNK N   1      30.842  17.131   4.087  0.00  0.00     0.150 C 
BRANCH  15  16
HETATM   16  N   UNK N   1      29.615  17.906   4.185  0.00  0.00    -0.426 N 
HETATM   17  H   UNK N   1      29.485  18.730   3.599  0.00  0.00     0.150 HD
HETATM   18  H   UNK N   1      28.886  17.626   4.840  0.00  0.00     0.150 HD
ENDBRANCH  15  16
ENDBRANCH   1  15
TORSDOF 5
ENDMDL
MODEL 9
REMARK VINA RESULT:      -4.7     17.094     18.343
REMARK  5 active torsions:
REMARK  status: ('A' for Active; 'I' for Inactive)
REMARK    1  A    between atoms: N_1  and  C_2 
REMARK    2  A    between atoms: C_2  and  C_3 
REMARK    3  A    between atoms: C_6  and  N_7 
REMARK       I    between atoms: N_7  and  C_8 
REMARK    4  A    between atoms: C_8  and  C_10 
REMARK    5  A    between atoms: C_10  and  O_11 
ROOT
HETATM    1  C   UNK N   1      22.796  12.596  10.604  0.00  0.00    -0.041 A 
HETATM    2  C   UNK N   1      23.448  12.965   9.429  0.00  0.00     0.011 A 
HETATM    3  C   UNK N   1      22.737  13.559   8.386  0.00  0.00     0.030 A 
HETATM    4  C   UNK N   1      21.358  13.794   8.501  0.00  0.00     0.035 A 
HETATM    5  C   UNK N   1      20.701  13.424   9.682  0.00  0.00     0.030 A 
HETATM    6  C   UNK N   1      21.415  12.828  10.730  0.00  0.00     0.011 A 
ENDROOT
BRANCH   4   7
HETATM    7  N   UNK N   1      20.609  14.401   7.446  0.00  0.00    -0.318 N 
HETATM    8  C   UNK N   1      20.423  15.743   7.280  0.00  0.00     0.319 C 
HETATM    9  O   UNK N   1      20.908  16.548   8.062  0.00  0.00    -0.261 OA
HETATM   10  H   UNK N   1      20.195  13.802   6.785  0.00  0.00     0.169 HD
BRANCH   8  11
HETATM   11  C   UNK N   1      19.627  16.245   6.147  0.00  0.00     0.237 C 
HETATM   12  O   UNK N   1      20.170  16.819   5.216  0.00  0.00    -0.643 OA
BRANCH  11  13
HETATM   13  O   UNK N   1      18.291  16.071   6.134  0.00  0.00    -0.769 OA
HETATM   14  H   UNK N   1      17.910  15.406   5.595  0.00  0.00     0.168 HD
ENDBRANCH  11  13
ENDBRANCH   8  11
ENDBRANCH   4   7
BRANCH   1  15
HETATM   15  C   UNK N   1      23.604  11.962  11.697  0.00  0.00     0.150 C 
BRANCH  15  16
HETATM   16  N   UNK N   1      22.792  11.608  12.850  0.00  0.00    -0.426 N 
HETATM   17  H   UNK N   1      23.236  11.437  13.752  0.00  0.00     0.150 HD
HETATM   18  H   UNK N   1      21.780  11.532  12.757  0.00  0.00     0.150 HD
ENDBRANCH  15  16
ENDBRANCH   1  15
TORSDOF 5
ENDMDL
