MODEL 1
REMARK VINA RESULT:      -7.0      0.000      0.000
REMARK  18 active torsions:
REMARK  status: ('A' for Active; 'I' for Inactive)
REMARK    1  A    between atoms: N_20  and  C_4 
REMARK    2  A    between atoms: C_6  and  C_5 
REMARK    3  A    between atoms: C_10  and  C_5 
REMARK    4  A    between atoms: C_12  and  C_6 
REMARK    5  A    between atoms: C_13  and  C_7 
REMARK    6  A    between atoms: N_22  and  C_7 
REMARK    7  A    between atoms: C_11  and  C_8 
REMARK    8  A    between atoms: S_38  and  C_8 
REMARK    9  A    between atoms: N_24  and  C_9 
REMARK   10  A    between atoms: C_15  and  C_10 
REMARK   11  A    between atoms: C_10  and  N_19 
REMARK   12  A    between atoms: C_14  and  C_11 
REMARK   13  A    between atoms: C_11  and  N_26 
REMARK   14  A    between atoms: C_12  and  O_32 
REMARK   15  A    between atoms: O_34  and  C_13 
REMARK   16  A    between atoms: O_35  and  C_14 
REMARK   17  A    between atoms: O_37  and  C_15 
REMARK       I    between atoms: N_20  and  C_16 
REMARK       I    between atoms: N_24  and  C_17 
REMARK   18  A    between atoms: S_38  and  C_18 
ROOT
HETATM    1  C   UNK N   1      20.658  16.440   4.107  0.00  0.00     0.167 C 
ENDROOT
BRANCH   1   2
HETATM    2  C   UNK N   1      22.104  16.153   3.661  0.00  0.00     0.116 C 
BRANCH   2   3
HETATM    3  S   UNK N   1      23.055  14.980   4.679  0.00  0.00    -0.090 SA
BRANCH   3   4
HETATM    4  C   UNK N   1      24.592  15.874   4.536  0.00  0.00     0.174 A 
HETATM    5  N   UNK N   1      25.606  15.386   3.775  0.00  0.00    -0.169 N 
HETATM    6  C   UNK N   1      26.778  16.062   3.690  0.00  0.00     0.694 A 
ATOM      7  HN  UNK N   1      25.486  14.509   3.268  1.00  0.00     0.186 HD
HETATM    8  N   UNK N   1      27.730  15.589   2.966  0.00  0.00    -0.226 N 
HETATM    9  N   UNK N   1      26.936  17.225   4.380  0.00  0.00    -0.022 N 
ATOM     10  HN  UNK N   1      27.578  14.714   2.464  1.00  0.00     0.177 HD
HETATM   11  C   UNK N   1      25.923  17.711   5.150  0.00  0.00     0.695 A 
HETATM   12  H   UNK N   1      27.788  17.718   4.322  0.00  0.00     0.203 HD
HETATM   13  N   UNK N   1      26.063  18.795   5.828  0.00  0.00    -0.222 N 
HETATM   14  N   UNK N   1      24.753  17.032   5.218  0.00  0.00    -0.169 N 
ATOM     15  HN  UNK N   1      25.273  19.122   6.383  1.00  0.00     0.178 HD
HETATM   16  H   UNK N   1      24.015  17.383   5.768  0.00  0.00     0.186 HD
BRANCH   8  17
HETATM   17  C   UNK N   1      29.006  16.250   2.839  0.00  0.00     0.133 C 
HETATM   18  C   UNK N   1      30.115  15.278   3.189  0.00  0.00     0.027 C 
ENDBRANCH   8  17
BRANCH  13  19
HETATM   19  C   UNK N   1      27.279  19.579   5.845  0.00  0.00     0.091 C 
HETATM   20  C   UNK N   1      26.939  21.020   5.526  0.00  0.00     0.032 C 
HETATM   21  C   UNK N   1      27.927  19.532   7.221  0.00  0.00     0.032 C 
ENDBRANCH  13  19
ENDBRANCH   3   4
ENDBRANCH   2   3
ENDBRANCH   1   2
BRANCH   1  22
HETATM   22  C   UNK N   1      20.118  17.763   3.577  0.00  0.00     0.136 C 
HETATM   23  N   UNK N   1      20.839  18.831   3.625  0.00  0.00    -0.363 N 
ATOM     24  HN  UNK N   1      21.765  18.780   4.052  1.00  0.00     0.161 HD
BRANCH  23  25
HETATM   25  C   UNK N   1      20.387  20.092   3.098  0.00  0.00     0.231 C 
BRANCH  25  26
HETATM   26  C   UNK N   1      21.465  20.695   2.258  0.00  0.00     0.158 C 
HETATM   27  O   UNK N   1      22.365  21.337   2.779  0.00  0.00    -0.649 OA
BRANCH  26  28
HETATM   28  O   UNK N   1      21.447  20.529   0.924  0.00  0.00    -0.775 OA
HETATM   29  H   UNK N   1      22.031  20.806   0.245  0.00  0.00     0.167 HD
ENDBRANCH  26  28
ENDBRANCH  25  26
ENDBRANCH  23  25
BRANCH  22  30
HETATM   30  O   UNK N   1      18.869  17.816   3.065  0.00  0.00    -0.348 OA
HETATM   31  H   UNK N   1      18.111  17.342   3.345  0.00  0.00     0.219 HD
ENDBRANCH  22  30
ENDBRANCH   1  22
BRANCH   1  32
HETATM   32  N   UNK N   1      20.628  16.378   5.564  0.00  0.00    -0.362 N 
HETATM   33  C   UNK N   1      19.551  16.136   6.240  0.00  0.00     0.111 C 
ATOM     34  HN  UNK N   1      21.497  16.531   6.074  1.00  0.00     0.162 HD
BRANCH  33  35
HETATM   35  C   UNK N   1      19.600  16.108   7.732  0.00  0.00     0.086 C 
BRANCH  35  36
HETATM   36  C   UNK N   1      19.673  17.515   8.332  0.00  0.00     0.043 C 
BRANCH  36  37
HETATM   37  C   UNK N   1      18.711  17.727   9.511  0.00  0.00     0.173 C 
BRANCH  37  38
HETATM   38  C   UNK N   1      18.979  19.036  10.200  0.00  0.00     0.163 C 
HETATM   39  O   UNK N   1      20.078  19.560  10.122  0.00  0.00    -0.648 OA
BRANCH  38  40
HETATM   40  O   UNK N   1      18.007  19.628  10.919  0.00  0.00    -0.775 OA
HETATM   41  H   UNK N   1      17.185  19.906  10.564  0.00  0.00     0.167 HD
ENDBRANCH  38  40
ENDBRANCH  37  38
BRANCH  37  42
HETATM   42  N   UNK N   1      17.345  17.707   9.020  0.00  0.00    -0.418 N 
HETATM   43  H   UNK N   1      16.512  17.831   9.595  0.00  0.00     0.150 HD
HETATM   44  H   UNK N   1      17.206  17.556   8.021  0.00  0.00     0.150 HD
ENDBRANCH  37  42
ENDBRANCH  36  37
ENDBRANCH  35  36
ENDBRANCH  33  35
BRANCH  33  45
HETATM   45  O   UNK N   1      18.384  15.890   5.607  0.00  0.00    -0.350 OA
HETATM   46  H   UNK N   1      17.520  16.093   5.309  0.00  0.00     0.219 HD
ENDBRANCH  33  45
ENDBRANCH   1  32
TORSDOF 18
ENDMDL
MODEL 2
REMARK VINA RESULT:      -6.9      2.633      3.974
REMARK  18 active torsions:
REMARK  status: ('A' for Active; 'I' for Inactive)
REMARK    1  A    between atoms: N_20  and  C_4 
REMARK    2  A    between atoms: C_6  and  C_5 
REMARK    3  A    between atoms: C_10  and  C_5 
REMARK    4  A    between atoms: C_12  and  C_6 
REMARK    5  A    between atoms: C_13  and  C_7 
REMARK    6  A    between atoms: N_22  and  C_7 
REMARK    7  A    between atoms: C_11  and  C_8 
REMARK    8  A    between atoms: S_38  and  C_8 
REMARK    9  A    between atoms: N_24  and  C_9 
REMARK   10  A    between atoms: C_15  and  C_10 
REMARK   11  A    between atoms: C_10  and  N_19 
REMARK   12  A    between atoms: C_14  and  C_11 
REMARK   13  A    between atoms: C_11  and  N_26 
REMARK   14  A    between atoms: C_12  and  O_32 
REMARK   15  A    between atoms: O_34  and  C_13 
REMARK   16  A    between atoms: O_35  and  C_14 
REMARK   17  A    between atoms: O_37  and  C_15 
REMARK       I    between atoms: N_20  and  C_16 
REMARK       I    between atoms: N_24  and  C_17 
REMARK   18  A    between atoms: S_38  and  C_18 
ROOT
HETATM    1  C   UNK N   1      24.152  19.270   3.713  0.00  0.00     0.167 C 
ENDROOT
BRANCH   1   2
HETATM    2  C   UNK N   1      25.207  20.131   4.431  0.00  0.00     0.116 C 
BRANCH   2   3
HETATM    3  S   UNK N   1      26.753  20.455   3.522  0.00  0.00    -0.090 SA
BRANCH   3   4
HETATM    4  C   UNK N   1      27.697  19.215   4.391  0.00  0.00     0.174 A 
HETATM    5  N   UNK N   1      28.172  18.125   3.735  0.00  0.00    -0.169 N 
HETATM    6  C   UNK N   1      28.870  17.177   4.409  0.00  0.00     0.694 A 
ATOM      7  HN  UNK N   1      28.004  18.019   2.735  1.00  0.00     0.186 HD
HETATM    8  N   UNK N   1      29.316  16.150   3.776  0.00  0.00    -0.226 N 
HETATM    9  N   UNK N   1      29.081  17.320   5.747  0.00  0.00    -0.022 N 
ATOM     10  HN  UNK N   1      29.138  16.074   2.775  1.00  0.00     0.177 HD
HETATM   11  C   UNK N   1      28.597  18.409   6.406  0.00  0.00     0.695 A 
HETATM   12  H   UNK N   1      29.586  16.632   6.240  0.00  0.00     0.203 HD
HETATM   13  N   UNK N   1      28.765  18.548   7.674  0.00  0.00    -0.222 N 
HETATM   14  N   UNK N   1      27.911  19.354   5.720  0.00  0.00    -0.169 N 
ATOM     15  HN  UNK N   1      28.391  19.385   8.121  1.00  0.00     0.178 HD
HETATM   16  H   UNK N   1      27.565  20.146   6.192  0.00  0.00     0.186 HD
BRANCH   8  17
HETATM   17  C   UNK N   1      30.055  15.099   4.431  0.00  0.00     0.133 C 
HETATM   18  C   UNK N   1      30.214  13.927   3.485  0.00  0.00     0.027 C 
ENDBRANCH   8  17
BRANCH  13  19
HETATM   19  C   UNK N   1      29.458  17.585   8.502  0.00  0.00     0.091 C 
HETATM   20  C   UNK N   1      30.818  18.141   8.867  0.00  0.00     0.032 C 
HETATM   21  C   UNK N   1      28.684  17.327   9.786  0.00  0.00     0.032 C 
ENDBRANCH  13  19
ENDBRANCH   3   4
ENDBRANCH   2   3
ENDBRANCH   1   2
BRANCH   1  22
HETATM   22  C   UNK N   1      23.037  20.093   3.078  0.00  0.00     0.136 C 
HETATM   23  N   UNK N   1      21.881  19.567   2.855  0.00  0.00    -0.363 N 
ATOM     24  HN  UNK N   1      21.737  18.583   3.083  1.00  0.00     0.161 HD
BRANCH  23  25
HETATM   25  C   UNK N   1      20.786  20.318   2.297  0.00  0.00     0.231 C 
BRANCH  25  26
HETATM   26  C   UNK N   1      20.848  20.252   0.806  0.00  0.00     0.158 C 
HETATM   27  O   UNK N   1      21.232  21.217   0.163  0.00  0.00    -0.649 OA
BRANCH  26  28
HETATM   28  O   UNK N   1      20.482  19.126   0.169  0.00  0.00    -0.775 OA
HETATM   29  H   UNK N   1      19.670  18.850  -0.211  0.00  0.00     0.167 HD
ENDBRANCH  26  28
ENDBRANCH  25  26
ENDBRANCH  23  25
BRANCH  22  30
HETATM   30  O   UNK N   1      23.270  21.379   2.736  0.00  0.00    -0.348 OA
HETATM   31  H   UNK N   1      23.852  21.988   3.146  0.00  0.00     0.219 HD
ENDBRANCH  22  30
ENDBRANCH   1  22
BRANCH   1  32
HETATM   32  N   UNK N   1      23.641  18.306   4.680  0.00  0.00    -0.362 N 
HETATM   33  C   UNK N   1      24.172  17.141   4.868  0.00  0.00     0.111 C 
ATOM     34  HN  UNK N   1      22.825  18.562   5.237  1.00  0.00     0.162 HD
BRANCH  33  35
HETATM   35  C   UNK N   1      23.577  16.203   5.866  0.00  0.00     0.086 C 
BRANCH  35  36
HETATM   36  C   UNK N   1      22.049  16.151   5.767  0.00  0.00     0.043 C 
BRANCH  36  37
HETATM   37  C   UNK N   1      21.338  16.703   7.011  0.00  0.00     0.173 C 
BRANCH  37  38
HETATM   38  C   UNK N   1      20.956  18.145   6.823  0.00  0.00     0.163 C 
HETATM   39  O   UNK N   1      20.644  18.830   7.783  0.00  0.00    -0.648 OA
BRANCH  38  40
HETATM   40  O   UNK N   1      20.945  18.682   5.588  0.00  0.00    -0.775 OA
HETATM   41  H   UNK N   1      21.056  18.188   4.799  0.00  0.00     0.167 HD
ENDBRANCH  38  40
ENDBRANCH  37  38
BRANCH  37  42
HETATM   42  N   UNK N   1      20.146  15.915   7.268  0.00  0.00    -0.418 N 
HETATM   43  H   UNK N   1      19.377  15.782   6.612  0.00  0.00     0.150 HD
HETATM   44  H   UNK N   1      20.072  15.457   8.177  0.00  0.00     0.150 HD
ENDBRANCH  37  42
ENDBRANCH  36  37
ENDBRANCH  35  36
ENDBRANCH  33  35
BRANCH  33  45
HETATM   45  O   UNK N   1      25.275  16.771   4.182  0.00  0.00    -0.350 OA
HETATM   46  H   UNK N   1      25.756  16.517   3.420  0.00  0.00     0.219 HD
ENDBRANCH  33  45
ENDBRANCH   1  32
TORSDOF 18
ENDMDL
MODEL 3
REMARK VINA RESULT:      -6.9      3.805      6.224
REMARK  18 active torsions:
REMARK  status: ('A' for Active; 'I' for Inactive)
REMARK    1  A    between atoms: N_20  and  C_4 
REMARK    2  A    between atoms: C_6  and  C_5 
REMARK    3  A    between atoms: C_10  and  C_5 
REMARK    4  A    between atoms: C_12  and  C_6 
REMARK    5  A    between atoms: C_13  and  C_7 
REMARK    6  A    between atoms: N_22  and  C_7 
REMARK    7  A    between atoms: C_11  and  C_8 
REMARK    8  A    between atoms: S_38  and  C_8 
REMARK    9  A    between atoms: N_24  and  C_9 
REMARK   10  A    between atoms: C_15  and  C_10 
REMARK   11  A    between atoms: C_10  and  N_19 
REMARK   12  A    between atoms: C_14  and  C_11 
REMARK   13  A    between atoms: C_11  and  N_26 
REMARK   14  A    between atoms: C_12  and  O_32 
REMARK   15  A    between atoms: O_34  and  C_13 
REMARK   16  A    between atoms: O_35  and  C_14 
REMARK   17  A    between atoms: O_37  and  C_15 
REMARK       I    between atoms: N_20  and  C_16 
REMARK       I    between atoms: N_24  and  C_17 
REMARK   18  A    between atoms: S_38  and  C_18 
ROOT
HETATM    1  C   UNK N   1      20.703  14.374   6.962  0.00  0.00     0.167 C 
ENDROOT
BRANCH   1   2
HETATM    2  C   UNK N   1      20.540  15.053   5.590  0.00  0.00     0.116 C 
BRANCH   2   3
HETATM    3  S   UNK N   1      21.881  14.793   4.385  0.00  0.00    -0.090 SA
BRANCH   3   4
HETATM    4  C   UNK N   1      22.198  16.531   4.138  0.00  0.00     0.174 A 
HETATM    5  N   UNK N   1      21.244  17.337   3.605  0.00  0.00    -0.169 N 
HETATM    6  C   UNK N   1      21.503  18.653   3.402  0.00  0.00     0.694 A 
ATOM      7  HN  UNK N   1      20.333  16.953   3.356  1.00  0.00     0.186 HD
HETATM    8  N   UNK N   1      20.591  19.406   2.896  0.00  0.00    -0.226 N 
HETATM    9  N   UNK N   1      22.726  19.157   3.726  0.00  0.00    -0.022 N 
ATOM     10  HN  UNK N   1      19.687  18.995   2.663  1.00  0.00     0.177 HD
HETATM   11  C   UNK N   1      23.685  18.346   4.253  0.00  0.00     0.695 A 
HETATM   12  H   UNK N   1      22.917  20.112   3.578  0.00  0.00     0.203 HD
HETATM   13  N   UNK N   1      24.854  18.800   4.542  0.00  0.00    -0.222 N 
HETATM   14  N   UNK N   1      23.411  17.037   4.461  0.00  0.00    -0.169 N 
ATOM     15  HN  UNK N   1      25.535  18.156   4.942  1.00  0.00     0.178 HD
HETATM   16  H   UNK N   1      24.100  16.449   4.849  0.00  0.00     0.186 HD
BRANCH   8  17
HETATM   17  C   UNK N   1      20.801  20.810   2.643  0.00  0.00     0.133 C 
HETATM   18  C   UNK N   1      20.766  21.065   1.150  0.00  0.00     0.027 C 
ENDBRANCH   8  17
BRANCH  13  19
HETATM   19  C   UNK N   1      25.255  20.174   4.333  0.00  0.00     0.091 C 
HETATM   20  C   UNK N   1      26.178  20.592   5.459  0.00  0.00     0.032 C 
HETATM   21  C   UNK N   1      26.006  20.319   3.018  0.00  0.00     0.032 C 
ENDBRANCH  13  19
ENDBRANCH   3   4
ENDBRANCH   2   3
ENDBRANCH   1   2
BRANCH   1  22
HETATM   22  C   UNK N   1      20.197  15.228   8.118  0.00  0.00     0.136 C 
HETATM   23  N   UNK N   1      19.747  16.417   7.906  0.00  0.00    -0.363 N 
ATOM     24  HN  UNK N   1      19.765  16.787   6.955  1.00  0.00     0.161 HD
BRANCH  23  25
HETATM   25  C   UNK N   1      19.220  17.243   8.961  0.00  0.00     0.231 C 
BRANCH  25  26
HETATM   26  C   UNK N   1      19.891  18.577   8.931  0.00  0.00     0.158 C 
HETATM   27  O   UNK N   1      20.542  18.916   7.954  0.00  0.00    -0.649 OA
BRANCH  26  28
HETATM   28  O   UNK N   1      19.777  19.409   9.981  0.00  0.00    -0.775 OA
HETATM   29  H   UNK N   1      20.067  19.347  10.870  0.00  0.00     0.167 HD
ENDBRANCH  26  28
ENDBRANCH  25  26
ENDBRANCH  23  25
BRANCH  22  30
HETATM   30  O   UNK N   1      20.233  14.735   9.375  0.00  0.00    -0.348 OA
HETATM   31  H   UNK N   1      20.559  13.904   9.660  0.00  0.00     0.219 HD
ENDBRANCH  22  30
ENDBRANCH   1  22
BRANCH   1  32
HETATM   32  N   UNK N   1      22.110  14.022   7.113  0.00  0.00    -0.362 N 
HETATM   33  C   UNK N   1      22.513  12.962   7.737  0.00  0.00     0.111 C 
ATOM     34  HN  UNK N   1      22.812  14.641   6.706  1.00  0.00     0.162 HD
BRANCH  33  35
HETATM   35  C   UNK N   1      23.974  12.682   7.865  0.00  0.00     0.086 C 
BRANCH  35  36
HETATM   36  C   UNK N   1      24.301  11.905   9.143  0.00  0.00     0.043 C 
BRANCH  36  37
HETATM   37  C   UNK N   1      24.178  12.749  10.420  0.00  0.00     0.173 C 
BRANCH  37  38
HETATM   38  C   UNK N   1      23.425  12.008  11.490  0.00  0.00     0.163 C 
HETATM   39  O   UNK N   1      23.808  12.042  12.648  0.00  0.00    -0.648 OA
BRANCH  38  40
HETATM   40  O   UNK N   1      22.331  11.292  11.169  0.00  0.00    -0.775 OA
HETATM   41  H   UNK N   1      21.605  11.154  11.746  0.00  0.00     0.167 HD
ENDBRANCH  38  40
ENDBRANCH  37  38
BRANCH  37  42
HETATM   42  N   UNK N   1      25.506  13.082  10.902  0.00  0.00    -0.418 N 
HETATM   43  H   UNK N   1      25.727  13.858  11.526  0.00  0.00     0.150 HD
HETATM   44  H   UNK N   1      26.280  12.495  10.591  0.00  0.00     0.150 HD
ENDBRANCH  37  42
ENDBRANCH  36  37
ENDBRANCH  35  36
ENDBRANCH  33  35
BRANCH  33  45
HETATM   45  O   UNK N   1      21.620  12.094   8.261  0.00  0.00    -0.350 OA
HETATM   46  H   UNK N   1      20.766  11.745   8.417  0.00  0.00     0.219 HD
ENDBRANCH  33  45
ENDBRANCH   1  32
TORSDOF 18
ENDMDL
MODEL 4
REMARK VINA RESULT:      -6.9      1.899      5.178
REMARK  18 active torsions:
REMARK  status: ('A' for Active; 'I' for Inactive)
REMARK    1  A    between atoms: N_20  and  C_4 
REMARK    2  A    between atoms: C_6  and  C_5 
REMARK    3  A    between atoms: C_10  and  C_5 
REMARK    4  A    between atoms: C_12  and  C_6 
REMARK    5  A    between atoms: C_13  and  C_7 
REMARK    6  A    between atoms: N_22  and  C_7 
REMARK    7  A    between atoms: C_11  and  C_8 
REMARK    8  A    between atoms: S_38  and  C_8 
REMARK    9  A    between atoms: N_24  and  C_9 
REMARK   10  A    between atoms: C_15  and  C_10 
REMARK   11  A    between atoms: C_10  and  N_19 
REMARK   12  A    between atoms: C_14  and  C_11 
REMARK   13  A    between atoms: C_11  and  N_26 
REMARK   14  A    between atoms: C_12  and  O_32 
REMARK   15  A    between atoms: O_34  and  C_13 
REMARK   16  A    between atoms: O_35  and  C_14 
REMARK   17  A    between atoms: O_37  and  C_15 
REMARK       I    between atoms: N_20  and  C_16 
REMARK       I    between atoms: N_24  and  C_17 
REMARK   18  A    between atoms: S_38  and  C_18 
ROOT
HETATM    1  C   UNK N   1      22.615  15.983   6.501  0.00  0.00     0.167 C 
ENDROOT
BRANCH   1   2
HETATM    2  C   UNK N   1      23.354  14.663   6.212  0.00  0.00     0.116 C 
BRANCH   2   3
HETATM    3  S   UNK N   1      24.899  14.373   7.132  0.00  0.00    -0.090 SA
BRANCH   3   4
HETATM    4  C   UNK N   1      25.892  15.427   6.090  0.00  0.00     0.174 A 
HETATM    5  N   UNK N   1      26.791  14.892   5.224  0.00  0.00    -0.169 N 
HETATM    6  C   UNK N   1      27.556  15.703   4.452  0.00  0.00     0.694 A 
ATOM      7  HN  UNK N   1      26.892  13.880   5.156  1.00  0.00     0.186 HD
HETATM    8  N   UNK N   1      28.403  15.183   3.636  0.00  0.00    -0.226 N 
HETATM    9  N   UNK N   1      27.424  17.054   4.558  0.00  0.00    -0.022 N 
ATOM     10  HN  UNK N   1      28.477  14.167   3.584  1.00  0.00     0.177 HD
HETATM   11  C   UNK N   1      26.528  17.591   5.432  0.00  0.00     0.695 A 
HETATM   12  H   UNK N   1      27.980  17.646   3.999  0.00  0.00     0.203 HD
HETATM   13  N   UNK N   1      26.408  18.865   5.562  0.00  0.00    -0.222 N 
HETATM   14  N   UNK N   1      25.763  16.771   6.190  0.00  0.00    -0.169 N 
ATOM     15  HN  UNK N   1      25.718  19.219   6.224  1.00  0.00     0.178 HD
HETATM   16  H   UNK N   1      25.108  17.155   6.818  0.00  0.00     0.186 HD
BRANCH   8  17
HETATM   17  C   UNK N   1      29.257  15.985   2.793  0.00  0.00     0.133 C 
HETATM   18  C   UNK N   1      30.630  16.094   3.423  0.00  0.00     0.027 C 
ENDBRANCH   8  17
BRANCH  13  19
HETATM   19  C   UNK N   1      27.196  19.826   4.821  0.00  0.00     0.091 C 
HETATM   20  C   UNK N   1      26.383  20.326   3.646  0.00  0.00     0.032 C 
HETATM   21  C   UNK N   1      27.555  21.016   5.699  0.00  0.00     0.032 C 
ENDBRANCH  13  19
ENDBRANCH   3   4
ENDBRANCH   2   3
ENDBRANCH   1   2
BRANCH   1  22
HETATM   22  C   UNK N   1      21.471  15.824   7.495  0.00  0.00     0.136 C 
HETATM   23  N   UNK N   1      20.566  16.737   7.603  0.00  0.00    -0.363 N 
ATOM     24  HN  UNK N   1      20.649  17.580   7.033  1.00  0.00     0.161 HD
BRANCH  23  25
HETATM   25  C   UNK N   1      19.444  16.611   8.497  0.00  0.00     0.231 C 
BRANCH  25  26
HETATM   26  C   UNK N   1      19.170  17.931   9.139  0.00  0.00     0.158 C 
HETATM   27  O   UNK N   1      20.035  18.792   9.169  0.00  0.00    -0.649 OA
BRANCH  26  28
HETATM   28  O   UNK N   1      17.964  18.174   9.684  0.00  0.00    -0.775 OA
HETATM   29  H   UNK N   1      17.697  18.678  10.427  0.00  0.00     0.167 HD
ENDBRANCH  26  28
ENDBRANCH  25  26
ENDBRANCH  23  25
BRANCH  22  30
HETATM   30  O   UNK N   1      21.413  14.723   8.275  0.00  0.00    -0.348 OA
HETATM   31  H   UNK N   1      20.654  14.237   8.531  0.00  0.00     0.219 HD
ENDBRANCH  22  30
ENDBRANCH   1  22
BRANCH   1  32
HETATM   32  N   UNK N   1      22.163  16.522   5.224  0.00  0.00    -0.362 N 
HETATM   33  C   UNK N   1      22.485  17.701   4.798  0.00  0.00     0.111 C 
ATOM     34  HN  UNK N   1      21.565  15.941   4.636  1.00  0.00     0.162 HD
BRANCH  33  35
HETATM   35  C   UNK N   1      21.966  18.187   3.486  0.00  0.00     0.086 C 
BRANCH  35  36
HETATM   36  C   UNK N   1      20.935  19.307   3.654  0.00  0.00     0.043 C 
BRANCH  36  37
HETATM   37  C   UNK N   1      20.102  19.567   2.390  0.00  0.00     0.173 C 
BRANCH  37  38
HETATM   38  C   UNK N   1      20.820  20.491   1.447  0.00  0.00     0.163 C 
HETATM   39  O   UNK N   1      21.627  21.300   1.874  0.00  0.00    -0.648 OA
BRANCH  38  40
HETATM   40  O   UNK N   1      20.564  20.436   0.126  0.00  0.00    -0.775 OA
HETATM   41  H   UNK N   1      19.841  20.866  -0.287  0.00  0.00     0.167 HD
ENDBRANCH  38  40
ENDBRANCH  37  38
BRANCH  37  42
HETATM   42  N   UNK N   1      19.838  18.303   1.726  0.00  0.00    -0.418 N 
HETATM   43  H   UNK N   1      20.474  17.506   1.705  0.00  0.00     0.150 HD
HETATM   44  H   UNK N   1      18.947  18.204   1.241  0.00  0.00     0.150 HD
ENDBRANCH  37  42
ENDBRANCH  36  37
ENDBRANCH  35  36
ENDBRANCH  33  35
BRANCH  33  45
HETATM   45  O   UNK N   1      23.305  18.492   5.524  0.00  0.00    -0.350 OA
HETATM   46  H   UNK N   1      23.587  19.297   5.910  0.00  0.00     0.219 HD
ENDBRANCH  33  45
ENDBRANCH   1  32
TORSDOF 18
ENDMDL
MODEL 5
REMARK VINA RESULT:      -6.7      3.727      5.194
REMARK  18 active torsions:
REMARK  status: ('A' for Active; 'I' for Inactive)
REMARK    1  A    between atoms: N_20  and  C_4 
REMARK    2  A    between atoms: C_6  and  C_5 
REMARK    3  A    between atoms: C_10  and  C_5 
REMARK    4  A    between atoms: C_12  and  C_6 
REMARK    5  A    between atoms: C_13  and  C_7 
REMARK    6  A    between atoms: N_22  and  C_7 
REMARK    7  A    between atoms: C_11  and  C_8 
REMARK    8  A    between atoms: S_38  and  C_8 
REMARK    9  A    between atoms: N_24  and  C_9 
REMARK   10  A    between atoms: C_15  and  C_10 
REMARK   11  A    between atoms: C_10  and  N_19 
REMARK   12  A    between atoms: C_14  and  C_11 
REMARK   13  A    between atoms: C_11  and  N_26 
REMARK   14  A    between atoms: C_12  and  O_32 
REMARK   15  A    between atoms: O_34  and  C_13 
REMARK   16  A    between atoms: O_35  and  C_14 
REMARK   17  A    between atoms: O_37  and  C_15 
REMARK       I    between atoms: N_20  and  C_16 
REMARK       I    between atoms: N_24  and  C_17 
REMARK   18  A    between atoms: S_38  and  C_18 
ROOT
HETATM    1  C   UNK N   1      20.227  14.991   6.983  0.00  0.00     0.167 C 
ENDROOT
BRANCH   1   2
HETATM    2  C   UNK N   1      20.783  15.446   5.621  0.00  0.00     0.116 C 
BRANCH   2   3
HETATM    3  S   UNK N   1      21.015  17.238   5.391  0.00  0.00    -0.090 SA
BRANCH   3   4
HETATM    4  C   UNK N   1      22.789  17.138   5.232  0.00  0.00     0.174 A 
HETATM    5  N   UNK N   1      23.399  15.939   5.044  0.00  0.00    -0.169 N 
HETATM    6  C   UNK N   1      24.749  15.871   4.946  0.00  0.00     0.694 A 
ATOM      7  HN  UNK N   1      22.840  15.088   4.978  1.00  0.00     0.186 HD
HETATM    8  N   UNK N   1      25.314  14.729   4.768  0.00  0.00    -0.226 N 
HETATM    9  N   UNK N   1      25.490  17.009   5.048  0.00  0.00    -0.022 N 
ATOM     10  HN  UNK N   1      24.729  13.897   4.698  1.00  0.00     0.177 HD
HETATM   11  C   UNK N   1      24.879  18.211   5.244  0.00  0.00     0.695 A 
HETATM   12  H   UNK N   1      26.472  16.963   4.979  0.00  0.00     0.203 HD
HETATM   13  N   UNK N   1      25.565  19.293   5.367  0.00  0.00    -0.222 N 
HETATM   14  N   UNK N   1      23.530  18.267   5.330  0.00  0.00    -0.169 N 
ATOM     15  HN  UNK N   1      25.062  20.169   5.505  1.00  0.00     0.178 HD
HETATM   16  H   UNK N   1      23.083  19.135   5.464  0.00  0.00     0.186 HD
BRANCH   8  17
HETATM   17  C   UNK N   1      26.746  14.582   4.667  0.00  0.00     0.133 C 
HETATM   18  C   UNK N   1      27.126  13.140   4.935  0.00  0.00     0.027 C 
ENDBRANCH   8  17
BRANCH  13  19
HETATM   19  C   UNK N   1      27.010  19.337   5.319  0.00  0.00     0.091 C 
HETATM   20  C   UNK N   1      27.437  20.049   4.052  0.00  0.00     0.032 C 
HETATM   21  C   UNK N   1      27.563  20.104   6.510  0.00  0.00     0.032 C 
ENDBRANCH  13  19
ENDBRANCH   3   4
ENDBRANCH   2   3
ENDBRANCH   1   2
BRANCH   1  22
HETATM   22  C   UNK N   1      19.283  16.008   7.615  0.00  0.00     0.136 C 
HETATM   23  N   UNK N   1      19.603  16.602   8.714  0.00  0.00    -0.363 N 
ATOM     24  HN  UNK N   1      20.483  16.357   9.167  1.00  0.00     0.161 HD
BRANCH  23  25
HETATM   25  C   UNK N   1      18.763  17.600   9.324  0.00  0.00     0.231 C 
BRANCH  25  26
HETATM   26  C   UNK N   1      19.519  18.883   9.440  0.00  0.00     0.158 C 
HETATM   27  O   UNK N   1      20.310  19.211   8.570  0.00  0.00    -0.649 OA
BRANCH  26  28
HETATM   28  O   UNK N   1      19.325  19.682  10.504  0.00  0.00    -0.775 OA
HETATM   29  H   UNK N   1      19.906  20.224  11.002  0.00  0.00     0.167 HD
ENDBRANCH  26  28
ENDBRANCH  25  26
ENDBRANCH  23  25
BRANCH  22  30
HETATM   30  O   UNK N   1      18.099  16.276   7.023  0.00  0.00    -0.348 OA
HETATM   31  H   UNK N   1      17.377  15.695   6.888  0.00  0.00     0.219 HD
ENDBRANCH  22  30
ENDBRANCH   1  22
BRANCH   1  32
HETATM   32  N   UNK N   1      21.365  14.689   7.843  0.00  0.00    -0.362 N 
HETATM   33  C   UNK N   1      21.268  13.987   8.926  0.00  0.00     0.111 C 
ATOM     34  HN  UNK N   1      22.283  15.047   7.579  1.00  0.00     0.162 HD
BRANCH  33  35
HETATM   35  C   UNK N   1      22.479  13.737   9.764  0.00  0.00     0.086 C 
BRANCH  35  36
HETATM   36  C   UNK N   1      22.937  12.277   9.690  0.00  0.00     0.043 C 
BRANCH  36  37
HETATM   37  C   UNK N   1      22.841  11.538  11.033  0.00  0.00     0.173 C 
BRANCH  37  38
HETATM   38  C   UNK N   1      23.898  12.013  11.990  0.00  0.00     0.163 C 
HETATM   39  O   UNK N   1      23.653  12.104  13.182  0.00  0.00    -0.648 OA
BRANCH  38  40
HETATM   40  O   UNK N   1      25.118  12.352  11.532  0.00  0.00    -0.775 OA
HETATM   41  H   UNK N   1      25.689  11.766  11.074  0.00  0.00     0.167 HD
ENDBRANCH  38  40
ENDBRANCH  37  38
BRANCH  37  42
HETATM   42  N   UNK N   1      21.527  11.764  11.608  0.00  0.00    -0.418 N 
HETATM   43  H   UNK N   1      20.651  11.774  11.086  0.00  0.00     0.150 HD
HETATM   44  H   UNK N   1      21.476  11.925  12.613  0.00  0.00     0.150 HD
ENDBRANCH  37  42
ENDBRANCH  36  37
ENDBRANCH  35  36
ENDBRANCH  33  35
BRANCH  33  45
HETATM   45  O   UNK N   1      20.080  13.460   9.298  0.00  0.00    -0.350 OA
HETATM   46  H   UNK N   1      19.513  12.929   9.820  0.00  0.00     0.219 HD
ENDBRANCH  33  45
ENDBRANCH   1  32
TORSDOF 18
ENDMDL
MODEL 6
REMARK VINA RESULT:      -6.7      7.102     11.457
REMARK  18 active torsions:
REMARK  status: ('A' for Active; 'I' for Inactive)
REMARK    1  A    between atoms: N_20  and  C_4 
REMARK    2  A    between atoms: C_6  and  C_5 
REMARK    3  A    between atoms: C_10  and  C_5 
REMARK    4  A    between atoms: C_12  and  C_6 
REMARK    5  A    between atoms: C_13  and  C_7 
REMARK    6  A    between atoms: N_22  and  C_7 
REMARK    7  A    between atoms: C_11  and  C_8 
REMARK    8  A    between atoms: S_38  and  C_8 
REMARK    9  A    between atoms: N_24  and  C_9 
REMARK   10  A    between atoms: C_15  and  C_10 
REMARK   11  A    between atoms: C_10  and  N_19 
REMARK   12  A    between atoms: C_14  and  C_11 
REMARK   13  A    between atoms: C_11  and  N_26 
REMARK   14  A    between atoms: C_12  and  O_32 
REMARK   15  A    between atoms: O_34  and  C_13 
REMARK   16  A    between atoms: O_35  and  C_14 
REMARK   17  A    between atoms: O_37  and  C_15 
REMARK       I    between atoms: N_20  and  C_16 
REMARK       I    between atoms: N_24  and  C_17 
REMARK   18  A    between atoms: S_38  and  C_18 
ROOT
HETATM    1  C   UNK N   1      31.205  16.791   8.054  0.00  0.00     0.167 C 
ENDROOT
BRANCH   1   2
HETATM    2  C   UNK N   1      30.996  18.142   8.762  0.00  0.00     0.116 C 
BRANCH   2   3
HETATM    3  S   UNK N   1      29.405  18.378   9.618  0.00  0.00    -0.090 SA
BRANCH   3   4
HETATM    4  C   UNK N   1      28.411  18.026   8.179  0.00  0.00     0.174 A 
HETATM    5  N   UNK N   1      28.428  18.859   7.107  0.00  0.00    -0.169 N 
HETATM    6  C   UNK N   1      27.652  18.594   6.027  0.00  0.00     0.694 A 
ATOM      7  HN  UNK N   1      29.026  19.686   7.114  1.00  0.00     0.186 HD
HETATM    8  N   UNK N   1      27.679  19.391   5.018  0.00  0.00    -0.226 N 
HETATM    9  N   UNK N   1      26.848  17.495   6.029  0.00  0.00    -0.022 N 
ATOM     10  HN  UNK N   1      28.291  20.206   5.051  1.00  0.00     0.177 HD
HETATM   11  C   UNK N   1      26.824  16.664   7.108  0.00  0.00     0.695 A 
HETATM   12  H   UNK N   1      26.282  17.300   5.247  0.00  0.00     0.203 HD
HETATM   13  N   UNK N   1      26.052  15.634   7.137  0.00  0.00    -0.222 N 
HETATM   14  N   UNK N   1      27.611  16.933   8.176  0.00  0.00    -0.169 N 
ATOM     15  HN  UNK N   1      26.076  15.038   7.964  1.00  0.00     0.178 HD
HETATM   16  H   UNK N   1      27.602  16.331   8.955  0.00  0.00     0.186 HD
BRANCH   8  17
HETATM   17  C   UNK N   1      26.872  19.176   3.842  0.00  0.00     0.133 C 
HETATM   18  C   UNK N   1      26.202  20.476   3.444  0.00  0.00     0.027 C 
ENDBRANCH   8  17
BRANCH  13  19
HETATM   19  C   UNK N   1      25.154  15.274   6.062  0.00  0.00     0.091 C 
HETATM   20  C   UNK N   1      25.543  13.909   5.535  0.00  0.00     0.032 C 
HETATM   21  C   UNK N   1      23.719  15.205   6.563  0.00  0.00     0.032 C 
ENDBRANCH  13  19
ENDBRANCH   3   4
ENDBRANCH   2   3
ENDBRANCH   1   2
BRANCH   1  22
HETATM   22  C   UNK N   1      32.350  15.975   8.643  0.00  0.00     0.136 C 
HETATM   23  N   UNK N   1      33.212  16.528   9.427  0.00  0.00    -0.363 N 
ATOM     24  HN  UNK N   1      33.131  17.527   9.620  1.00  0.00     0.161 HD
BRANCH  23  25
HETATM   25  C   UNK N   1      34.284  15.788  10.040  0.00  0.00     0.231 C 
BRANCH  25  26
HETATM   26  C   UNK N   1      35.457  16.691  10.246  0.00  0.00     0.158 C 
HETATM   27  O   UNK N   1      36.450  16.285  10.829  0.00  0.00    -0.649 OA
BRANCH  26  28
HETATM   28  O   UNK N   1      35.420  17.953   9.785  0.00  0.00    -0.775 OA
HETATM   29  H   UNK N   1      34.806  18.651   9.904  0.00  0.00     0.167 HD
ENDBRANCH  26  28
ENDBRANCH  25  26
ENDBRANCH  23  25
BRANCH  22  30
HETATM   30  O   UNK N   1      32.466  14.667   8.330  0.00  0.00    -0.348 OA
HETATM   31  H   UNK N   1      32.970  14.011   8.770  0.00  0.00     0.219 HD
ENDBRANCH  22  30
ENDBRANCH   1  22
BRANCH   1  32
HETATM   32  N   UNK N   1      31.399  17.065   6.635  0.00  0.00    -0.362 N 
HETATM   33  C   UNK N   1      30.679  16.524   5.704  0.00  0.00     0.111 C 
ATOM     34  HN  UNK N   1      32.136  17.714   6.362  1.00  0.00     0.162 HD
BRANCH  33  35
HETATM   35  C   UNK N   1      30.953  16.843   4.271  0.00  0.00     0.086 C 
BRANCH  35  36
HETATM   36  C   UNK N   1      32.354  17.427   4.070  0.00  0.00     0.043 C 
BRANCH  36  37
HETATM   37  C   UNK N   1      33.445  16.357   3.907  0.00  0.00     0.173 C 
BRANCH  37  38
HETATM   38  C   UNK N   1      33.966  15.907   5.244  0.00  0.00     0.163 C 
HETATM   39  O   UNK N   1      33.767  14.767   5.630  0.00  0.00    -0.648 OA
BRANCH  38  40
HETATM   40  O   UNK N   1      34.645  16.768   6.025  0.00  0.00    -0.775 OA
HETATM   41  H   UNK N   1      34.918  16.579   6.902  0.00  0.00     0.167 HD
ENDBRANCH  38  40
ENDBRANCH  37  38
BRANCH  37  42
HETATM   42  N   UNK N   1      32.894  15.220   3.192  0.00  0.00    -0.418 N 
HETATM   43  H   UNK N   1      31.913  14.945   3.193  0.00  0.00     0.150 HD
HETATM   44  H   UNK N   1      33.540  14.652   2.645  0.00  0.00     0.150 HD
ENDBRANCH  37  42
ENDBRANCH  36  37
ENDBRANCH  35  36
ENDBRANCH  33  35
BRANCH  33  45
HETATM   45  O   UNK N   1      29.667  15.686   6.019  0.00  0.00    -0.350 OA
HETATM   46  H   UNK N   1      29.112  14.942   5.899  0.00  0.00     0.219 HD
ENDBRANCH  33  45
ENDBRANCH   1  32
TORSDOF 18
ENDMDL
MODEL 7
REMARK VINA RESULT:      -6.7      8.281     12.066
REMARK  18 active torsions:
REMARK  status: ('A' for Active; 'I' for Inactive)
REMARK    1  A    between atoms: N_20  and  C_4 
REMARK    2  A    between atoms: C_6  and  C_5 
REMARK    3  A    between atoms: C_10  and  C_5 
REMARK    4  A    between atoms: C_12  and  C_6 
REMARK    5  A    between atoms: C_13  and  C_7 
REMARK    6  A    between atoms: N_22  and  C_7 
REMARK    7  A    between atoms: C_11  and  C_8 
REMARK    8  A    between atoms: S_38  and  C_8 
REMARK    9  A    between atoms: N_24  and  C_9 
REMARK   10  A    between atoms: C_15  and  C_10 
REMARK   11  A    between atoms: C_10  and  N_19 
REMARK   12  A    between atoms: C_14  and  C_11 
REMARK   13  A    between atoms: C_11  and  N_26 
REMARK   14  A    between atoms: C_12  and  O_32 
REMARK   15  A    between atoms: O_34  and  C_13 
REMARK   16  A    between atoms: O_35  and  C_14 
REMARK   17  A    between atoms: O_37  and  C_15 
REMARK       I    between atoms: N_20  and  C_16 
REMARK       I    between atoms: N_24  and  C_17 
REMARK   18  A    between atoms: S_38  and  C_18 
ROOT
HETATM    1  C   UNK N   1      32.919  17.308   8.577  0.00  0.00     0.167 C 
ENDROOT
BRANCH   1   2
HETATM    2  C   UNK N   1      31.449  16.853   8.611  0.00  0.00     0.116 C 
BRANCH   2   3
HETATM    3  S   UNK N   1      30.215  18.111   9.074  0.00  0.00    -0.090 SA
BRANCH   3   4
HETATM    4  C   UNK N   1      29.224  17.892   7.608  0.00  0.00     0.174 A 
HETATM    5  N   UNK N   1      28.267  18.799   7.279  0.00  0.00    -0.169 N 
HETATM    6  C   UNK N   1      27.505  18.612   6.174  0.00  0.00     0.694 A 
ATOM      7  HN  UNK N   1      28.123  19.621   7.865  1.00  0.00     0.186 HD
HETATM    8  N   UNK N   1      26.603  19.478   5.874  0.00  0.00    -0.226 N 
HETATM    9  N   UNK N   1      27.695  17.505   5.403  0.00  0.00    -0.022 N 
ATOM     10  HN  UNK N   1      26.486  20.294   6.474  1.00  0.00     0.177 HD
HETATM   11  C   UNK N   1      28.649  16.592   5.737  0.00  0.00     0.695 A 
HETATM   12  H   UNK N   1      27.141  17.365   4.601  0.00  0.00     0.203 HD
HETATM   13  N   UNK N   1      28.826  15.528   5.034  0.00  0.00    -0.222 N 
HETATM   14  N   UNK N   1      29.411  16.795   6.837  0.00  0.00    -0.169 N 
ATOM     15  HN  UNK N   1      29.557  14.878   5.321  1.00  0.00     0.178 HD
HETATM   16  H   UNK N   1      30.107  16.140   7.078  0.00  0.00     0.186 HD
BRANCH   8  17
HETATM   17  C   UNK N   1      25.748  19.337   4.720  0.00  0.00     0.133 C 
HETATM   18  C   UNK N   1      26.199  20.295   3.637  0.00  0.00     0.027 C 
ENDBRANCH   8  17
BRANCH  13  19
HETATM   19  C   UNK N   1      28.047  15.204   3.859  0.00  0.00     0.091 C 
HETATM   20  C   UNK N   1      28.947  15.263   2.643  0.00  0.00     0.032 C 
HETATM   21  C   UNK N   1      27.476  13.798   3.967  0.00  0.00     0.032 C 
ENDBRANCH  13  19
ENDBRANCH   3   4
ENDBRANCH   2   3
ENDBRANCH   1   2
BRANCH   1  22
HETATM   22  C   UNK N   1      33.417  17.626   7.172  0.00  0.00     0.136 C 
HETATM   23  N   UNK N   1      32.719  17.293   6.140  0.00  0.00    -0.363 N 
ATOM     24  HN  UNK N   1      31.844  16.787   6.280  1.00  0.00     0.161 HD
BRANCH  23  25
HETATM   25  C   UNK N   1      33.128  17.611   4.796  0.00  0.00     0.231 C 
BRANCH  25  26
HETATM   26  C   UNK N   1      31.955  17.496   3.879  0.00  0.00     0.158 C 
HETATM   27  O   UNK N   1      32.075  16.955   2.791  0.00  0.00    -0.649 OA
BRANCH  26  28
HETATM   28  O   UNK N   1      30.761  17.989   4.253  0.00  0.00    -0.775 OA
HETATM   29  H   UNK N   1      29.889  17.832   3.948  0.00  0.00     0.167 HD
ENDBRANCH  26  28
ENDBRANCH  25  26
ENDBRANCH  23  25
BRANCH  22  30
HETATM   30  O   UNK N   1      34.604  18.250   7.010  0.00  0.00    -0.348 OA
HETATM   31  H   UNK N   1      34.787  19.019   6.508  0.00  0.00     0.219 HD
ENDBRANCH  22  30
ENDBRANCH   1  22
BRANCH   1  32
HETATM   32  N   UNK N   1      33.715  16.269   9.220  0.00  0.00    -0.362 N 
HETATM   33  C   UNK N   1      34.826  16.508   9.839  0.00  0.00     0.111 C 
ATOM     34  HN  UNK N   1      33.380  15.306   9.180  1.00  0.00     0.162 HD
BRANCH  33  35
HETATM   35  C   UNK N   1      35.593  15.384  10.456  0.00  0.00     0.086 C 
BRANCH  35  36
HETATM   36  C   UNK N   1      34.722  14.538  11.389  0.00  0.00     0.043 C 
BRANCH  36  37
HETATM   37  C   UNK N   1      35.332  13.167  11.717  0.00  0.00     0.173 C 
BRANCH  37  38
HETATM   38  C   UNK N   1      36.728  13.310  12.255  0.00  0.00     0.163 C 
HETATM   39  O   UNK N   1      37.657  12.727  11.718  0.00  0.00    -0.648 OA
BRANCH  38  40
HETATM   40  O   UNK N   1      36.956  14.073  13.340  0.00  0.00    -0.775 OA
HETATM   41  H   UNK N   1      36.282  14.405  13.901  0.00  0.00     0.167 HD
ENDBRANCH  38  40
ENDBRANCH  37  38
BRANCH  37  42
HETATM   42  N   UNK N   1      34.499  12.498  12.700  0.00  0.00    -0.418 N 
HETATM   43  H   UNK N   1      34.573  11.515  12.961  0.00  0.00     0.150 HD
HETATM   44  H   UNK N   1      33.782  13.054  13.165  0.00  0.00     0.150 HD
ENDBRANCH  37  42
ENDBRANCH  36  37
ENDBRANCH  35  36
ENDBRANCH  33  35
BRANCH  33  45
HETATM   45  O   UNK N   1      35.292  17.771   9.950  0.00  0.00    -0.350 OA
HETATM   46  H   UNK N   1      35.406  18.661   9.682  0.00  0.00     0.219 HD
ENDBRANCH  33  45
ENDBRANCH   1  32
TORSDOF 18
ENDMDL
MODEL 8
REMARK VINA RESULT:      -6.7     10.398     13.893
REMARK  18 active torsions:
REMARK  status: ('A' for Active; 'I' for Inactive)
REMARK    1  A    between atoms: N_20  and  C_4 
REMARK    2  A    between atoms: C_6  and  C_5 
REMARK    3  A    between atoms: C_10  and  C_5 
REMARK    4  A    between atoms: C_12  and  C_6 
REMARK    5  A    between atoms: C_13  and  C_7 
REMARK    6  A    between atoms: N_22  and  C_7 
REMARK    7  A    between atoms: C_11  and  C_8 
REMARK    8  A    between atoms: S_38  and  C_8 
REMARK    9  A    between atoms: N_24  and  C_9 
REMARK   10  A    between atoms: C_15  and  C_10 
REMARK   11  A    between atoms: C_10  and  N_19 
REMARK   12  A    between atoms: C_14  and  C_11 
REMARK   13  A    between atoms: C_11  and  N_26 
REMARK   14  A    between atoms: C_12  and  O_32 
REMARK   15  A    between atoms: O_34  and  C_13 
REMARK   16  A    between atoms: O_35  and  C_14 
REMARK   17  A    between atoms: O_37  and  C_15 
REMARK       I    between atoms: N_20  and  C_16 
REMARK       I    between atoms: N_24  and  C_17 
REMARK   18  A    between atoms: S_38  and  C_18 
ROOT
HETATM    1  C   UNK N   1      34.793  15.198   9.247  0.00  0.00     0.167 C 
ENDROOT
BRANCH   1   2
HETATM    2  C   UNK N   1      35.000  13.903   8.440  0.00  0.00     0.116 C 
BRANCH   2   3
HETATM    3  S   UNK N   1      33.527  13.199   7.633  0.00  0.00    -0.090 SA
BRANCH   3   4
HETATM    4  C   UNK N   1      33.323  11.884   8.821  0.00  0.00     0.174 A 
HETATM    5  N   UNK N   1      32.591  10.782   8.512  0.00  0.00    -0.169 N 
HETATM    6  C   UNK N   1      32.424   9.798   9.430  0.00  0.00     0.694 A 
ATOM      7  HN  UNK N   1      32.166  10.696   7.589  1.00  0.00     0.186 HD
HETATM    8  N   UNK N   1      31.729   8.760   9.125  0.00  0.00    -0.226 N 
HETATM    9  N   UNK N   1      32.984   9.927  10.665  0.00  0.00    -0.022 N 
ATOM     10  HN  UNK N   1      31.322   8.697   8.191  1.00  0.00     0.177 HD
HETATM   11  C   UNK N   1      33.711  11.035  10.977  0.00  0.00     0.695 A 
HETATM   12  H   UNK N   1      32.863   9.214  11.334  0.00  0.00     0.203 HD
HETATM   13  N   UNK N   1      34.227  11.184  12.147  0.00  0.00    -0.222 N 
HETATM   14  N   UNK N   1      33.880  12.006  10.049  0.00  0.00    -0.169 N 
ATOM     15  HN  UNK N   1      34.769  12.028  12.330  1.00  0.00     0.178 HD
HETATM   16  H   UNK N   1      34.411  12.806  10.268  0.00  0.00     0.186 HD
BRANCH   8  17
HETATM   17  C   UNK N   1      31.501   7.681  10.055  0.00  0.00     0.133 C 
HETATM   18  C   UNK N   1      30.058   7.231   9.963  0.00  0.00     0.027 C 
ENDBRANCH   8  17
BRANCH  13  19
HETATM   19  C   UNK N   1      34.083  10.221  13.216  0.00  0.00     0.091 C 
HETATM   20  C   UNK N   1      35.389   9.474  13.383  0.00  0.00     0.032 C 
HETATM   21  C   UNK N   1      33.758  10.921  14.527  0.00  0.00     0.032 C 
ENDBRANCH  13  19
ENDBRANCH   3   4
ENDBRANCH   2   3
ENDBRANCH   1   2
BRANCH   1  22
HETATM   22  C   UNK N   1      34.671  14.958  10.747  0.00  0.00     0.136 C 
HETATM   23  N   UNK N   1      35.726  14.822  11.476  0.00  0.00    -0.363 N 
ATOM     24  HN  UNK N   1      36.642  14.847  11.025  1.00  0.00     0.161 HD
BRANCH  23  25
HETATM   25  C   UNK N   1      35.661  14.636  12.902  0.00  0.00     0.231 C 
BRANCH  25  26
HETATM   26  C   UNK N   1      36.598  13.544  13.305  0.00  0.00     0.158 C 
HETATM   27  O   UNK N   1      36.826  12.618  12.543  0.00  0.00    -0.649 OA
BRANCH  26  28
HETATM   28  O   UNK N   1      37.194  13.583  14.509  0.00  0.00    -0.775 OA
HETATM   29  H   UNK N   1      37.716  12.960  14.976  0.00  0.00     0.167 HD
ENDBRANCH  26  28
ENDBRANCH  25  26
ENDBRANCH  23  25
BRANCH  22  30
HETATM   30  O   UNK N   1      33.447  14.876  11.311  0.00  0.00    -0.348 OA
HETATM   31  H   UNK N   1      33.043  15.479  11.904  0.00  0.00     0.219 HD
ENDBRANCH  22  30
ENDBRANCH   1  22
BRANCH   1  32
HETATM   32  N   UNK N   1      33.620  15.872   8.702  0.00  0.00    -0.362 N 
HETATM   33  C   UNK N   1      33.534  17.158   8.581  0.00  0.00     0.111 C 
ATOM     34  HN  UNK N   1      32.830  15.303   8.400  1.00  0.00     0.162 HD
BRANCH  33  35
HETATM   35  C   UNK N   1      32.290  17.773   8.030  0.00  0.00     0.086 C 
BRANCH  35  36
HETATM   36  C   UNK N   1      31.029  17.225   8.705  0.00  0.00     0.043 C 
BRANCH  36  37
HETATM   37  C   UNK N   1      29.910  18.267   8.848  0.00  0.00     0.173 C 
BRANCH  37  38
HETATM   38  C   UNK N   1      28.570  17.673   8.520  0.00  0.00     0.163 C 
HETATM   39  O   UNK N   1      28.424  17.000   7.512  0.00  0.00    -0.648 OA
BRANCH  38  40
HETATM   40  O   UNK N   1      27.519  17.892   9.333  0.00  0.00    -0.775 OA
HETATM   41  H   UNK N   1      26.780  18.421   9.106  0.00  0.00     0.167 HD
ENDBRANCH  38  40
ENDBRANCH  37  38
BRANCH  37  42
HETATM   42  N   UNK N   1      29.899  18.771  10.210  0.00  0.00    -0.418 N 
HETATM   43  H   UNK N   1      29.926  18.193  11.050  0.00  0.00     0.150 HD
HETATM   44  H   UNK N   1      29.860  19.782  10.337  0.00  0.00     0.150 HD
ENDBRANCH  37  42
ENDBRANCH  36  37
ENDBRANCH  35  36
ENDBRANCH  33  35
BRANCH  33  45
HETATM   45  O   UNK N   1      34.569  17.951   8.933  0.00  0.00    -0.350 OA
HETATM   46  H   UNK N   1      35.006  18.598   9.450  0.00  0.00     0.219 HD
ENDBRANCH  33  45
ENDBRANCH   1  32
TORSDOF 18
ENDMDL
MODEL 9
REMARK VINA RESULT:      -6.7      3.359      6.142
REMARK  18 active torsions:
REMARK  status: ('A' for Active; 'I' for Inactive)
REMARK    1  A    between atoms: N_20  and  C_4 
REMARK    2  A    between atoms: C_6  and  C_5 
REMARK    3  A    between atoms: C_10  and  C_5 
REMARK    4  A    between atoms: C_12  and  C_6 
REMARK    5  A    between atoms: C_13  and  C_7 
REMARK    6  A    between atoms: N_22  and  C_7 
REMARK    7  A    between atoms: C_11  and  C_8 
REMARK    8  A    between atoms: S_38  and  C_8 
REMARK    9  A    between atoms: N_24  and  C_9 
REMARK   10  A    between atoms: C_15  and  C_10 
REMARK   11  A    between atoms: C_10  and  N_19 
REMARK   12  A    between atoms: C_14  and  C_11 
REMARK   13  A    between atoms: C_11  and  N_26 
REMARK   14  A    between atoms: C_12  and  O_32 
REMARK   15  A    between atoms: O_34  and  C_13 
REMARK   16  A    between atoms: O_35  and  C_14 
REMARK   17  A    between atoms: O_37  and  C_15 
REMARK       I    between atoms: N_20  and  C_16 
REMARK       I    between atoms: N_24  and  C_17 
REMARK   18  A    between atoms: S_38  and  C_18 
ROOT
HETATM    1  C   UNK N   1      24.360  17.972   4.648  0.00  0.00     0.167 C 
ENDROOT
BRANCH   1   2
HETATM    2  C   UNK N   1      24.890  18.837   3.490  0.00  0.00     0.116 C 
BRANCH   2   3
HETATM    3  S   UNK N   1      25.736  20.384   3.948  0.00  0.00    -0.090 SA
BRANCH   3   4
HETATM    4  C   UNK N   1      26.990  19.581   4.929  0.00  0.00     0.174 A 
HETATM    5  N   UNK N   1      26.930  19.612   6.286  0.00  0.00    -0.169 N 
HETATM    6  C   UNK N   1      27.900  19.017   7.023  0.00  0.00     0.694 A 
ATOM      7  HN  UNK N   1      26.155  20.084   6.750  1.00  0.00     0.186 HD
HETATM    8  N   UNK N   1      27.831  19.053   8.307  0.00  0.00    -0.226 N 
HETATM    9  N   UNK N   1      28.939  18.399   6.396  0.00  0.00    -0.022 N 
ATOM     10  HN  UNK N   1      27.040  19.527   8.743  1.00  0.00     0.177 HD
HETATM   11  C   UNK N   1      29.004  18.375   5.036  0.00  0.00     0.695 A 
HETATM   12  H   UNK N   1      29.647  17.967   6.928  0.00  0.00     0.203 HD
HETATM   13  N   UNK N   1      29.991  17.817   4.427  0.00  0.00    -0.222 N 
HETATM   14  N   UNK N   1      28.024  18.963   4.310  0.00  0.00    -0.169 N 
ATOM     15  HN  UNK N   1      29.990  17.818   3.407  1.00  0.00     0.178 HD
HETATM   16  H   UNK N   1      28.063  18.942   3.326  0.00  0.00     0.186 HD
BRANCH   8  17
HETATM   17  C   UNK N   1      28.833  18.452   9.152  0.00  0.00     0.133 C 
HETATM   18  C   UNK N   1      28.321  17.127   9.679  0.00  0.00     0.027 C 
ENDBRANCH   8  17
BRANCH  13  19
HETATM   19  C   UNK N   1      31.100  17.186   5.107  0.00  0.00     0.091 C 
HETATM   20  C   UNK N   1      30.933  15.683   5.029  0.00  0.00     0.032 C 
HETATM   21  C   UNK N   1      32.417  17.558   4.443  0.00  0.00     0.032 C 
ENDBRANCH  13  19
ENDBRANCH   3   4
ENDBRANCH   2   3
ENDBRANCH   1   2
BRANCH   1  22
HETATM   22  C   UNK N   1      25.225  16.749   4.928  0.00  0.00     0.136 C 
HETATM   23  N   UNK N   1      25.504  15.915   3.984  0.00  0.00    -0.363 N 
ATOM     24  HN  UNK N   1      25.110  16.073   3.056  1.00  0.00     0.161 HD
BRANCH  23  25
HETATM   25  C   UNK N   1      26.352  14.770   4.192  0.00  0.00     0.231 C 
BRANCH  25  26
HETATM   26  C   UNK N   1      27.484  14.805   3.217  0.00  0.00     0.158 C 
HETATM   27  O   UNK N   1      27.833  13.786   2.643  0.00  0.00    -0.649 OA
BRANCH  26  28
HETATM   28  O   UNK N   1      28.118  15.965   2.969  0.00  0.00    -0.775 OA
HETATM   29  H   UNK N   1      28.610  16.545   3.516  0.00  0.00     0.167 HD
ENDBRANCH  26  28
ENDBRANCH  25  26
ENDBRANCH  23  25
BRANCH  22  30
HETATM   30  O   UNK N   1      25.691  16.534   6.177  0.00  0.00    -0.348 OA
HETATM   31  H   UNK N   1      25.925  17.171   6.823  0.00  0.00     0.219 HD
ENDBRANCH  22  30
ENDBRANCH   1  22
BRANCH   1  32
HETATM   32  N   UNK N   1      22.983  17.610   4.331  0.00  0.00    -0.362 N 
HETATM   33  C   UNK N   1      22.018  17.672   5.191  0.00  0.00     0.111 C 
ATOM     34  HN  UNK N   1      22.770  17.294   3.385  1.00  0.00     0.162 HD
BRANCH  33  35
HETATM   35  C   UNK N   1      20.637  17.266   4.793  0.00  0.00     0.086 C 
BRANCH  35  36
HETATM   36  C   UNK N   1      20.408  17.411   3.286  0.00  0.00     0.043 C 
BRANCH  36  37
HETATM   37  C   UNK N   1      19.849  18.783   2.882  0.00  0.00     0.173 C 
BRANCH  37  38
HETATM   38  C   UNK N   1      20.816  19.525   2.002  0.00  0.00     0.163 C 
HETATM   39  O   UNK N   1      21.840  19.995   2.472  0.00  0.00    -0.648 OA
BRANCH  38  40
HETATM   40  O   UNK N   1      20.548  19.683   0.692  0.00  0.00    -0.775 OA
HETATM   41  H   UNK N   1      19.691  19.840   0.346  0.00  0.00     0.167 HD
ENDBRANCH  38  40
ENDBRANCH  37  38
BRANCH  37  42
HETATM   42  N   UNK N   1      18.594  18.599   2.177  0.00  0.00    -0.418 N 
HETATM   43  H   UNK N   1      18.297  19.128   1.358  0.00  0.00     0.150 HD
HETATM   44  H   UNK N   1      17.958  17.883   2.529  0.00  0.00     0.150 HD
ENDBRANCH  37  42
ENDBRANCH  36  37
ENDBRANCH  35  36
ENDBRANCH  33  35
BRANCH  33  45
HETATM   45  O   UNK N   1      22.245  18.120   6.445  0.00  0.00    -0.350 OA
HETATM   46  H   UNK N   1      22.766  18.302   7.201  0.00  0.00     0.219 HD
ENDBRANCH  33  45
ENDBRANCH   1  32
TORSDOF 18
ENDMDL
