MODEL 1
REMARK VINA RESULT:      -8.4      0.000      0.000
REMARK  16 active torsions:
REMARK  status: ('A' for Active; 'I' for Inactive)
REMARK    1  A    between atoms: C_26  and  C_19 
REMARK    2  A    between atoms: C_29  and  C_19 
REMARK    3  A    between atoms: C_29  and  C_20 
REMARK    4  A    between atoms: C_30  and  C_20 
REMARK    5  A    between atoms: C_30  and  C_23 
REMARK    6  A    between atoms: N_45  and  C_23 
REMARK    7  A    between atoms: C_31  and  C_24 
REMARK    8  A    between atoms: N_44  and  C_24 
REMARK    9  A    between atoms: C_29  and  C_37 
REMARK   10  A    between atoms: C_30  and  O_46 
REMARK   11  A    between atoms: C_33  and  C_38 
REMARK   12  A    between atoms: C_34  and  O_47 
REMARK   13  A    between atoms: C_36  and  N_40 
REMARK   14  A    between atoms: C_37  and  O_48 
REMARK   15  A    between atoms: O_49  and  C_38 
REMARK   16  A    between atoms: N_42  and  C_39 
ROOT
HETATM    1  C   UNK N   1      35.809  15.689  10.679  0.00  0.00     0.147 C 
ENDROOT
BRANCH   1   2
HETATM    2  C   UNK N   1      35.104  16.732   9.797  0.00  0.00     0.046 C 
BRANCH   2   3
HETATM    3  C   UNK N   1      34.062  16.279   8.765  0.00  0.00     0.067 C 
BRANCH   3   4
HETATM    4  C   UNK N   1      34.729  15.845   7.450  0.00  0.00     0.051 C 
BRANCH   4   5
HETATM    5  C   UNK N   1      33.816  15.368   6.368  0.00  0.00    -0.057 A 
HETATM    6  C   UNK N   1      33.885  15.983   5.115  0.00  0.00     0.007 A 
HETATM    7  C   UNK N   1      33.021  15.591   4.090  0.00  0.00     0.001 A 
HETATM    8  C   UNK N   1      32.083  14.580   4.318  0.00  0.00     0.000 A 
HETATM    9  C   UNK N   1      32.006  13.965   5.570  0.00  0.00     0.001 A 
HETATM   10  C   UNK N   1      32.867  14.365   6.597  0.00  0.00     0.007 A 
ENDBRANCH   4   5
ENDBRANCH   3   4
BRANCH   3  11
HETATM   11  C   UNK N   1      33.027  17.357   8.528  0.00  0.00     0.116 C 
HETATM   12  N   UNK N   1      31.800  17.139   8.868  0.00  0.00    -0.363 N 
ATOM     13  HN  UNK N   1      31.586  16.247   9.314  1.00  0.00     0.162 HD
BRANCH  12  14
HETATM   14  C   UNK N   1      30.707  18.071   8.664  0.00  0.00     0.146 C 
HETATM   15  C   UNK N   1      29.863  17.676   7.512  0.00  0.00    -0.027 A 
HETATM   16  C   UNK N   1      30.294  17.235   6.258  0.00  0.00     0.010 A 
HETATM   17  C   UNK N   1      28.533  17.874   7.773  0.00  0.00    -0.047 A 
HETATM   18  C   UNK N   1      29.332  16.950   5.278  0.00  0.00     0.001 A 
HETATM   19  C   UNK N   1      27.965  17.141   5.552  0.00  0.00     0.001 A 
HETATM   20  C   UNK N   1      27.559  17.621   6.806  0.00  0.00     0.008 A 
HETATM   21  C   UNK N   1      28.306  18.420   9.132  0.00  0.00     0.073 C 
HETATM   22  C   UNK N   1      29.647  18.080   9.806  0.00  0.00     0.149 C 
BRANCH  22  23
HETATM   23  O   UNK N   1      29.515  16.794  10.340  0.00  0.00    -0.393 OA
HETATM   24  H   UNK N   1      29.415  16.039  10.942  0.00  0.00     0.210 HD
ENDBRANCH  22  23
ENDBRANCH  12  14
BRANCH  11  25
HETATM   25  O   UNK N   1      33.389  18.546   7.996  0.00  0.00    -0.349 OA
HETATM   26  H   UNK N   1      32.954  18.955   7.274  0.00  0.00     0.219 HD
ENDBRANCH  11  25
ENDBRANCH   3  11
ENDBRANCH   2   3
ENDBRANCH   1   2
BRANCH   1  27
HETATM   27  C   UNK N   1      36.262  14.475   9.854  0.00  0.00     0.305 C 
BRANCH  27  28
HETATM   28  N   UNK N   1      35.395  13.318  10.089  0.00  0.00     0.106 N 
HETATM   29  C   UNK N   1      34.987  13.401  11.502  0.00  0.00     0.303 C 
HETATM   30  C   UNK N   1      34.942  12.043  12.196  0.00  0.00     0.303 C 
HETATM   31  N   UNK N   1      36.259  11.378  12.167  0.00  0.00     0.098 N 
HETATM   32  C   UNK N   1      36.920  11.483  10.852  0.00  0.00     0.317 C 
HETATM   33  C   UNK N   1      36.004  12.012   9.725  0.00  0.00     0.324 C 
BRANCH  31  34
HETATM   34  C   UNK N   1      37.212  11.947  13.130  0.00  0.00     0.337 C 
BRANCH  34  35
HETATM   35  C   UNK N   1      36.678  12.122  14.522  0.00  0.00     0.083 A 
HETATM   36  C   UNK N   1      36.293  13.320  15.134  0.00  0.00     0.049 A 
HETATM   37  C   UNK N   1      35.905  12.926  16.396  0.00  0.00     0.000 A 
HETATM   38  C   UNK N   1      35.422  13.667  17.477  0.00  0.00     0.014 A 
HETATM   39  C   UNK N   1      36.069  11.571  16.484  0.00  0.00     0.086 A 
HETATM   40  C   UNK N   1      35.113  12.971  18.663  0.00  0.00     0.001 A 
HETATM   41  C   UNK N   1      35.294  11.570  18.741  0.00  0.00     0.003 A 
HETATM   42  C   UNK N   1      35.779  10.854  17.632  0.00  0.00     0.038 A 
HETATM   43  O   UNK N   1      36.530  11.112  15.348  0.00  0.00    -0.312 OA
ENDBRANCH  34  35
ENDBRANCH  31  34
BRANCH  33  44
HETATM   44  C   UNK N   1      36.722  12.058   8.391  0.00  0.00     0.148 C 
HETATM   45  N   UNK N   1      36.027  12.206   7.305  0.00  0.00    -0.364 N 
ATOM     46  HN  UNK N   1      35.018  12.298   7.433  1.00  0.00     0.162 HD
BRANCH  45  47
HETATM   47  C   UNK N   1      36.499  12.258   5.923  0.00  0.00     0.021 C 
HETATM   48  C   UNK N   1      35.307  12.086   5.006  0.00  0.00     0.037 C 
HETATM   49  C   UNK N   1      37.531  11.206   5.543  0.00  0.00     0.037 C 
HETATM   50  C   UNK N   1      37.101  13.622   5.660  0.00  0.00     0.037 C 
ENDBRANCH  45  47
BRANCH  44  51
HETATM   51  O   UNK N   1      38.067  11.950   8.357  0.00  0.00    -0.348 OA
HETATM   52  H   UNK N   1      38.752  11.355   8.122  0.00  0.00     0.219 HD
ENDBRANCH  44  51
ENDBRANCH  33  44
ENDBRANCH  27  28
ENDBRANCH   1  27
BRANCH   1  53
HETATM   53  O   UNK N   1      36.921  16.301  11.258  0.00  0.00    -0.394 OA
HETATM   54  H   UNK N   1      37.823  15.956  11.174  0.00  0.00     0.210 HD
ENDBRANCH   1  53
TORSDOF 16
ENDMDL
MODEL 2
REMARK VINA RESULT:      -8.3      2.027     10.319
REMARK  16 active torsions:
REMARK  status: ('A' for Active; 'I' for Inactive)
REMARK    1  A    between atoms: C_26  and  C_19 
REMARK    2  A    between atoms: C_29  and  C_19 
REMARK    3  A    between atoms: C_29  and  C_20 
REMARK    4  A    between atoms: C_30  and  C_20 
REMARK    5  A    between atoms: C_30  and  C_23 
REMARK    6  A    between atoms: N_45  and  C_23 
REMARK    7  A    between atoms: C_31  and  C_24 
REMARK    8  A    between atoms: N_44  and  C_24 
REMARK    9  A    between atoms: C_29  and  C_37 
REMARK   10  A    between atoms: C_30  and  O_46 
REMARK   11  A    between atoms: C_33  and  C_38 
REMARK   12  A    between atoms: C_34  and  O_47 
REMARK   13  A    between atoms: C_36  and  N_40 
REMARK   14  A    between atoms: C_37  and  O_48 
REMARK   15  A    between atoms: O_49  and  C_38 
REMARK   16  A    between atoms: N_42  and  C_39 
ROOT
HETATM    1  C   UNK N   1      36.161  14.900  11.147  0.00  0.00     0.147 C 
ENDROOT
BRANCH   1   2
HETATM    2  C   UNK N   1      35.812  14.778  12.638  0.00  0.00     0.046 C 
BRANCH   2   3
HETATM    3  C   UNK N   1      36.373  13.608  13.460  0.00  0.00     0.067 C 
BRANCH   3   4
HETATM    4  C   UNK N   1      36.690  12.399  12.566  0.00  0.00     0.051 C 
BRANCH   4   5
HETATM    5  C   UNK N   1      37.135  11.156  13.265  0.00  0.00    -0.057 A 
HETATM    6  C   UNK N   1      36.384   9.989  13.098  0.00  0.00     0.007 A 
HETATM    7  C   UNK N   1      36.747   8.817  13.766  0.00  0.00     0.001 A 
HETATM    8  C   UNK N   1      37.865   8.810  14.605  0.00  0.00     0.000 A 
HETATM    9  C   UNK N   1      38.616   9.976  14.779  0.00  0.00     0.001 A 
HETATM   10  C   UNK N   1      38.247  11.150  14.116  0.00  0.00     0.007 A 
ENDBRANCH   4   5
ENDBRANCH   3   4
BRANCH   3  11
HETATM   11  C   UNK N   1      35.432  13.232  14.583  0.00  0.00     0.116 C 
HETATM   12  N   UNK N   1      35.772  13.489  15.803  0.00  0.00    -0.363 N 
ATOM     13  HN  UNK N   1      36.660  13.967  15.954  1.00  0.00     0.162 HD
BRANCH  12  14
HETATM   14  C   UNK N   1      34.980  13.149  16.971  0.00  0.00     0.146 C 
HETATM   15  C   UNK N   1      35.507  11.943  17.652  0.00  0.00    -0.027 A 
HETATM   16  C   UNK N   1      35.932  10.752  17.057  0.00  0.00     0.010 A 
HETATM   17  C   UNK N   1      35.458  12.075  19.015  0.00  0.00    -0.047 A 
HETATM   18  C   UNK N   1      36.358   9.702  17.884  0.00  0.00     0.001 A 
HETATM   19  C   UNK N   1      36.320   9.843  19.284  0.00  0.00     0.001 A 
HETATM   20  C   UNK N   1      35.852  11.036  19.858  0.00  0.00     0.008 A 
HETATM   21  C   UNK N   1      34.901  13.384  19.429  0.00  0.00     0.073 C 
HETATM   22  C   UNK N   1      35.061  14.189  18.127  0.00  0.00     0.149 C 
BRANCH  22  23
HETATM   23  O   UNK N   1      36.337  14.762  18.163  0.00  0.00    -0.393 OA
HETATM   24  H   UNK N   1      37.092  15.364  18.071  0.00  0.00     0.210 HD
ENDBRANCH  22  23
ENDBRANCH  12  14
BRANCH  11  25
HETATM   25  O   UNK N   1      34.237  12.663  14.311  0.00  0.00    -0.349 OA
HETATM   26  H   UNK N   1      33.761  12.792  13.513  0.00  0.00     0.219 HD
ENDBRANCH  11  25
ENDBRANCH   3  11
ENDBRANCH   2   3
ENDBRANCH   1   2
BRANCH   1  27
HETATM   27  C   UNK N   1      34.898  15.076  10.290  0.00  0.00     0.305 C 
BRANCH  27  28
HETATM   28  N   UNK N   1      35.170  15.886   9.101  0.00  0.00     0.106 N 
HETATM   29  C   UNK N   1      34.237  17.024   9.166  0.00  0.00     0.303 C 
HETATM   30  C   UNK N   1      33.663  17.410   7.806  0.00  0.00     0.303 C 
HETATM   31  N   UNK N   1      32.929  16.286   7.191  0.00  0.00     0.098 N 
HETATM   32  C   UNK N   1      33.643  15.002   7.324  0.00  0.00     0.317 C 
HETATM   33  C   UNK N   1      35.101  15.137   7.819  0.00  0.00     0.324 C 
BRANCH  31  34
HETATM   34  C   UNK N   1      31.607  16.064   7.795  0.00  0.00     0.337 C 
BRANCH  34  35
HETATM   35  C   UNK N   1      30.526  16.985   7.309  0.00  0.00     0.083 A 
HETATM   36  C   UNK N   1      29.741  17.847   8.082  0.00  0.00     0.049 A 
HETATM   37  C   UNK N   1      28.905  18.436   7.158  0.00  0.00     0.000 A 
HETATM   38  C   UNK N   1      27.894  19.386   7.315  0.00  0.00     0.014 A 
HETATM   39  C   UNK N   1      29.208  17.922   5.927  0.00  0.00     0.086 A 
HETATM   40  C   UNK N   1      27.194  19.794   6.162  0.00  0.00     0.001 A 
HETATM   41  C   UNK N   1      27.514  19.250   4.896  0.00  0.00     0.003 A 
HETATM   42  C   UNK N   1      28.542  18.297   4.774  0.00  0.00     0.038 A 
HETATM   43  O   UNK N   1      30.185  17.057   6.043  0.00  0.00    -0.312 OA
ENDBRANCH  34  35
ENDBRANCH  31  34
BRANCH  33  44
HETATM   44  C   UNK N   1      35.796  13.792   7.895  0.00  0.00     0.148 C 
HETATM   45  N   UNK N   1      37.092  13.750   7.858  0.00  0.00    -0.364 N 
ATOM     46  HN  UNK N   1      37.564  14.653   7.795  1.00  0.00     0.162 HD
BRANCH  45  47
HETATM   47  C   UNK N   1      37.965  12.579   7.897  0.00  0.00     0.021 C 
HETATM   48  C   UNK N   1      39.402  13.054   7.853  0.00  0.00     0.037 C 
HETATM   49  C   UNK N   1      37.773  11.579   6.764  0.00  0.00     0.037 C 
HETATM   50  C   UNK N   1      37.753  11.849   9.207  0.00  0.00     0.037 C 
ENDBRANCH  45  47
BRANCH  44  51
HETATM   51  O   UNK N   1      35.057  12.667   8.004  0.00  0.00    -0.348 OA
HETATM   52  H   UNK N   1      34.655  11.998   7.485  0.00  0.00     0.219 HD
ENDBRANCH  44  51
ENDBRANCH  33  44
ENDBRANCH  27  28
ENDBRANCH   1  27
BRANCH   1  53
HETATM   53  O   UNK N   1      36.989  16.011  10.992  0.00  0.00    -0.394 OA
HETATM   54  H   UNK N   1      37.506  16.183  10.189  0.00  0.00     0.210 HD
ENDBRANCH   1  53
TORSDOF 16
ENDMDL
MODEL 3
REMARK VINA RESULT:      -8.1      9.750     14.813
REMARK  16 active torsions:
REMARK  status: ('A' for Active; 'I' for Inactive)
REMARK    1  A    between atoms: C_26  and  C_19 
REMARK    2  A    between atoms: C_29  and  C_19 
REMARK    3  A    between atoms: C_29  and  C_20 
REMARK    4  A    between atoms: C_30  and  C_20 
REMARK    5  A    between atoms: C_30  and  C_23 
REMARK    6  A    between atoms: N_45  and  C_23 
REMARK    7  A    between atoms: C_31  and  C_24 
REMARK    8  A    between atoms: N_44  and  C_24 
REMARK    9  A    between atoms: C_29  and  C_37 
REMARK   10  A    between atoms: C_30  and  O_46 
REMARK   11  A    between atoms: C_33  and  C_38 
REMARK   12  A    between atoms: C_34  and  O_47 
REMARK   13  A    between atoms: C_36  and  N_40 
REMARK   14  A    between atoms: C_37  and  O_48 
REMARK   15  A    between atoms: O_49  and  C_38 
REMARK   16  A    between atoms: N_42  and  C_39 
ROOT
HETATM    1  C   UNK N   1      22.549  13.930   5.366  0.00  0.00     0.147 C 
ENDROOT
BRANCH   1   2
HETATM    2  C   UNK N   1      22.829  13.470   3.926  0.00  0.00     0.046 C 
BRANCH   2   3
HETATM    3  C   UNK N   1      23.034  14.513   2.819  0.00  0.00     0.067 C 
BRANCH   3   4
HETATM    4  C   UNK N   1      22.775  13.912   1.429  0.00  0.00     0.051 C 
BRANCH   4   5
HETATM    5  C   UNK N   1      21.345  13.783   1.017  0.00  0.00    -0.057 A 
HETATM    6  C   UNK N   1      20.565  14.940   0.939  0.00  0.00     0.007 A 
HETATM    7  C   UNK N   1      19.214  14.856   0.595  0.00  0.00     0.001 A 
HETATM    8  C   UNK N   1      18.639  13.610   0.328  0.00  0.00     0.000 A 
HETATM    9  C   UNK N   1      19.413  12.450   0.409  0.00  0.00     0.001 A 
HETATM   10  C   UNK N   1      20.764  12.536   0.762  0.00  0.00     0.007 A 
ENDBRANCH   4   5
ENDBRANCH   3   4
BRANCH   3  11
HETATM   11  C   UNK N   1      24.413  15.132   2.903  0.00  0.00     0.116 C 
HETATM   12  N   UNK N   1      24.742  15.795   3.962  0.00  0.00    -0.363 N 
ATOM     13  HN  UNK N   1      24.059  15.848   4.717  1.00  0.00     0.162 HD
BRANCH  12  14
HETATM   14  C   UNK N   1      26.015  16.466   4.155  0.00  0.00     0.146 C 
HETATM   15  C   UNK N   1      25.846  17.934   4.252  0.00  0.00    -0.027 A 
HETATM   16  C   UNK N   1      25.045  18.750   3.447  0.00  0.00     0.010 A 
HETATM   17  C   UNK N   1      26.663  18.471   5.211  0.00  0.00    -0.047 A 
HETATM   18  C   UNK N   1      25.056  20.135   3.672  0.00  0.00     0.001 A 
HETATM   19  C   UNK N   1      25.887  20.683   4.666  0.00  0.00     0.001 A 
HETATM   20  C   UNK N   1      26.711  19.847   5.436  0.00  0.00     0.008 A 
HETATM   21  C   UNK N   1      27.482  17.438   5.888  0.00  0.00     0.073 C 
HETATM   22  C   UNK N   1      26.700  16.165   5.521  0.00  0.00     0.149 C 
BRANCH  22  23
HETATM   23  O   UNK N   1      25.727  15.991   6.512  0.00  0.00    -0.393 OA
HETATM   24  H   UNK N   1      24.892  15.964   7.005  0.00  0.00     0.210 HD
ENDBRANCH  22  23
ENDBRANCH  12  14
BRANCH  11  25
HETATM   25  O   UNK N   1      25.299  14.965   1.896  0.00  0.00    -0.349 OA
HETATM   26  H   UNK N   1      25.103  15.115   0.992  0.00  0.00     0.219 HD
ENDBRANCH  11  25
ENDBRANCH   3  11
ENDBRANCH   2   3
ENDBRANCH   1   2
BRANCH   1  27
HETATM   27  C   UNK N   1      21.455  13.075   6.022  0.00  0.00     0.305 C 
BRANCH  27  28
HETATM   28  N   UNK N   1      20.372  13.910   6.547  0.00  0.00     0.106 N 
HETATM   29  C   UNK N   1      20.090  14.909   5.502  0.00  0.00     0.303 C 
HETATM   30  C   UNK N   1      19.793  16.297   6.062  0.00  0.00     0.303 C 
HETATM   31  N   UNK N   1      20.925  16.812   6.857  0.00  0.00     0.098 N 
HETATM   32  C   UNK N   1      21.500  15.792   7.754  0.00  0.00     0.317 C 
HETATM   33  C   UNK N   1      20.648  14.508   7.879  0.00  0.00     0.324 C 
BRANCH  31  34
HETATM   34  C   UNK N   1      22.044  17.280   6.027  0.00  0.00     0.337 C 
BRANCH  34  35
HETATM   35  C   UNK N   1      21.644  17.998   4.771  0.00  0.00     0.083 A 
HETATM   36  C   UNK N   1      21.351  17.425   3.528  0.00  0.00     0.049 A 
HETATM   37  C   UNK N   1      21.069  18.513   2.731  0.00  0.00     0.000 A 
HETATM   38  C   UNK N   1      20.708  18.590   1.384  0.00  0.00     0.014 A 
HETATM   39  C   UNK N   1      21.204  19.641   3.493  0.00  0.00     0.086 A 
HETATM   40  C   UNK N   1      20.491  19.871   0.837  0.00  0.00     0.001 A 
HETATM   41  C   UNK N   1      20.639  21.029   1.636  0.00  0.00     0.003 A 
HETATM   42  C   UNK N   1      21.001  20.914   2.990  0.00  0.00     0.038 A 
HETATM   43  O   UNK N   1      21.546  19.306   4.712  0.00  0.00    -0.312 OA
ENDBRANCH  34  35
ENDBRANCH  31  34
BRANCH  33  44
HETATM   44  C   UNK N   1      21.265  13.516   8.844  0.00  0.00     0.148 C 
HETATM   45  N   UNK N   1      22.558  13.438   8.928  0.00  0.00    -0.364 N 
ATOM     46  HN  UNK N   1      23.081  14.080   8.331  1.00  0.00     0.162 HD
BRANCH  45  47
HETATM   47  C   UNK N   1      23.363  12.553   9.766  0.00  0.00     0.021 C 
HETATM   48  C   UNK N   1      23.412  11.189   9.110  0.00  0.00     0.037 C 
HETATM   49  C   UNK N   1      22.862  12.363  11.191  0.00  0.00     0.037 C 
HETATM   50  C   UNK N   1      24.777  13.091   9.835  0.00  0.00     0.037 C 
ENDBRANCH  45  47
BRANCH  44  51
HETATM   51  O   UNK N   1      20.462  12.738   9.601  0.00  0.00    -0.348 OA
HETATM   52  H   UNK N   1      19.628  12.738  10.028  0.00  0.00     0.219 HD
ENDBRANCH  44  51
ENDBRANCH  33  44
ENDBRANCH  27  28
ENDBRANCH   1  27
BRANCH   1  53
HETATM   53  O   UNK N   1      23.735  13.807   6.091  0.00  0.00    -0.394 OA
HETATM   54  H   UNK N   1      23.946  14.355   6.863  0.00  0.00     0.210 HD
ENDBRANCH   1  53
TORSDOF 16
ENDMDL
MODEL 4
REMARK VINA RESULT:      -7.9      7.519     12.372
REMARK  16 active torsions:
REMARK  status: ('A' for Active; 'I' for Inactive)
REMARK    1  A    between atoms: C_26  and  C_19 
REMARK    2  A    between atoms: C_29  and  C_19 
REMARK    3  A    between atoms: C_29  and  C_20 
REMARK    4  A    between atoms: C_30  and  C_20 
REMARK    5  A    between atoms: C_30  and  C_23 
REMARK    6  A    between atoms: N_45  and  C_23 
REMARK    7  A    between atoms: C_31  and  C_24 
REMARK    8  A    between atoms: N_44  and  C_24 
REMARK    9  A    between atoms: C_29  and  C_37 
REMARK   10  A    between atoms: C_30  and  O_46 
REMARK   11  A    between atoms: C_33  and  C_38 
REMARK   12  A    between atoms: C_34  and  O_47 
REMARK   13  A    between atoms: C_36  and  N_40 
REMARK   14  A    between atoms: C_37  and  O_48 
REMARK   15  A    between atoms: O_49  and  C_38 
REMARK   16  A    between atoms: N_42  and  C_39 
ROOT
HETATM    1  C   UNK N   1      23.325  13.118   5.523  0.00  0.00     0.147 C 
ENDROOT
BRANCH   1   2
HETATM    2  C   UNK N   1      22.083  13.769   6.151  0.00  0.00     0.046 C 
BRANCH   2   3
HETATM    3  C   UNK N   1      22.239  14.695   7.366  0.00  0.00     0.067 C 
BRANCH   3   4
HETATM    4  C   UNK N   1      21.540  14.114   8.606  0.00  0.00     0.051 C 
BRANCH   4   5
HETATM    5  C   UNK N   1      22.410  13.386   9.578  0.00  0.00    -0.057 A 
HETATM    6  C   UNK N   1      23.789  13.360   9.351  0.00  0.00     0.007 A 
HETATM    7  C   UNK N   1      24.631  12.657  10.216  0.00  0.00     0.001 A 
HETATM    8  C   UNK N   1      24.093  11.978  11.313  0.00  0.00     0.000 A 
HETATM    9  C   UNK N   1      22.715  11.998  11.541  0.00  0.00     0.001 A 
HETATM   10  C   UNK N   1      21.873  12.695  10.669  0.00  0.00     0.007 A 
ENDBRANCH   4   5
ENDBRANCH   3   4
BRANCH   3  11
HETATM   11  C   UNK N   1      21.738  16.089   7.055  0.00  0.00     0.116 C 
HETATM   12  N   UNK N   1      21.966  16.594   5.888  0.00  0.00    -0.363 N 
ATOM     13  HN  UNK N   1      22.456  16.012   5.209  1.00  0.00     0.162 HD
BRANCH  12  14
HETATM   14  C   UNK N   1      21.573  17.929   5.473  0.00  0.00     0.146 C 
HETATM   15  C   UNK N   1      22.662  18.611   4.736  0.00  0.00    -0.027 A 
HETATM   16  C   UNK N   1      24.019  18.644   5.068  0.00  0.00     0.010 A 
HETATM   17  C   UNK N   1      22.177  19.327   3.673  0.00  0.00    -0.047 A 
HETATM   18  C   UNK N   1      24.892  19.389   4.261  0.00  0.00     0.001 A 
HETATM   19  C   UNK N   1      24.393  20.113   3.162  0.00  0.00     0.001 A 
HETATM   20  C   UNK N   1      23.020  20.095   2.871  0.00  0.00     0.008 A 
HETATM   21  C   UNK N   1      20.704  19.215   3.552  0.00  0.00     0.073 C 
HETATM   22  C   UNK N   1      20.439  17.963   4.406  0.00  0.00     0.149 C 
BRANCH  22  23
HETATM   23  O   UNK N   1      20.556  16.861   3.553  0.00  0.00    -0.393 OA
HETATM   24  H   UNK N   1      20.859  16.227   2.883  0.00  0.00     0.210 HD
ENDBRANCH  22  23
ENDBRANCH  12  14
BRANCH  11  25
HETATM   25  O   UNK N   1      21.033  16.783   7.975  0.00  0.00    -0.349 OA
HETATM   26  H   UNK N   1      20.575  16.391   8.694  0.00  0.00     0.219 HD
ENDBRANCH  11  25
ENDBRANCH   3  11
ENDBRANCH   2   3
ENDBRANCH   1   2
BRANCH   1  27
HETATM   27  C   UNK N   1      24.479  14.124   5.398  0.00  0.00     0.305 C 
BRANCH  27  28
HETATM   28  N   UNK N   1      25.396  13.751   4.319  0.00  0.00     0.106 N 
HETATM   29  C   UNK N   1      26.753  13.905   4.870  0.00  0.00     0.303 C 
HETATM   30  C   UNK N   1      27.747  14.487   3.870  0.00  0.00     0.303 C 
HETATM   31  N   UNK N   1      27.320  15.819   3.397  0.00  0.00     0.098 N 
HETATM   32  C   UNK N   1      25.879  15.876   3.084  0.00  0.00     0.317 C 
HETATM   33  C   UNK N   1      25.185  14.495   3.050  0.00  0.00     0.324 C 
BRANCH  31  34
HETATM   34  C   UNK N   1      27.547  16.881   4.388  0.00  0.00     0.337 C 
BRANCH  34  35
HETATM   35  C   UNK N   1      28.960  16.993   4.883  0.00  0.00     0.083 A 
HETATM   36  C   UNK N   1      29.395  16.940   6.212  0.00  0.00     0.049 A 
HETATM   37  C   UNK N   1      30.759  17.113   6.110  0.00  0.00     0.000 A 
HETATM   38  C   UNK N   1      31.751  17.156   7.092  0.00  0.00     0.014 A 
HETATM   39  C   UNK N   1      31.068  17.260   4.786  0.00  0.00     0.086 A 
HETATM   40  C   UNK N   1      33.080  17.360   6.672  0.00  0.00     0.001 A 
HETATM   41  C   UNK N   1      33.384  17.517   5.299  0.00  0.00     0.003 A 
HETATM   42  C   UNK N   1      32.361  17.464   4.336  0.00  0.00     0.038 A 
HETATM   43  O   UNK N   1      29.974  17.181   4.070  0.00  0.00    -0.312 OA
ENDBRANCH  34  35
ENDBRANCH  31  34
BRANCH  33  44
HETATM   44  C   UNK N   1      23.719  14.611   2.682  0.00  0.00     0.148 C 
HETATM   45  N   UNK N   1      23.144  13.625   2.065  0.00  0.00    -0.364 N 
ATOM     46  HN  UNK N   1      23.734  12.813   1.881  1.00  0.00     0.162 HD
BRANCH  45  47
HETATM   47  C   UNK N   1      21.762  13.525   1.601  0.00  0.00     0.021 C 
HETATM   48  C   UNK N   1      21.665  12.358   0.642  0.00  0.00     0.037 C 
HETATM   49  C   UNK N   1      21.219  14.756   0.889  0.00  0.00     0.037 C 
HETATM   50  C   UNK N   1      20.864  13.235   2.786  0.00  0.00     0.037 C 
ENDBRANCH  45  47
BRANCH  44  51
HETATM   51  O   UNK N   1      23.040  15.733   3.006  0.00  0.00    -0.348 OA
HETATM   52  H   UNK N   1      22.618  16.154   3.729  0.00  0.00     0.219 HD
ENDBRANCH  44  51
ENDBRANCH  33  44
ENDBRANCH  27  28
ENDBRANCH   1  27
BRANCH   1  53
HETATM   53  O   UNK N   1      23.714  12.061   6.345  0.00  0.00    -0.394 OA
HETATM   54  H   UNK N   1      24.080  12.184   7.234  0.00  0.00     0.210 HD
ENDBRANCH   1  53
TORSDOF 16
ENDMDL
MODEL 5
REMARK VINA RESULT:      -7.8      7.220     12.689
REMARK  16 active torsions:
REMARK  status: ('A' for Active; 'I' for Inactive)
REMARK    1  A    between atoms: C_26  and  C_19 
REMARK    2  A    between atoms: C_29  and  C_19 
REMARK    3  A    between atoms: C_29  and  C_20 
REMARK    4  A    between atoms: C_30  and  C_20 
REMARK    5  A    between atoms: C_30  and  C_23 
REMARK    6  A    between atoms: N_45  and  C_23 
REMARK    7  A    between atoms: C_31  and  C_24 
REMARK    8  A    between atoms: N_44  and  C_24 
REMARK    9  A    between atoms: C_29  and  C_37 
REMARK   10  A    between atoms: C_30  and  O_46 
REMARK   11  A    between atoms: C_33  and  C_38 
REMARK   12  A    between atoms: C_34  and  O_47 
REMARK   13  A    between atoms: C_36  and  N_40 
REMARK   14  A    between atoms: C_37  and  O_48 
REMARK   15  A    between atoms: O_49  and  C_38 
REMARK   16  A    between atoms: N_42  and  C_39 
ROOT
HETATM    1  C   UNK N   1      23.552  16.504   3.463  0.00  0.00     0.147 C 
ENDROOT
BRANCH   1   2
HETATM    2  C   UNK N   1      25.024  16.339   3.871  0.00  0.00     0.046 C 
BRANCH   2   3
HETATM    3  C   UNK N   1      25.660  17.336   4.852  0.00  0.00     0.067 C 
BRANCH   3   4
HETATM    4  C   UNK N   1      26.409  18.452   4.107  0.00  0.00     0.051 C 
BRANCH   4   5
HETATM    5  C   UNK N   1      26.786  19.651   4.914  0.00  0.00    -0.057 A 
HETATM    6  C   UNK N   1      28.141  19.915   5.128  0.00  0.00     0.007 A 
HETATM    7  C   UNK N   1      28.532  21.005   5.909  0.00  0.00     0.001 A 
HETATM    8  C   UNK N   1      27.563  21.836   6.480  0.00  0.00     0.000 A 
HETATM    9  C   UNK N   1      26.207  21.574   6.273  0.00  0.00     0.001 A 
HETATM   10  C   UNK N   1      25.818  20.477   5.497  0.00  0.00     0.007 A 
ENDBRANCH   4   5
ENDBRANCH   3   4
BRANCH   3  11
HETATM   11  C   UNK N   1      26.564  16.628   5.837  0.00  0.00     0.116 C 
HETATM   12  N   UNK N   1      27.099  17.304   6.799  0.00  0.00    -0.363 N 
ATOM     13  HN  UNK N   1      26.863  18.294   6.869  1.00  0.00     0.162 HD
BRANCH  12  14
HETATM   14  C   UNK N   1      28.010  16.756   7.787  0.00  0.00     0.146 C 
HETATM   15  C   UNK N   1      29.424  17.023   7.431  0.00  0.00    -0.027 A 
HETATM   16  C   UNK N   1      30.020  16.891   6.174  0.00  0.00     0.010 A 
HETATM   17  C   UNK N   1      30.166  17.353   8.534  0.00  0.00    -0.047 A 
HETATM   18  C   UNK N   1      31.393  17.151   6.050  0.00  0.00     0.001 A 
HETATM   19  C   UNK N   1      32.151  17.502   7.182  0.00  0.00     0.001 A 
HETATM   20  C   UNK N   1      31.537  17.591   8.441  0.00  0.00     0.008 A 
HETATM   21  C   UNK N   1      29.351  17.359   9.773  0.00  0.00     0.073 C 
HETATM   22  C   UNK N   1      27.932  17.442   9.184  0.00  0.00     0.149 C 
BRANCH  22  23
HETATM   23  O   UNK N   1      27.640  18.802   9.029  0.00  0.00    -0.393 OA
HETATM   24  H   UNK N   1      27.702  19.758   8.878  0.00  0.00     0.210 HD
ENDBRANCH  22  23
ENDBRANCH  12  14
BRANCH  11  25
HETATM   25  O   UNK N   1      26.782  15.298   5.730  0.00  0.00    -0.349 OA
HETATM   26  H   UNK N   1      27.631  14.901   5.734  0.00  0.00     0.219 HD
ENDBRANCH  11  25
ENDBRANCH   3  11
ENDBRANCH   2   3
ENDBRANCH   1   2
BRANCH   1  27
HETATM   27  C   UNK N   1      22.626  15.670   4.361  0.00  0.00     0.305 C 
BRANCH  27  28
HETATM   28  N   UNK N   1      22.057  16.482   5.439  0.00  0.00     0.106 N 
HETATM   29  C   UNK N   1      22.580  15.912   6.693  0.00  0.00     0.303 C 
HETATM   30  C   UNK N   1      21.548  15.883   7.816  0.00  0.00     0.303 C 
HETATM   31  N   UNK N   1      20.364  15.084   7.440  0.00  0.00     0.098 N 
HETATM   32  C   UNK N   1      19.909  15.357   6.064  0.00  0.00     0.317 C 
HETATM   33  C   UNK N   1      20.575  16.589   5.409  0.00  0.00     0.324 C 
BRANCH  31  34
HETATM   34  C   UNK N   1      20.607  13.636   7.494  0.00  0.00     0.337 C 
BRANCH  34  35
HETATM   35  C   UNK N   1      21.407  13.171   8.675  0.00  0.00     0.083 A 
HETATM   36  C   UNK N   1      20.937  12.929   9.971  0.00  0.00     0.049 A 
HETATM   37  C   UNK N   1      22.069  12.548  10.658  0.00  0.00     0.000 A 
HETATM   38  C   UNK N   1      22.248  12.179  11.993  0.00  0.00     0.014 A 
HETATM   39  C   UNK N   1      23.122  12.579   9.785  0.00  0.00     0.086 A 
HETATM   40  C   UNK N   1      23.552  11.845  12.411  0.00  0.00     0.001 A 
HETATM   41  C   UNK N   1      24.632  11.888  11.499  0.00  0.00     0.003 A 
HETATM   42  C   UNK N   1      24.416  12.260  10.160  0.00  0.00     0.038 A 
HETATM   43  O   UNK N   1      22.700  12.952   8.604  0.00  0.00    -0.312 OA
ENDBRANCH  34  35
ENDBRANCH  31  34
BRANCH  33  44
HETATM   44  C   UNK N   1      20.039  16.844   4.015  0.00  0.00     0.148 C 
HETATM   45  N   UNK N   1      20.336  17.958   3.419  0.00  0.00    -0.364 N 
ATOM     46  HN  UNK N   1      20.940  18.593   3.943  1.00  0.00     0.162 HD
BRANCH  45  47
HETATM   47  C   UNK N   1      19.921  18.421   2.098  0.00  0.00     0.021 C 
HETATM   48  C   UNK N   1      18.496  18.923   2.195  0.00  0.00     0.037 C 
HETATM   49  C   UNK N   1      19.969  17.376   0.991  0.00  0.00     0.037 C 
HETATM   50  C   UNK N   1      20.800  19.583   1.684  0.00  0.00     0.037 C 
ENDBRANCH  45  47
BRANCH  44  51
HETATM   51  O   UNK N   1      19.269  15.909   3.419  0.00  0.00    -0.348 OA
HETATM   52  H   UNK N   1      19.216  15.384   2.644  0.00  0.00     0.219 HD
ENDBRANCH  44  51
ENDBRANCH  33  44
ENDBRANCH  27  28
ENDBRANCH   1  27
BRANCH   1  53
HETATM   53  O   UNK N   1      23.225  17.855   3.581  0.00  0.00    -0.394 OA
HETATM   54  H   UNK N   1      22.821  18.237   4.375  0.00  0.00     0.210 HD
ENDBRANCH   1  53
TORSDOF 16
ENDMDL
MODEL 6
REMARK VINA RESULT:      -7.8      2.149      9.681
REMARK  16 active torsions:
REMARK  status: ('A' for Active; 'I' for Inactive)
REMARK    1  A    between atoms: C_26  and  C_19 
REMARK    2  A    between atoms: C_29  and  C_19 
REMARK    3  A    between atoms: C_29  and  C_20 
REMARK    4  A    between atoms: C_30  and  C_20 
REMARK    5  A    between atoms: C_30  and  C_23 
REMARK    6  A    between atoms: N_45  and  C_23 
REMARK    7  A    between atoms: C_31  and  C_24 
REMARK    8  A    between atoms: N_44  and  C_24 
REMARK    9  A    between atoms: C_29  and  C_37 
REMARK   10  A    between atoms: C_30  and  O_46 
REMARK   11  A    between atoms: C_33  and  C_38 
REMARK   12  A    between atoms: C_34  and  O_47 
REMARK   13  A    between atoms: C_36  and  N_40 
REMARK   14  A    between atoms: C_37  and  O_48 
REMARK   15  A    between atoms: O_49  and  C_38 
REMARK   16  A    between atoms: N_42  and  C_39 
ROOT
HETATM    1  C   UNK N   1      34.798  14.066  10.824  0.00  0.00     0.147 C 
ENDROOT
BRANCH   1   2
HETATM    2  C   UNK N   1      35.486  12.699  10.684  0.00  0.00     0.046 C 
BRANCH   2   3
HETATM    3  C   UNK N   1      36.923  12.513  11.194  0.00  0.00     0.067 C 
BRANCH   3   4
HETATM    4  C   UNK N   1      37.720  11.564  10.285  0.00  0.00     0.051 C 
BRANCH   4   5
HETATM    5  C   UNK N   1      38.612  12.207   9.274  0.00  0.00    -0.057 A 
HETATM    6  C   UNK N   1      38.271  13.473   8.790  0.00  0.00     0.007 A 
HETATM    7  C   UNK N   1      39.059  14.090   7.815  0.00  0.00     0.001 A 
HETATM    8  C   UNK N   1      40.194  13.439   7.322  0.00  0.00     0.000 A 
HETATM    9  C   UNK N   1      40.537  12.172   7.800  0.00  0.00     0.001 A 
HETATM   10  C   UNK N   1      39.742  11.553   8.770  0.00  0.00     0.007 A 
ENDBRANCH   4   5
ENDBRANCH   3   4
BRANCH   3  11
HETATM   11  C   UNK N   1      36.933  12.037  12.630  0.00  0.00     0.116 C 
HETATM   12  N   UNK N   1      36.488  12.821  13.556  0.00  0.00    -0.363 N 
ATOM     13  HN  UNK N   1      36.118  13.727  13.271  1.00  0.00     0.162 HD
BRANCH  12  14
HETATM   14  C   UNK N   1      36.474  12.502  14.973  0.00  0.00     0.146 C 
HETATM   15  C   UNK N   1      36.528  13.727  15.806  0.00  0.00    -0.027 A 
HETATM   16  C   UNK N   1      37.351  14.841  15.621  0.00  0.00     0.010 A 
HETATM   17  C   UNK N   1      35.704  13.629  16.895  0.00  0.00    -0.047 A 
HETATM   18  C   UNK N   1      37.283  15.888  16.552  0.00  0.00     0.001 A 
HETATM   19  C   UNK N   1      36.427  15.792  17.664  0.00  0.00     0.001 A 
HETATM   20  C   UNK N   1      35.638  14.646  17.848  0.00  0.00     0.008 A 
HETATM   21  C   UNK N   1      34.984  12.333  16.936  0.00  0.00     0.073 C 
HETATM   22  C   UNK N   1      35.143  11.871  15.477  0.00  0.00     0.149 C 
BRANCH  22  23
HETATM   23  O   UNK N   1      34.064  12.406  14.765  0.00  0.00    -0.393 OA
HETATM   24  H   UNK N   1      33.451  13.006  14.312  0.00  0.00     0.210 HD
ENDBRANCH  22  23
ENDBRANCH  12  14
BRANCH  11  25
HETATM   25  O   UNK N   1      37.371  10.796  12.936  0.00  0.00    -0.349 OA
HETATM   26  H   UNK N   1      38.175  10.429  12.622  0.00  0.00     0.219 HD
ENDBRANCH  11  25
ENDBRANCH   3  11
ENDBRANCH   2   3
ENDBRANCH   1   2
BRANCH   1  27
HETATM   27  C   UNK N   1      33.728  14.267   9.740  0.00  0.00     0.305 C 
BRANCH  27  28
HETATM   28  N   UNK N   1      34.216  15.135   8.666  0.00  0.00     0.106 N 
HETATM   29  C   UNK N   1      33.753  16.492   9.002  0.00  0.00     0.303 C 
HETATM   30  C   UNK N   1      33.292  17.288   7.785  0.00  0.00     0.303 C 
HETATM   31  N   UNK N   1      32.179  16.614   7.088  0.00  0.00     0.098 N 
HETATM   32  C   UNK N   1      32.395  15.161   6.947  0.00  0.00     0.317 C 
HETATM   33  C   UNK N   1      33.826  14.697   7.300  0.00  0.00     0.324 C 
BRANCH  31  34
HETATM   34  C   UNK N   1      30.894  16.754   7.788  0.00  0.00     0.337 C 
BRANCH  34  35
HETATM   35  C   UNK N   1      29.856  17.551   7.053  0.00  0.00     0.083 A 
HETATM   36  C   UNK N   1      29.519  17.452   5.699  0.00  0.00     0.049 A 
HETATM   37  C   UNK N   1      28.538  18.408   5.541  0.00  0.00     0.000 A 
HETATM   38  C   UNK N   1      27.807  18.791   4.415  0.00  0.00     0.014 A 
HETATM   39  C   UNK N   1      28.341  19.014   6.752  0.00  0.00     0.086 A 
HETATM   40  C   UNK N   1      26.863  19.826   4.568  0.00  0.00     0.001 A 
HETATM   41  C   UNK N   1      26.674  20.448   5.824  0.00  0.00     0.003 A 
HETATM   42  C   UNK N   1      27.425  20.034   6.940  0.00  0.00     0.038 A 
HETATM   43  O   UNK N   1      29.140  18.481   7.642  0.00  0.00    -0.312 OA
ENDBRANCH  34  35
ENDBRANCH  31  34
BRANCH  33  44
HETATM   44  C   UNK N   1      34.000  13.206   7.096  0.00  0.00     0.148 C 
HETATM   45  N   UNK N   1      35.172  12.745   6.782  0.00  0.00    -0.364 N 
ATOM     46  HN  UNK N   1      35.917  13.439   6.708  1.00  0.00     0.162 HD
BRANCH  45  47
HETATM   47  C   UNK N   1      35.566  11.362   6.522  0.00  0.00     0.021 C 
HETATM   48  C   UNK N   1      34.715  10.830   5.388  0.00  0.00     0.037 C 
HETATM   49  C   UNK N   1      35.420  10.406   7.698  0.00  0.00     0.037 C 
HETATM   50  C   UNK N   1      37.012  11.337   6.075  0.00  0.00     0.037 C 
ENDBRANCH  45  47
BRANCH  44  51
HETATM   51  O   UNK N   1      32.938  12.386   7.249  0.00  0.00    -0.348 OA
HETATM   52  H   UNK N   1      32.512  11.652   6.851  0.00  0.00     0.219 HD
ENDBRANCH  44  51
ENDBRANCH  33  44
ENDBRANCH  27  28
ENDBRANCH   1  27
BRANCH   1  53
HETATM   53  O   UNK N   1      34.201  14.116  12.084  0.00  0.00    -0.394 OA
HETATM   54  H   UNK N   1      33.335  14.520  12.248  0.00  0.00     0.210 HD
ENDBRANCH   1  53
TORSDOF 16
ENDMDL
MODEL 7
REMARK VINA RESULT:      -7.8      2.303     10.567
REMARK  16 active torsions:
REMARK  status: ('A' for Active; 'I' for Inactive)
REMARK    1  A    between atoms: C_26  and  C_19 
REMARK    2  A    between atoms: C_29  and  C_19 
REMARK    3  A    between atoms: C_29  and  C_20 
REMARK    4  A    between atoms: C_30  and  C_20 
REMARK    5  A    between atoms: C_30  and  C_23 
REMARK    6  A    between atoms: N_45  and  C_23 
REMARK    7  A    between atoms: C_31  and  C_24 
REMARK    8  A    between atoms: N_44  and  C_24 
REMARK    9  A    between atoms: C_29  and  C_37 
REMARK   10  A    between atoms: C_30  and  O_46 
REMARK   11  A    between atoms: C_33  and  C_38 
REMARK   12  A    between atoms: C_34  and  O_47 
REMARK   13  A    between atoms: C_36  and  N_40 
REMARK   14  A    between atoms: C_37  and  O_48 
REMARK   15  A    between atoms: O_49  and  C_38 
REMARK   16  A    between atoms: N_42  and  C_39 
ROOT
HETATM    1  C   UNK N   1      36.145  13.997  11.031  0.00  0.00     0.147 C 
ENDROOT
BRANCH   1   2
HETATM    2  C   UNK N   1      35.967  14.168  12.548  0.00  0.00     0.046 C 
BRANCH   2   3
HETATM    3  C   UNK N   1      36.471  13.075  13.502  0.00  0.00     0.067 C 
BRANCH   3   4
HETATM    4  C   UNK N   1      36.755  11.765  12.751  0.00  0.00     0.051 C 
BRANCH   4   5
HETATM    5  C   UNK N   1      37.143  10.590  13.589  0.00  0.00    -0.057 A 
HETATM    6  C   UNK N   1      38.372  10.619  14.253  0.00  0.00     0.007 A 
HETATM    7  C   UNK N   1      38.787   9.524  15.015  0.00  0.00     0.001 A 
HETATM    8  C   UNK N   1      37.970   8.394  15.113  0.00  0.00     0.000 A 
HETATM    9  C   UNK N   1      36.742   8.358  14.448  0.00  0.00     0.001 A 
HETATM   10  C   UNK N   1      36.333   9.452  13.679  0.00  0.00     0.007 A 
ENDBRANCH   4   5
ENDBRANCH   3   4
BRANCH   3  11
HETATM   11  C   UNK N   1      35.497  12.857  14.641  0.00  0.00     0.116 C 
HETATM   12  N   UNK N   1      35.854  13.169  15.843  0.00  0.00    -0.363 N 
ATOM     13  HN  UNK N   1      36.778  13.580  15.969  1.00  0.00     0.162 HD
BRANCH  12  14
HETATM   14  C   UNK N   1      35.033  12.978  17.024  0.00  0.00     0.146 C 
HETATM   15  C   UNK N   1      35.521  11.847  17.848  0.00  0.00    -0.027 A 
HETATM   16  C   UNK N   1      35.932  10.589  17.400  0.00  0.00     0.010 A 
HETATM   17  C   UNK N   1      35.449  12.132  19.186  0.00  0.00    -0.047 A 
HETATM   18  C   UNK N   1      36.320   9.631  18.349  0.00  0.00     0.001 A 
HETATM   19  C   UNK N   1      36.258   9.930  19.723  0.00  0.00     0.001 A 
HETATM   20  C   UNK N   1      35.804  11.188  20.149  0.00  0.00     0.008 A 
HETATM   21  C   UNK N   1      34.911  13.491  19.438  0.00  0.00     0.073 C 
HETATM   22  C   UNK N   1      35.113  14.140  18.058  0.00  0.00     0.149 C 
BRANCH  22  23
HETATM   23  O   UNK N   1      36.400  14.690  18.056  0.00  0.00    -0.393 OA
HETATM   24  H   UNK N   1      37.270  15.027  18.318  0.00  0.00     0.210 HD
ENDBRANCH  22  23
ENDBRANCH  12  14
BRANCH  11  25
HETATM   25  O   UNK N   1      34.260  12.372  14.397  0.00  0.00    -0.349 OA
HETATM   26  H   UNK N   1      33.469  12.757  14.723  0.00  0.00     0.219 HD
ENDBRANCH  11  25
ENDBRANCH   3  11
ENDBRANCH   2   3
ENDBRANCH   1   2
BRANCH   1  27
HETATM   27  C   UNK N   1      34.861  14.365  10.273  0.00  0.00     0.305 C 
BRANCH  27  28
HETATM   28  N   UNK N   1      35.022  14.177   8.830  0.00  0.00     0.106 N 
HETATM   29  C   UNK N   1      35.191  15.526   8.264  0.00  0.00     0.303 C 
HETATM   30  C   UNK N   1      34.474  15.713   6.931  0.00  0.00     0.303 C 
HETATM   31  N   UNK N   1      33.022  15.480   7.061  0.00  0.00     0.098 N 
HETATM   32  C   UNK N   1      32.709  14.291   7.877  0.00  0.00     0.317 C 
HETATM   33  C   UNK N   1      33.932  13.398   8.188  0.00  0.00     0.324 C 
BRANCH  31  34
HETATM   34  C   UNK N   1      32.316  16.596   7.708  0.00  0.00     0.337 C 
BRANCH  34  35
HETATM   35  C   UNK N   1      31.046  17.019   7.031  0.00  0.00     0.083 A 
HETATM   36  C   UNK N   1      29.852  17.411   7.646  0.00  0.00     0.049 A 
HETATM   37  C   UNK N   1      29.013  17.672   6.584  0.00  0.00     0.000 A 
HETATM   38  C   UNK N   1      27.684  18.099   6.552  0.00  0.00     0.014 A 
HETATM   39  C   UNK N   1      29.707  17.431   5.430  0.00  0.00     0.086 A 
HETATM   40  C   UNK N   1      27.081  18.270   5.289  0.00  0.00     0.001 A 
HETATM   41  C   UNK N   1      27.809  18.012   4.104  0.00  0.00     0.003 A 
HETATM   42  C   UNK N   1      29.148  17.586   4.173  0.00  0.00     0.038 A 
HETATM   43  O   UNK N   1      30.923  17.045   5.724  0.00  0.00    -0.312 OA
ENDBRANCH  34  35
ENDBRANCH  31  34
BRANCH  33  44
HETATM   44  C   UNK N   1      33.543  12.172   8.990  0.00  0.00     0.148 C 
HETATM   45  N   UNK N   1      34.435  11.256   9.214  0.00  0.00    -0.364 N 
ATOM     46  HN  UNK N   1      35.365  11.441   8.835  1.00  0.00     0.162 HD
BRANCH  45  47
HETATM   47  C   UNK N   1      34.283   9.997   9.938  0.00  0.00     0.021 C 
HETATM   48  C   UNK N   1      33.426   9.068   9.104  0.00  0.00     0.037 C 
HETATM   49  C   UNK N   1      33.643  10.105  11.316  0.00  0.00     0.037 C 
HETATM   50  C   UNK N   1      35.645   9.356  10.103  0.00  0.00     0.037 C 
ENDBRANCH  45  47
BRANCH  44  51
HETATM   51  O   UNK N   1      32.283  12.058   9.460  0.00  0.00    -0.348 OA
HETATM   52  H   UNK N   1      31.707  11.451   9.882  0.00  0.00     0.219 HD
ENDBRANCH  44  51
ENDBRANCH  33  44
ENDBRANCH  27  28
ENDBRANCH   1  27
BRANCH   1  53
HETATM   53  O   UNK N   1      37.183  14.837  10.627  0.00  0.00    -0.394 OA
HETATM   54  H   UNK N   1      37.174  15.331   9.792  0.00  0.00     0.210 HD
ENDBRANCH   1  53
TORSDOF 16
ENDMDL
MODEL 8
REMARK VINA RESULT:      -7.8      2.347      4.267
REMARK  16 active torsions:
REMARK  status: ('A' for Active; 'I' for Inactive)
REMARK    1  A    between atoms: C_26  and  C_19 
REMARK    2  A    between atoms: C_29  and  C_19 
REMARK    3  A    between atoms: C_29  and  C_20 
REMARK    4  A    between atoms: C_30  and  C_20 
REMARK    5  A    between atoms: C_30  and  C_23 
REMARK    6  A    between atoms: N_45  and  C_23 
REMARK    7  A    between atoms: C_31  and  C_24 
REMARK    8  A    between atoms: N_44  and  C_24 
REMARK    9  A    between atoms: C_29  and  C_37 
REMARK   10  A    between atoms: C_30  and  O_46 
REMARK   11  A    between atoms: C_33  and  C_38 
REMARK   12  A    between atoms: C_34  and  O_47 
REMARK   13  A    between atoms: C_36  and  N_40 
REMARK   14  A    between atoms: C_37  and  O_48 
REMARK   15  A    between atoms: O_49  and  C_38 
REMARK   16  A    between atoms: N_42  and  C_39 
ROOT
HETATM    1  C   UNK N   1      33.593  12.990   7.492  0.00  0.00     0.147 C 
ENDROOT
BRANCH   1   2
HETATM    2  C   UNK N   1      32.548  13.957   6.912  0.00  0.00     0.046 C 
BRANCH   2   3
HETATM    3  C   UNK N   1      32.147  13.850   5.434  0.00  0.00     0.067 C 
BRANCH   3   4
HETATM    4  C   UNK N   1      33.070  14.693   4.541  0.00  0.00     0.051 C 
BRANCH   4   5
HETATM    5  C   UNK N   1      33.854  13.951   3.508  0.00  0.00    -0.057 A 
HETATM    6  C   UNK N   1      35.200  13.675   3.762  0.00  0.00     0.007 A 
HETATM    7  C   UNK N   1      35.976  13.017   2.804  0.00  0.00     0.001 A 
HETATM    8  C   UNK N   1      35.404  12.634   1.587  0.00  0.00     0.000 A 
HETATM    9  C   UNK N   1      34.060  12.913   1.327  0.00  0.00     0.001 A 
HETATM   10  C   UNK N   1      33.287  13.578   2.284  0.00  0.00     0.007 A 
ENDBRANCH   4   5
ENDBRANCH   3   4
BRANCH   3  11
HETATM   11  C   UNK N   1      30.695  14.227   5.237  0.00  0.00     0.116 C 
HETATM   12  N   UNK N   1      30.372  15.476   5.169  0.00  0.00    -0.363 N 
ATOM     13  HN  UNK N   1      31.125  16.162   5.224  1.00  0.00     0.162 HD
BRANCH  12  14
HETATM   14  C   UNK N   1      29.017  15.973   5.017  0.00  0.00     0.146 C 
HETATM   15  C   UNK N   1      28.763  17.138   5.898  0.00  0.00    -0.027 A 
HETATM   16  C   UNK N   1      29.128  17.280   7.239  0.00  0.00     0.010 A 
HETATM   17  C   UNK N   1      28.015  18.093   5.263  0.00  0.00    -0.047 A 
HETATM   18  C   UNK N   1      28.754  18.451   7.917  0.00  0.00     0.001 A 
HETATM   19  C   UNK N   1      27.996  19.437   7.260  0.00  0.00     0.001 A 
HETATM   20  C   UNK N   1      27.609  19.253   5.924  0.00  0.00     0.008 A 
HETATM   21  C   UNK N   1      27.672  17.703   3.875  0.00  0.00     0.073 C 
HETATM   22  C   UNK N   1      28.712  16.597   3.623  0.00  0.00     0.149 C 
BRANCH  22  23
HETATM   23  O   UNK N   1      29.858  17.227   3.124  0.00  0.00    -0.393 OA
HETATM   24  H   UNK N   1      30.548  17.585   2.544  0.00  0.00     0.210 HD
ENDBRANCH  22  23
ENDBRANCH  12  14
BRANCH  11  25
HETATM   25  O   UNK N   1      29.752  13.268   5.100  0.00  0.00    -0.349 OA
HETATM   26  H   UNK N   1      29.017  13.167   5.673  0.00  0.00     0.219 HD
ENDBRANCH  11  25
ENDBRANCH   3  11
ENDBRANCH   2   3
ENDBRANCH   1   2
BRANCH   1  27
HETATM   27  C   UNK N   1      34.063  13.442   8.882  0.00  0.00     0.305 C 
BRANCH  27  28
HETATM   28  N   UNK N   1      35.510  13.663   8.908  0.00  0.00     0.106 N 
HETATM   29  C   UNK N   1      36.106  12.388   9.345  0.00  0.00     0.303 C 
HETATM   30  C   UNK N   1      37.286  12.569  10.294  0.00  0.00     0.303 C 
HETATM   31  N   UNK N   1      36.890  13.301  11.515  0.00  0.00     0.098 N 
HETATM   32  C   UNK N   1      36.025  14.460  11.226  0.00  0.00     0.317 C 
HETATM   33  C   UNK N   1      35.938  14.827   9.727  0.00  0.00     0.324 C 
BRANCH  31  34
HETATM   34  C   UNK N   1      36.131  12.471  12.461  0.00  0.00     0.337 C 
BRANCH  34  35
HETATM   35  C   UNK N   1      36.064  13.007  13.861  0.00  0.00     0.083 A 
HETATM   36  C   UNK N   1      35.202  12.593  14.883  0.00  0.00     0.049 A 
HETATM   37  C   UNK N   1      35.540  13.412  15.940  0.00  0.00     0.000 A 
HETATM   38  C   UNK N   1      35.032  13.485  17.238  0.00  0.00     0.014 A 
HETATM   39  C   UNK N   1      36.541  14.246  15.523  0.00  0.00     0.086 A 
HETATM   40  C   UNK N   1      35.584  14.451  18.104  0.00  0.00     0.001 A 
HETATM   41  C   UNK N   1      36.615  15.311  17.658  0.00  0.00     0.003 A 
HETATM   42  C   UNK N   1      37.106  15.207  16.344  0.00  0.00     0.038 A 
HETATM   43  O   UNK N   1      36.840  13.982  14.276  0.00  0.00    -0.312 OA
ENDBRANCH  34  35
ENDBRANCH  31  34
BRANCH  33  44
HETATM   44  C   UNK N   1      35.072  16.049   9.497  0.00  0.00     0.148 C 
HETATM   45  N   UNK N   1      34.759  16.380   8.282  0.00  0.00    -0.364 N 
ATOM     46  HN  UNK N   1      35.117  15.766   7.549  1.00  0.00     0.162 HD
BRANCH  45  47
HETATM   47  C   UNK N   1      33.960  17.515   7.825  0.00  0.00     0.021 C 
HETATM   48  C   UNK N   1      32.608  17.450   8.503  0.00  0.00     0.037 C 
HETATM   49  C   UNK N   1      33.722  17.588   6.323  0.00  0.00     0.037 C 
HETATM   50  C   UNK N   1      34.639  18.799   8.254  0.00  0.00     0.037 C 
ENDBRANCH  45  47
BRANCH  44  51
HETATM   51  O   UNK N   1      34.639  16.766  10.556  0.00  0.00    -0.348 OA
HETATM   52  H   UNK N   1      33.854  17.082  10.959  0.00  0.00     0.219 HD
ENDBRANCH  44  51
ENDBRANCH  33  44
ENDBRANCH  27  28
ENDBRANCH   1  27
BRANCH   1  53
HETATM   53  O   UNK N   1      33.001  11.730   7.585  0.00  0.00    -0.394 OA
HETATM   54  H   UNK N   1      33.420  10.919   7.257  0.00  0.00     0.210 HD
ENDBRANCH   1  53
TORSDOF 16
ENDMDL
MODEL 9
REMARK VINA RESULT:      -7.6      2.333     10.164
REMARK  16 active torsions:
REMARK  status: ('A' for Active; 'I' for Inactive)
REMARK    1  A    between atoms: C_26  and  C_19 
REMARK    2  A    between atoms: C_29  and  C_19 
REMARK    3  A    between atoms: C_29  and  C_20 
REMARK    4  A    between atoms: C_30  and  C_20 
REMARK    5  A    between atoms: C_30  and  C_23 
REMARK    6  A    between atoms: N_45  and  C_23 
REMARK    7  A    between atoms: C_31  and  C_24 
REMARK    8  A    between atoms: N_44  and  C_24 
REMARK    9  A    between atoms: C_29  and  C_37 
REMARK   10  A    between atoms: C_30  and  O_46 
REMARK   11  A    between atoms: C_33  and  C_38 
REMARK   12  A    between atoms: C_34  and  O_47 
REMARK   13  A    between atoms: C_36  and  N_40 
REMARK   14  A    between atoms: C_37  and  O_48 
REMARK   15  A    between atoms: O_49  and  C_38 
REMARK   16  A    between atoms: N_42  and  C_39 
ROOT
HETATM    1  C   UNK N   1      36.078  14.823  11.089  0.00  0.00     0.147 C 
ENDROOT
BRANCH   1   2
HETATM    2  C   UNK N   1      35.810  15.002  12.592  0.00  0.00     0.046 C 
BRANCH   2   3
HETATM    3  C   UNK N   1      35.777  13.773  13.512  0.00  0.00     0.067 C 
BRANCH   3   4
HETATM    4  C   UNK N   1      36.569  14.021  14.805  0.00  0.00     0.051 C 
BRANCH   4   5
HETATM    5  C   UNK N   1      36.057  13.349  16.037  0.00  0.00    -0.057 A 
HETATM    6  C   UNK N   1      35.694  14.142  17.129  0.00  0.00     0.007 A 
HETATM    7  C   UNK N   1      35.247  13.549  18.312  0.00  0.00     0.001 A 
HETATM    8  C   UNK N   1      35.162  12.156  18.405  0.00  0.00     0.000 A 
HETATM    9  C   UNK N   1      35.528  11.359  17.317  0.00  0.00     0.001 A 
HETATM   10  C   UNK N   1      35.983  11.955  16.137  0.00  0.00     0.007 A 
ENDBRANCH   4   5
ENDBRANCH   3   4
BRANCH   3  11
HETATM   11  C   UNK N   1      36.274  12.539  12.790  0.00  0.00     0.116 C 
HETATM   12  N   UNK N   1      35.422  11.645  12.411  0.00  0.00    -0.363 N 
ATOM     13  HN  UNK N   1      34.435  11.826  12.594  1.00  0.00     0.162 HD
BRANCH  12  14
HETATM   14  C   UNK N   1      35.768  10.403  11.743  0.00  0.00     0.146 C 
HETATM   15  C   UNK N   1      35.846   9.275  12.700  0.00  0.00    -0.027 A 
HETATM   16  C   UNK N   1      36.453   9.272  13.958  0.00  0.00     0.010 A 
HETATM   17  C   UNK N   1      35.307   8.132  12.173  0.00  0.00    -0.047 A 
HETATM   18  C   UNK N   1      36.459   8.081  14.700  0.00  0.00     0.001 A 
HETATM   19  C   UNK N   1      35.894   6.910  14.161  0.00  0.00     0.001 A 
HETATM   20  C   UNK N   1      35.324   6.929  12.879  0.00  0.00     0.008 A 
HETATM   21  C   UNK N   1      34.791   8.340  10.798  0.00  0.00     0.073 C 
HETATM   22  C   UNK N   1      34.678   9.874  10.764  0.00  0.00     0.149 C 
BRANCH  22  23
HETATM   23  O   UNK N   1      33.406  10.195  11.251  0.00  0.00    -0.393 OA
HETATM   24  H   UNK N   1      32.460  10.189  11.464  0.00  0.00     0.210 HD
ENDBRANCH  22  23
ENDBRANCH  12  14
BRANCH  11  25
HETATM   25  O   UNK N   1      37.589  12.392  12.515  0.00  0.00    -0.349 OA
HETATM   26  H   UNK N   1      38.086  11.623  12.715  0.00  0.00     0.219 HD
ENDBRANCH  11  25
ENDBRANCH   3  11
ENDBRANCH   2   3
ENDBRANCH   1   2
BRANCH   1  27
HETATM   27  C   UNK N   1      34.823  15.127  10.257  0.00  0.00     0.305 C 
BRANCH  27  28
HETATM   28  N   UNK N   1      35.136  15.997   9.121  0.00  0.00     0.106 N 
HETATM   29  C   UNK N   1      34.229  17.152   9.235  0.00  0.00     0.303 C 
HETATM   30  C   UNK N   1      33.690  17.628   7.890  0.00  0.00     0.303 C 
HETATM   31  N   UNK N   1      32.941  16.559   7.199  0.00  0.00     0.098 N 
HETATM   32  C   UNK N   1      33.622  15.252   7.270  0.00  0.00     0.317 C 
HETATM   33  C   UNK N   1      35.073  15.323   7.798  0.00  0.00     0.324 C 
BRANCH  31  34
HETATM   34  C   UNK N   1      31.604  16.335   7.766  0.00  0.00     0.337 C 
BRANCH  34  35
HETATM   35  C   UNK N   1      30.494  17.082   7.085  0.00  0.00     0.083 A 
HETATM   36  C   UNK N   1      30.118  16.992   5.740  0.00  0.00     0.049 A 
HETATM   37  C   UNK N   1      29.075  17.888   5.638  0.00  0.00     0.000 A 
HETATM   38  C   UNK N   1      28.283  18.249   4.546  0.00  0.00     0.014 A 
HETATM   39  C   UNK N   1      28.882  18.452   6.869  0.00  0.00     0.086 A 
HETATM   40  C   UNK N   1      27.282  19.219   4.754  0.00  0.00     0.001 A 
HETATM   41  C   UNK N   1      27.098  19.799   6.031  0.00  0.00     0.003 A 
HETATM   42  C   UNK N   1      27.911  19.409   7.111  0.00  0.00     0.038 A 
HETATM   43  O   UNK N   1      29.742  17.951   7.720  0.00  0.00    -0.312 OA
ENDBRANCH  34  35
ENDBRANCH  31  34
BRANCH  33  44
HETATM   44  C   UNK N   1      35.736  13.960   7.808  0.00  0.00     0.148 C 
HETATM   45  N   UNK N   1      37.030  13.888   7.860  0.00  0.00    -0.364 N 
ATOM     46  HN  UNK N   1      37.523  14.782   7.907  1.00  0.00     0.162 HD
BRANCH  45  47
HETATM   47  C   UNK N   1      37.876  12.697   7.861  0.00  0.00     0.021 C 
HETATM   48  C   UNK N   1      39.321  13.138   7.781  0.00  0.00     0.037 C 
HETATM   49  C   UNK N   1      37.627  11.715   6.724  0.00  0.00     0.037 C 
HETATM   50  C   UNK N   1      37.683  11.957   9.169  0.00  0.00     0.037 C 
ENDBRANCH  45  47
BRANCH  44  51
HETATM   51  O   UNK N   1      34.969  12.849   7.769  0.00  0.00    -0.348 OA
HETATM   52  H   UNK N   1      34.640  12.203   7.175  0.00  0.00     0.219 HD
ENDBRANCH  44  51
ENDBRANCH  33  44
ENDBRANCH  27  28
ENDBRANCH   1  27
BRANCH   1  53
HETATM   53  O   UNK N   1      37.100  15.702  10.732  0.00  0.00    -0.394 OA
HETATM   54  H   UNK N   1      37.917  15.806  11.245  0.00  0.00     0.210 HD
ENDBRANCH   1  53
TORSDOF 16
ENDMDL
