REMARK  1 active torsions:
REMARK  status: ('A' for Active; 'I' for Inactive)
REMARK    1  A    between atoms: C_2  and  O_4 
ROOT
HETATM    1  C   UNK N   1       3.625   0.813   0.000  0.00  0.00     0.062 C 
HETATM    2  C   UNK N   1       2.187   0.340   0.000  0.00  0.00     0.139 C 
HETATM    3  C   UNK N   1       2.026   1.846   0.000  0.00  0.00     0.062 C 
HETATM    4  C   UNK N   1       0.722   0.243   0.000  0.00  0.00     0.097 C 
HETATM    5  N   UNK N   1      -0.433   0.172   0.000  0.00  0.00    -0.194 NA
ENDROOT
BRANCH   2   6
HETATM    6  O   UNK N   1       2.524  -1.014   0.000  0.00  0.00    -0.376 OA
HETATM    7  H   UNK N   1       1.826  -1.688   0.000  0.00  0.00     0.211 HD
ENDBRANCH   2   6
TORSDOF 1
