REMARK  9 active torsions:
REMARK  status: ('A' for Active; 'I' for Inactive)
REMARK    1  A    between atoms: C_5  and  C_2 
REMARK    2  A    between atoms: O_24  and  C_2 
REMARK    3  A    between atoms: C_7  and  C_4 
REMARK    4  A    between atoms: C_9  and  O_18 
REMARK    5  A    between atoms: C_10  and  O_19 
REMARK    6  A    between atoms: O_20  and  C_11 
REMARK    7  A    between atoms: P_25  and  O_21 
REMARK    8  A    between atoms: P_25  and  O_22 
REMARK    9  A    between atoms: P_25  and  O_24 
ROOT
HETATM    1  C   UNK N   1       1.087   3.651  -0.700  0.00  0.00     0.133 C 
HETATM    2  C   UNK N   1       1.181   1.543   0.170  0.00  0.00     0.145 C 
HETATM    3  C   UNK N   1      -0.109   3.442   0.270  0.00  0.00     0.173 C 
HETATM    4  C   UNK N   1      -0.275   1.918   0.328  0.00  0.00     0.175 C 
HETATM    5  N   UNK N   1       1.591   2.314  -0.996  0.00  0.00    -0.402 N 
HETATM    6  H   UNK N   1       2.105   1.997  -1.819  0.00  0.00     0.154 HD
ENDROOT
BRANCH   2   7
HETATM    7  C   UNK N   1       1.608   0.121   0.029  0.00  0.00     0.011 A 
HETATM    8  C   UNK N   1       0.865  -1.058   0.017  0.00  0.00     0.100 A 
HETATM    9  N   UNK N   1       1.714  -2.121  -0.089  0.00  0.00    -0.360 N 
HETATM   10  C   UNK N   1       2.956  -1.600  -0.134  0.00  0.00     0.111 A 
HETATM   11  H   UNK N   1       1.469  -3.074  -0.124  0.00  0.00     0.165 HD
HETATM   12  C   UNK N   1       2.917  -0.255  -0.070  0.00  0.00     0.074 A 
HETATM   13  C   UNK N   1       4.183  -2.246  -0.221  0.00  0.00     0.170 A 
HETATM   14  N   UNK N   1       4.034   0.512  -0.085  0.00  0.00    -0.350 N 
HETATM   15  C   UNK N   1       5.246  -0.112  -0.175  0.00  0.00     0.183 A 
ATOM     16  HN  UNK N   1       3.971   1.528  -0.031  1.00  0.00     0.166 HD
HETATM   17  N   UNK N   1       5.316  -1.481  -0.241  0.00  0.00    -0.331 N 
ATOM     18  HN  UNK N   1       6.227  -1.935  -0.306  1.00  0.00     0.168 HD
BRANCH  13  19
HETATM   19  O   UNK N   1       4.264  -3.585  -0.278  0.00  0.00    -0.344 OA
HETATM   20  H   UNK N   1       3.482  -4.101  -0.317  0.00  0.00     0.219 HD
ENDBRANCH  13  19
ENDBRANCH   2   7
BRANCH   4  21
HETATM   21  O   UNK N   1      -1.000   1.459  -0.779  0.00  0.00    -0.391 OA
HETATM   22  H   UNK N   1      -1.527   1.735  -1.546  0.00  0.00     0.210 HD
ENDBRANCH   4  21
BRANCH   3  23
HETATM   23  O   UNK N   1      -1.274   4.088  -0.152  0.00  0.00    -0.391 OA
HETATM   24  H   UNK N   1      -1.290   5.012  -0.445  0.00  0.00     0.210 HD
ENDBRANCH   3  23
BRANCH   1  25
HETATM   25  C   UNK N   1       2.284   4.347  -0.051  0.00  0.00     0.208 C 
BRANCH  25  26
HETATM   26  O   UNK N   1       2.038   5.631   0.438  0.00  0.00    -0.295 OA
BRANCH  26  27
HETATM   27  P   UNK N   1       3.219   6.641  -0.358  0.00  0.00     0.390 P 
HETATM   28  O   UNK N   1       2.181   7.681   0.141  0.00  0.00    -0.632 OA
BRANCH  27  29
HETATM   29  O   UNK N   1       4.194   7.814   0.468  0.00  0.00    -0.307 OA
HETATM   30  H   UNK N   1       5.035   7.670   0.930  0.00  0.00     0.222 HD
ENDBRANCH  27  29
BRANCH  27  31
HETATM   31  O   UNK N   1       4.036   5.985   1.037  0.00  0.00    -0.307 OA
HETATM   32  H   UNK N   1       3.947   5.410   1.813  0.00  0.00     0.222 HD
ENDBRANCH  27  31
ENDBRANCH  26  27
ENDBRANCH  25  26
ENDBRANCH   1  25
TORSDOF 9
