MODEL 1
REMARK VINA RESULT:      -4.6      0.000      0.000
REMARK  3 active torsions:
REMARK  status: ('A' for Active; 'I' for Inactive)
REMARK    1  A    between atoms: C_6  and  C_7 
REMARK    2  A    between atoms: C_7  and  O_8 
REMARK    3  A    between atoms: C_9  and  N_10 
ROOT
HETATM    1  C   UNK N   1      22.138  13.435   7.387  0.00  0.00     0.089 C 
HETATM    2  C   UNK N   1      22.405  13.012   8.785  0.00  0.00     0.078 A 
HETATM    3  N   UNK N   1      21.379  12.616   9.578  0.00  0.00    -0.355 N 
ATOM      4  HN  UNK N   1      20.429  12.612   9.207  1.00  0.00     0.166 HD
HETATM    5  C   UNK N   1      21.598  12.226  10.859  0.00  0.00     0.102 A 
HETATM    6  C   UNK N   1      22.887  12.223  11.389  0.00  0.00     0.024 A 
HETATM    7  C   UNK N   1      23.946  12.640  10.547  0.00  0.00     0.109 A 
HETATM    8  N   UNK N   1      23.675  13.022   9.271  0.00  0.00    -0.332 N 
ATOM      9  HN  UNK N   1      24.440  13.321   8.666  1.00  0.00     0.168 HD
ENDROOT
BRANCH   6  10
HETATM   10  C   UNK N   1      23.032  11.773  12.822  0.00  0.00     0.208 C 
BRANCH  10  11
HETATM   11  O   UNK N   1      23.953  12.512  13.563  0.00  0.00    -0.396 OA
HETATM   12  H   UNK N   1      23.683  13.346  13.980  0.00  0.00     0.209 HD
ENDBRANCH  10  11
ENDBRANCH   6  10
BRANCH   7  13
HETATM   13  N   UNK N   1      25.281  12.668  11.001  0.00  0.00    -0.385 N 
HETATM   14  H   UNK N   1      25.503  13.116  11.849  0.00  0.00     0.157 HD
HETATM   15  H   UNK N   1      25.991  12.240  10.471  0.00  0.00     0.157 HD
ENDBRANCH   7  13
TORSDOF 3
ENDMDL
MODEL 2
REMARK VINA RESULT:      -4.3      9.160     11.093
REMARK  3 active torsions:
REMARK  status: ('A' for Active; 'I' for Inactive)
REMARK    1  A    between atoms: C_6  and  C_7 
REMARK    2  A    between atoms: C_7  and  O_8 
REMARK    3  A    between atoms: C_9  and  N_10 
ROOT
HETATM    1  C   UNK N   1      19.516  16.239   4.772  0.00  0.00     0.089 C 
HETATM    2  C   UNK N   1      19.939  17.287   3.808  0.00  0.00     0.078 A 
HETATM    3  N   UNK N   1      20.474  18.447   4.264  0.00  0.00    -0.355 N 
ATOM      4  HN  UNK N   1      20.582  18.590   5.268  1.00  0.00     0.166 HD
HETATM    5  C   UNK N   1      20.867  19.418   3.403  0.00  0.00     0.102 A 
HETATM    6  C   UNK N   1      20.730  19.245   2.027  0.00  0.00     0.024 A 
HETATM    7  C   UNK N   1      20.169  18.028   1.570  0.00  0.00     0.109 A 
HETATM    8  N   UNK N   1      19.790  17.085   2.472  0.00  0.00    -0.332 N 
ATOM      9  HN  UNK N   1      19.387  16.209   2.140  1.00  0.00     0.168 HD
ENDROOT
BRANCH   6  10
HETATM   10  C   UNK N   1      21.195  20.380   1.149  0.00  0.00     0.208 C 
BRANCH  10  11
HETATM   11  O   UNK N   1      20.478  20.516  -0.040  0.00  0.00    -0.396 OA
HETATM   12  H   UNK N   1      20.874  20.236  -0.880  0.00  0.00     0.209 HD
ENDBRANCH  10  11
ENDBRANCH   6  10
BRANCH   7  13
HETATM   13  N   UNK N   1      19.993  17.769   0.194  0.00  0.00    -0.385 N 
HETATM   14  H   UNK N   1      19.092  17.792  -0.200  0.00  0.00     0.157 HD
HETATM   15  H   UNK N   1      20.772  17.564  -0.372  0.00  0.00     0.157 HD
ENDBRANCH   7  13
TORSDOF 3
ENDMDL
MODEL 3
REMARK VINA RESULT:      -4.2      8.953      9.773
REMARK  3 active torsions:
REMARK  status: ('A' for Active; 'I' for Inactive)
REMARK    1  A    between atoms: C_6  and  C_7 
REMARK    2  A    between atoms: C_7  and  O_8 
REMARK    3  A    between atoms: C_9  and  N_10 
ROOT
HETATM    1  C   UNK N   1      29.867  17.185   4.540  0.00  0.00     0.089 C 
HETATM    2  C   UNK N   1      29.024  18.222   5.187  0.00  0.00     0.078 A 
HETATM    3  N   UNK N   1      28.519  19.240   4.446  0.00  0.00    -0.355 N 
ATOM      4  HN  UNK N   1      28.724  19.284   3.448  1.00  0.00     0.166 HD
HETATM    5  C   UNK N   1      27.746  20.199   5.014  0.00  0.00     0.102 A 
HETATM    6  C   UNK N   1      27.453  20.160   6.376  0.00  0.00     0.024 A 
HETATM    7  C   UNK N   1      27.988  19.090   7.134  0.00  0.00     0.109 A 
HETATM    8  N   UNK N   1      28.757  18.153   6.518  0.00  0.00    -0.332 N 
ATOM      9  HN  UNK N   1      29.142  17.383   7.066  1.00  0.00     0.168 HD
ENDROOT
BRANCH   6  10
HETATM   10  C   UNK N   1      26.587  21.269   6.918  0.00  0.00     0.208 C 
BRANCH  10  11
HETATM   11  O   UNK N   1      25.843  20.917   8.044  0.00  0.00    -0.396 OA
HETATM   12  H   UNK N   1      25.035  21.407   8.264  0.00  0.00     0.209 HD
ENDBRANCH  10  11
ENDBRANCH   6  10
BRANCH   7  13
HETATM   13  N   UNK N   1      27.743  18.972   8.518  0.00  0.00    -0.385 N 
HETATM   14  H   UNK N   1      27.044  18.360   8.843  0.00  0.00     0.157 HD
HETATM   15  H   UNK N   1      28.270  19.501   9.159  0.00  0.00     0.157 HD
ENDBRANCH   7  13
TORSDOF 3
ENDMDL
MODEL 4
REMARK VINA RESULT:      -4.2      8.617      9.702
REMARK  3 active torsions:
REMARK  status: ('A' for Active; 'I' for Inactive)
REMARK    1  A    between atoms: C_6  and  C_7 
REMARK    2  A    between atoms: C_7  and  O_8 
REMARK    3  A    between atoms: C_9  and  N_10 
ROOT
HETATM    1  C   UNK N   1      33.617  17.646   7.316  0.00  0.00     0.089 C 
HETATM    2  C   UNK N   1      32.162  17.580   7.607  0.00  0.00     0.078 A 
HETATM    3  N   UNK N   1      31.323  16.989   6.720  0.00  0.00    -0.355 N 
ATOM      4  HN  UNK N   1      31.699  16.593   5.859  1.00  0.00     0.166 HD
HETATM    5  C   UNK N   1      29.990  16.916   6.964  0.00  0.00     0.102 A 
HETATM    6  C   UNK N   1      29.453  17.449   8.134  0.00  0.00     0.024 A 
HETATM    7  C   UNK N   1      30.344  18.062   9.048  0.00  0.00     0.109 A 
HETATM    8  N   UNK N   1      31.671  18.110   8.759  0.00  0.00    -0.332 N 
ATOM      9  HN  UNK N   1      32.311  18.552   9.418  1.00  0.00     0.168 HD
ENDROOT
BRANCH   6  10
HETATM   10  C   UNK N   1      27.961  17.321   8.317  0.00  0.00     0.208 C 
BRANCH  10  11
HETATM   11  O   UNK N   1      27.408  18.263   9.184  0.00  0.00    -0.396 OA
HETATM   12  H   UNK N   1      26.831  17.975   9.909  0.00  0.00     0.209 HD
ENDBRANCH  10  11
ENDBRANCH   6  10
BRANCH   7  13
HETATM   13  N   UNK N   1      29.887  18.628  10.256  0.00  0.00    -0.385 N 
HETATM   14  H   UNK N   1      30.436  19.295  10.727  0.00  0.00     0.157 HD
HETATM   15  H   UNK N   1      29.017  18.355  10.630  0.00  0.00     0.157 HD
ENDBRANCH   7  13
TORSDOF 3
ENDMDL
MODEL 5
REMARK VINA RESULT:      -4.1      9.676     10.823
REMARK  3 active torsions:
REMARK  status: ('A' for Active; 'I' for Inactive)
REMARK    1  A    between atoms: C_6  and  C_7 
REMARK    2  A    between atoms: C_7  and  O_8 
REMARK    3  A    between atoms: C_9  and  N_10 
ROOT
HETATM    1  C   UNK N   1      19.201  15.629   0.044  0.00  0.00     0.089 C 
HETATM    2  C   UNK N   1      19.667  16.666   1.000  0.00  0.00     0.078 A 
HETATM    3  N   UNK N   1      19.764  16.372   2.321  0.00  0.00    -0.355 N 
ATOM      4  HN  UNK N   1      19.515  15.438   2.647  1.00  0.00     0.166 HD
HETATM    5  C   UNK N   1      20.186  17.302   3.213  0.00  0.00     0.102 A 
HETATM    6  C   UNK N   1      20.532  18.585   2.790  0.00  0.00     0.024 A 
HETATM    7  C   UNK N   1      20.425  18.874   1.409  0.00  0.00     0.109 A 
HETATM    8  N   UNK N   1      19.996  17.908   0.554  0.00  0.00    -0.332 N 
ATOM      9  HN  UNK N   1      19.920  18.118  -0.441  1.00  0.00     0.168 HD
ENDROOT
BRANCH   6  10
HETATM   10  C   UNK N   1      20.990  19.551   3.855  0.00  0.00     0.208 C 
BRANCH  10  11
HETATM   11  O   UNK N   1      20.285  20.753   3.878  0.00  0.00    -0.396 OA
HETATM   12  H   UNK N   1      19.695  20.984   3.143  0.00  0.00     0.209 HD
ENDBRANCH  10  11
ENDBRANCH   6  10
BRANCH   7  13
HETATM   13  N   UNK N   1      20.753  20.145   0.894  0.00  0.00    -0.385 N 
HETATM   14  H   UNK N   1      21.535  20.251   0.305  0.00  0.00     0.157 HD
HETATM   15  H   UNK N   1      20.201  20.927   1.123  0.00  0.00     0.157 HD
ENDBRANCH   7  13
TORSDOF 3
ENDMDL
MODEL 6
REMARK VINA RESULT:      -4.1     12.104     13.131
REMARK  3 active torsions:
REMARK  status: ('A' for Active; 'I' for Inactive)
REMARK    1  A    between atoms: C_6  and  C_7 
REMARK    2  A    between atoms: C_7  and  O_8 
REMARK    3  A    between atoms: C_9  and  N_10 
ROOT
HETATM    1  C   UNK N   1      34.577  10.697  13.560  0.00  0.00     0.089 C 
HETATM    2  C   UNK N   1      34.894  12.041  13.015  0.00  0.00     0.078 A 
HETATM    3  N   UNK N   1      34.389  12.420  11.814  0.00  0.00    -0.355 N 
ATOM      4  HN  UNK N   1      33.793  11.775  11.294  1.00  0.00     0.166 HD
HETATM    5  C   UNK N   1      34.665  13.642  11.296  0.00  0.00     0.102 A 
HETATM    6  C   UNK N   1      35.476  14.539  11.987  0.00  0.00     0.024 A 
HETATM    7  C   UNK N   1      35.995  14.128  13.239  0.00  0.00     0.109 A 
HETATM    8  N   UNK N   1      35.690  12.892  13.716  0.00  0.00    -0.332 N 
ATOM      9  HN  UNK N   1      36.065  12.598  14.618  1.00  0.00     0.168 HD
ENDROOT
BRANCH   6  10
HETATM   10  C   UNK N   1      35.727  15.875  11.331  0.00  0.00     0.208 C 
BRANCH  10  11
HETATM   11  O   UNK N   1      37.047  16.075  10.927  0.00  0.00    -0.396 OA
HETATM   12  H   UNK N   1      37.498  16.907  11.139  0.00  0.00     0.209 HD
ENDBRANCH  10  11
ENDBRANCH   6  10
BRANCH   7  13
HETATM   13  N   UNK N   1      36.825  14.971  14.006  0.00  0.00    -0.385 N 
HETATM   14  H   UNK N   1      37.804  14.890  13.942  0.00  0.00     0.157 HD
HETATM   15  H   UNK N   1      36.426  15.642  14.606  0.00  0.00     0.157 HD
ENDBRANCH   7  13
TORSDOF 3
ENDMDL
MODEL 7
REMARK VINA RESULT:      -4.0     11.657     13.281
REMARK  3 active torsions:
REMARK  status: ('A' for Active; 'I' for Inactive)
REMARK    1  A    between atoms: C_6  and  C_7 
REMARK    2  A    between atoms: C_7  and  O_8 
REMARK    3  A    between atoms: C_9  and  N_10 
ROOT
HETATM    1  C   UNK N   1      37.582  11.675  14.412  0.00  0.00     0.089 C 
HETATM    2  C   UNK N   1      36.757  12.539  13.530  0.00  0.00     0.078 A 
HETATM    3  N   UNK N   1      36.866  13.889  13.614  0.00  0.00    -0.355 N 
ATOM      4  HN  UNK N   1      37.514  14.300  14.284  1.00  0.00     0.166 HD
HETATM    5  C   UNK N   1      36.123  14.698  12.818  0.00  0.00     0.102 A 
HETATM    6  C   UNK N   1      35.229  14.159  11.895  0.00  0.00     0.024 A 
HETATM    7  C   UNK N   1      35.129  12.749  11.821  0.00  0.00     0.109 A 
HETATM    8  N   UNK N   1      35.895  11.980  12.639  0.00  0.00    -0.332 N 
ATOM      9  HN  UNK N   1      35.821  10.964  12.584  1.00  0.00     0.168 HD
ENDROOT
BRANCH   6  10
HETATM   10  C   UNK N   1      34.447  15.138  11.054  0.00  0.00     0.208 C 
BRANCH  10  11
HETATM   11  O   UNK N   1      33.066  14.947  11.090  0.00  0.00    -0.396 OA
HETATM   12  H   UNK N   1      32.676  14.150  10.699  0.00  0.00     0.209 HD
ENDBRANCH  10  11
ENDBRANCH   6  10
BRANCH   7  13
HETATM   13  N   UNK N   1      34.251  12.119  10.915  0.00  0.00    -0.385 N 
HETATM   14  H   UNK N   1      34.003  12.569  10.076  0.00  0.00     0.157 HD
HETATM   15  H   UNK N   1      33.886  11.228  11.121  0.00  0.00     0.157 HD
ENDBRANCH   7  13
TORSDOF 3
ENDMDL
MODEL 8
REMARK VINA RESULT:      -4.0     10.814     11.675
REMARK  3 active torsions:
REMARK  status: ('A' for Active; 'I' for Inactive)
REMARK    1  A    between atoms: C_6  and  C_7 
REMARK    2  A    between atoms: C_7  and  O_8 
REMARK    3  A    between atoms: C_9  and  N_10 
ROOT
HETATM    1  C   UNK N   1      30.623  16.908   4.333  0.00  0.00     0.089 C 
HETATM    2  C   UNK N   1      31.590  17.171   5.428  0.00  0.00     0.078 A 
HETATM    3  N   UNK N   1      32.906  17.338   5.141  0.00  0.00    -0.355 N 
ATOM      4  HN  UNK N   1      33.220  17.281   4.173  1.00  0.00     0.166 HD
HETATM    5  C   UNK N   1      33.808  17.578   6.125  0.00  0.00     0.102 A 
HETATM    6  C   UNK N   1      33.403  17.660   7.456  0.00  0.00     0.024 A 
HETATM    7  C   UNK N   1      32.026  17.483   7.736  0.00  0.00     0.109 A 
HETATM    8  N   UNK N   1      31.161  17.244   6.716  0.00  0.00    -0.332 N 
ATOM      9  HN  UNK N   1      30.169  17.117   6.921  1.00  0.00     0.168 HD
ENDROOT
BRANCH   6  10
HETATM   10  C   UNK N   1      34.478  17.931   8.479  0.00  0.00     0.208 C 
BRANCH  10  11
HETATM   11  O   UNK N   1      35.052  19.198   8.384  0.00  0.00    -0.396 OA
HETATM   12  H   UNK N   1      34.520  19.950   8.078  0.00  0.00     0.209 HD
ENDBRANCH  10  11
ENDBRANCH   6  10
BRANCH   7  13
HETATM   13  N   UNK N   1      31.528  17.549   9.055  0.00  0.00    -0.385 N 
HETATM   14  H   UNK N   1      30.833  16.919   9.350  0.00  0.00     0.157 HD
HETATM   15  H   UNK N   1      31.876  18.226   9.680  0.00  0.00     0.157 HD
ENDBRANCH   7  13
TORSDOF 3
ENDMDL
MODEL 9
REMARK VINA RESULT:      -4.0     10.206     11.277
REMARK  3 active torsions:
REMARK  status: ('A' for Active; 'I' for Inactive)
REMARK    1  A    between atoms: C_6  and  C_7 
REMARK    2  A    between atoms: C_7  and  O_8 
REMARK    3  A    between atoms: C_9  and  N_10 
ROOT
HETATM    1  C   UNK N   1      29.514  17.877   9.528  0.00  0.00     0.089 C 
HETATM    2  C   UNK N   1      30.624  17.718   8.555  0.00  0.00     0.078 A 
HETATM    3  N   UNK N   1      30.379  17.182   7.333  0.00  0.00    -0.355 N 
ATOM      4  HN  UNK N   1      29.432  16.892   7.092  1.00  0.00     0.166 HD
HETATM    5  C   UNK N   1      31.377  17.027   6.427  0.00  0.00     0.102 A 
HETATM    6  C   UNK N   1      32.680  17.416   6.733  0.00  0.00     0.024 A 
HETATM    7  C   UNK N   1      32.917  17.973   8.013  0.00  0.00     0.109 A 
HETATM    8  N   UNK N   1      31.884  18.108   8.886  0.00  0.00    -0.332 N 
ATOM      9  HN  UNK N   1      32.057  18.510   9.808  1.00  0.00     0.168 HD
ENDROOT
BRANCH   6  10
HETATM   10  C   UNK N   1      33.722  17.204   5.663  0.00  0.00     0.208 C 
BRANCH  10  11
HETATM   11  O   UNK N   1      34.848  16.502   6.092  0.00  0.00    -0.396 OA
HETATM   12  H   UNK N   1      34.796  15.544   6.237  0.00  0.00     0.209 HD
ENDBRANCH  10  11
ENDBRANCH   6  10
BRANCH   7  13
HETATM   13  N   UNK N   1      34.205  18.394   8.407  0.00  0.00    -0.385 N 
HETATM   14  H   UNK N   1      34.995  17.868   8.149  0.00  0.00     0.157 HD
HETATM   15  H   UNK N   1      34.313  19.214   8.940  0.00  0.00     0.157 HD
ENDBRANCH   7  13
TORSDOF 3
ENDMDL
