MODEL 1
REMARK VINA RESULT:      -3.3      0.000      0.000
REMARK  4 active torsions:
REMARK  status: ('A' for Active; 'I' for Inactive)
REMARK    1  A    between atoms: C_2  and  O_3 
REMARK    2  A    between atoms: O_3  and  C_4 
REMARK    3  A    between atoms: C_4  and  C_5 
REMARK    4  A    between atoms: C_5  and  O_6 
ROOT
HETATM    1  C   UNK N   1      34.540  17.180   9.244  0.00  0.00     0.193 C 
ENDROOT
BRANCH   1   2
HETATM    2  O   UNK N   1      35.523  17.478  10.183  0.00  0.00    -0.389 OA
BRANCH   2   3
HETATM    3  C   UNK N   1      35.506  16.387  11.050  0.00  0.00     0.163 C 
HETATM    4  C   UNK N   1      34.479  15.384  10.573  0.00  0.00     0.033 C 
ENDBRANCH   2   3
ENDBRANCH   1   2
BRANCH   1   5
HETATM    5  C   UNK N   1      34.524  18.247   8.174  0.00  0.00     0.190 C 
BRANCH   5   6
HETATM    6  O   UNK N   1      35.340  19.303   8.575  0.00  0.00    -0.399 OA
HETATM    7  H   UNK N   1      36.086  19.140   9.174  0.00  0.00     0.209 HD
ENDBRANCH   5   6
ENDBRANCH   1   5
TORSDOF 4
ENDMDL
MODEL 2
REMARK VINA RESULT:      -3.2     14.347     15.361
REMARK  4 active torsions:
REMARK  status: ('A' for Active; 'I' for Inactive)
REMARK    1  A    between atoms: C_2  and  O_3 
REMARK    2  A    between atoms: O_3  and  C_4 
REMARK    3  A    between atoms: C_4  and  C_5 
REMARK    4  A    between atoms: C_5  and  O_6 
ROOT
HETATM    1  C   UNK N   1      21.219  20.716   2.640  0.00  0.00     0.193 C 
ENDROOT
BRANCH   1   2
HETATM    2  O   UNK N   1      22.480  21.298   2.736  0.00  0.00    -0.389 OA
BRANCH   2   3
HETATM    3  C   UNK N   1      23.317  20.238   3.080  0.00  0.00     0.163 C 
HETATM    4  C   UNK N   1      24.737  20.571   2.682  0.00  0.00     0.033 C 
ENDBRANCH   2   3
ENDBRANCH   1   2
BRANCH   1   5
HETATM    5  C   UNK N   1      20.730  20.803   1.213  0.00  0.00     0.190 C 
BRANCH   5   6
HETATM    6  O   UNK N   1      20.561  22.144   0.873  0.00  0.00    -0.399 OA
HETATM    7  H   UNK N   1      21.331  22.731   0.814  0.00  0.00     0.209 HD
ENDBRANCH   5   6
ENDBRANCH   1   5
TORSDOF 4
ENDMDL
MODEL 3
REMARK VINA RESULT:      -3.1     13.399     14.027
REMARK  4 active torsions:
REMARK  status: ('A' for Active; 'I' for Inactive)
REMARK    1  A    between atoms: C_2  and  O_3 
REMARK    2  A    between atoms: O_3  and  C_4 
REMARK    3  A    between atoms: C_4  and  C_5 
REMARK    4  A    between atoms: C_5  and  O_6 
ROOT
HETATM    1  C   UNK N   1      30.876  21.986  -2.900  0.00  0.00     0.193 C 
ENDROOT
BRANCH   1   2
HETATM    2  O   UNK N   1      30.668  22.853  -1.830  0.00  0.00    -0.389 OA
BRANCH   2   3
HETATM    3  C   UNK N   1      29.289  23.049  -1.817  0.00  0.00     0.163 C 
HETATM    4  C   UNK N   1      28.850  23.618  -3.147  0.00  0.00     0.033 C 
ENDBRANCH   2   3
ENDBRANCH   1   2
BRANCH   1   5
HETATM    5  C   UNK N   1      32.357  21.743  -3.072  0.00  0.00     0.190 C 
BRANCH   5   6
HETATM    6  O   UNK N   1      32.841  21.077  -1.947  0.00  0.00    -0.399 OA
HETATM    7  H   UNK N   1      32.454  20.228  -1.682  0.00  0.00     0.209 HD
ENDBRANCH   5   6
ENDBRANCH   1   5
TORSDOF 4
ENDMDL
MODEL 4
REMARK VINA RESULT:      -3.1      1.130      3.118
REMARK  4 active torsions:
REMARK  status: ('A' for Active; 'I' for Inactive)
REMARK    1  A    between atoms: C_2  and  O_3 
REMARK    2  A    between atoms: O_3  and  C_4 
REMARK    3  A    between atoms: C_4  and  C_5 
REMARK    4  A    between atoms: C_5  and  O_6 
ROOT
HETATM    1  C   UNK N   1      34.863  16.792   9.567  0.00  0.00     0.193 C 
ENDROOT
BRANCH   1   2
HETATM    2  O   UNK N   1      35.178  18.097   9.197  0.00  0.00    -0.389 OA
BRANCH   2   3
HETATM    3  C   UNK N   1      34.294  18.376   8.156  0.00  0.00     0.163 C 
HETATM    4  C   UNK N   1      34.214  17.182   7.232  0.00  0.00     0.033 C 
ENDBRANCH   2   3
ENDBRANCH   1   2
BRANCH   1   5
HETATM    5  C   UNK N   1      35.419  16.510  10.943  0.00  0.00     0.190 C 
BRANCH   5   6
HETATM    6  O   UNK N   1      36.773  16.203  10.830  0.00  0.00    -0.399 OA
HETATM    7  H   UNK N   1      37.423  16.662  11.385  0.00  0.00     0.209 HD
ENDBRANCH   5   6
ENDBRANCH   1   5
TORSDOF 4
ENDMDL
MODEL 5
REMARK VINA RESULT:      -3.0     15.138     15.965
REMARK  4 active torsions:
REMARK  status: ('A' for Active; 'I' for Inactive)
REMARK    1  A    between atoms: C_2  and  O_3 
REMARK    2  A    between atoms: O_3  and  C_4 
REMARK    3  A    between atoms: C_4  and  C_5 
REMARK    4  A    between atoms: C_5  and  O_6 
ROOT
HETATM    1  C   UNK N   1      20.473  19.932   2.204  0.00  0.00     0.193 C 
ENDROOT
BRANCH   1   2
HETATM    2  O   UNK N   1      20.735  20.401   3.489  0.00  0.00    -0.389 OA
BRANCH   2   3
HETATM    3  C   UNK N   1      21.154  19.268   4.184  0.00  0.00     0.163 C 
HETATM    4  C   UNK N   1      22.580  18.942   3.798  0.00  0.00     0.033 C 
ENDBRANCH   2   3
ENDBRANCH   1   2
BRANCH   1   5
HETATM    5  C   UNK N   1      20.715  21.037   1.204  0.00  0.00     0.190 C 
BRANCH   5   6
HETATM    6  O   UNK N   1      20.602  20.517  -0.084  0.00  0.00    -0.399 OA
HETATM    7  H   UNK N   1      21.390  20.423  -0.641  0.00  0.00     0.209 HD
ENDBRANCH   5   6
ENDBRANCH   1   5
TORSDOF 4
ENDMDL
MODEL 6
REMARK VINA RESULT:      -2.8      2.251      2.944
REMARK  4 active torsions:
REMARK  status: ('A' for Active; 'I' for Inactive)
REMARK    1  A    between atoms: C_2  and  O_3 
REMARK    2  A    between atoms: O_3  and  C_4 
REMARK    3  A    between atoms: C_4  and  C_5 
REMARK    4  A    between atoms: C_5  and  O_6 
ROOT
HETATM    1  C   UNK N   1      34.177  17.295   9.057  0.00  0.00     0.193 C 
ENDROOT
BRANCH   1   2
HETATM    2  O   UNK N   1      32.956  16.702   8.747  0.00  0.00    -0.389 OA
BRANCH   2   3
HETATM    3  C   UNK N   1      32.153  17.769   8.349  0.00  0.00     0.163 C 
HETATM    4  C   UNK N   1      30.712  17.468   8.692  0.00  0.00     0.033 C 
ENDBRANCH   2   3
ENDBRANCH   1   2
BRANCH   1   5
HETATM    5  C   UNK N   1      34.530  18.309   7.994  0.00  0.00     0.190 C 
BRANCH   5   6
HETATM    6  O   UNK N   1      35.341  19.292   8.558  0.00  0.00    -0.399 OA
HETATM    7  H   UNK N   1      36.240  19.433   8.220  0.00  0.00     0.209 HD
ENDBRANCH   5   6
ENDBRANCH   1   5
TORSDOF 4
ENDMDL
MODEL 7
REMARK VINA RESULT:      -2.8      2.430      3.717
REMARK  4 active torsions:
REMARK  status: ('A' for Active; 'I' for Inactive)
REMARK    1  A    between atoms: C_2  and  O_3 
REMARK    2  A    between atoms: O_3  and  C_4 
REMARK    3  A    between atoms: C_4  and  C_5 
REMARK    4  A    between atoms: C_5  and  O_6 
ROOT
HETATM    1  C   UNK N   1      34.509  17.017   7.752  0.00  0.00     0.193 C 
ENDROOT
BRANCH   1   2
HETATM    2  O   UNK N   1      34.708  16.900   6.379  0.00  0.00    -0.389 OA
BRANCH   2   3
HETATM    3  C   UNK N   1      33.567  17.474   5.822  0.00  0.00     0.163 C 
HETATM    4  C   UNK N   1      32.695  16.387   5.235  0.00  0.00     0.033 C 
ENDBRANCH   2   3
ENDBRANCH   1   2
BRANCH   1   5
HETATM    5  C   UNK N   1      34.127  18.439   8.088  0.00  0.00     0.190 C 
BRANCH   5   6
HETATM    6  O   UNK N   1      35.268  19.134   8.484  0.00  0.00    -0.399 OA
HETATM    7  H   UNK N   1      36.073  18.649   8.722  0.00  0.00     0.209 HD
ENDBRANCH   5   6
ENDBRANCH   1   5
TORSDOF 4
ENDMDL
MODEL 8
REMARK VINA RESULT:      -2.7      5.413      6.584
REMARK  4 active torsions:
REMARK  status: ('A' for Active; 'I' for Inactive)
REMARK    1  A    between atoms: C_2  and  O_3 
REMARK    2  A    between atoms: O_3  and  C_4 
REMARK    3  A    between atoms: C_4  and  C_5 
REMARK    4  A    between atoms: C_5  and  O_6 
ROOT
HETATM    1  C   UNK N   1      35.836  13.621  14.292  0.00  0.00     0.193 C 
ENDROOT
BRANCH   1   2
HETATM    2  O   UNK N   1      34.634  13.206  14.859  0.00  0.00    -0.389 OA
BRANCH   2   3
HETATM    3  C   UNK N   1      35.024  12.443  15.958  0.00  0.00     0.163 C 
HETATM    4  C   UNK N   1      34.922  13.280  17.213  0.00  0.00     0.033 C 
ENDBRANCH   2   3
ENDBRANCH   1   2
BRANCH   1   5
HETATM    5  C   UNK N   1      35.609  13.994  12.845  0.00  0.00     0.190 C 
BRANCH   5   6
HETATM    6  O   UNK N   1      34.379  13.484  12.434  0.00  0.00    -0.399 OA
HETATM    7  H   UNK N   1      33.801  14.014  11.862  0.00  0.00     0.209 HD
ENDBRANCH   5   6
ENDBRANCH   1   5
TORSDOF 4
ENDMDL
MODEL 9
REMARK VINA RESULT:      -2.7     15.134     15.934
REMARK  4 active torsions:
REMARK  status: ('A' for Active; 'I' for Inactive)
REMARK    1  A    between atoms: C_2  and  O_3 
REMARK    2  A    between atoms: O_3  and  C_4 
REMARK    3  A    between atoms: C_4  and  C_5 
REMARK    4  A    between atoms: C_5  and  O_6 
ROOT
HETATM    1  C   UNK N   1      20.170  19.940   2.861  0.00  0.00     0.193 C 
ENDROOT
BRANCH   1   2
HETATM    2  O   UNK N   1      21.061  19.939   3.931  0.00  0.00    -0.389 OA
BRANCH   2   3
HETATM    3  C   UNK N   1      22.277  19.569   3.360  0.00  0.00     0.163 C 
HETATM    4  C   UNK N   1      22.973  18.575   4.261  0.00  0.00     0.033 C 
ENDBRANCH   2   3
ENDBRANCH   1   2
BRANCH   1   5
HETATM    5  C   UNK N   1      19.528  18.578   2.737  0.00  0.00     0.190 C 
BRANCH   5   6
HETATM    6  O   UNK N   1      18.205  18.737   2.329  0.00  0.00    -0.399 OA
HETATM    7  H   UNK N   1      17.891  18.304   1.520  0.00  0.00     0.209 HD
ENDBRANCH   5   6
ENDBRANCH   1   5
TORSDOF 4
ENDMDL
