MODEL 1
REMARK VINA RESULT:      -7.0      0.000      0.000
REMARK  15 active torsions:
REMARK  status: ('A' for Active; 'I' for Inactive)
REMARK    1  A    between atoms: C_4  and  C_1 
REMARK    2  A    between atoms: O_28  and  C_1 
REMARK    3  A    between atoms: C_6  and  O_19 
REMARK    4  A    between atoms: C_7  and  O_30 
REMARK    5  A    between atoms: N_11  and  C_8 
REMARK    6  A    between atoms: C_10  and  N_18 
REMARK    7  A    between atoms: P_32  and  O_20 
REMARK    8  A    between atoms: P_32  and  O_21 
REMARK    9  A    between atoms: P_33  and  O_23 
REMARK   10  A    between atoms: P_33  and  O_24 
REMARK   11  A    between atoms: P_34  and  O_26 
REMARK   12  A    between atoms: P_34  and  O_28 
REMARK   13  A    between atoms: P_32  and  O_30 
REMARK   14  A    between atoms: P_33  and  O_31 
REMARK   15  A    between atoms: P_34  and  O_31 
ROOT
HETATM    1  C   UNK N   1      35.732  13.815  12.947  0.00  0.00     0.180 C 
HETATM    2  C   UNK N   1      36.745  12.684  12.745  0.00  0.00     0.183 C 
HETATM    3  C   UNK N   1      37.084  12.429  14.200  0.00  0.00     0.214 C 
HETATM    4  C   UNK N   1      35.643  12.393  14.705  0.00  0.00     0.263 C 
HETATM    5  O   UNK N   1      34.975  13.488  14.100  0.00  0.00    -0.353 OA
ENDROOT
BRANCH   4   6
HETATM    6  N   UNK N   1      35.522  12.419  16.166  0.00  0.00    -0.297 N 
HETATM    7  C   UNK N   1      35.280  13.497  16.956  0.00  0.00     0.188 A 
HETATM    8  N   UNK N   1      35.128  13.133  18.262  0.00  0.00    -0.346 N 
HETATM    9  C   UNK N   1      35.274  11.796  18.254  0.00  0.00     0.122 A 
ATOM     10  HN  UNK N   1      34.944  13.738  19.063  1.00  0.00     0.167 HD
HETATM   11  C   UNK N   1      35.176  10.880  19.291  0.00  0.00     0.131 A 
HETATM   12  C   UNK N   1      35.519  11.369  17.001  0.00  0.00     0.142 A 
HETATM   13  N   UNK N   1      35.350   9.557  18.999  0.00  0.00    -0.337 N 
HETATM   14  C   UNK N   1      35.606   9.146  17.713  0.00  0.00     0.183 A 
ATOM     15  HN  UNK N   1      35.290   8.864  19.746  1.00  0.00     0.168 HD
HETATM   16  N   UNK N   1      35.678  10.059  16.697  0.00  0.00    -0.336 N 
ATOM     17  HN  UNK N   1      35.849   9.762  15.737  1.00  0.00     0.168 HD
BRANCH  11  18
HETATM   18  N   UNK N   1      34.881  11.291  20.607  0.00  0.00    -0.383 N 
HETATM   19  H   UNK N   1      34.631  10.634  21.296  0.00  0.00     0.157 HD
HETATM   20  H   UNK N   1      34.926  12.247  20.840  0.00  0.00     0.157 HD
ENDBRANCH  11  18
ENDBRANCH   4   6
BRANCH   3  21
HETATM   21  O   UNK N   1      37.804  11.286  14.641  0.00  0.00    -0.284 OA
BRANCH  21  22
HETATM   22  P   UNK N   1      37.728   9.804  13.704  0.00  0.00     0.391 P 
HETATM   23  O   UNK N   1      38.018  10.039  12.200  0.00  0.00    -0.632 OA
BRANCH  22  24
HETATM   24  O   UNK N   1      38.779   8.562  14.304  0.00  0.00    -0.307 OA
HETATM   25  H   UNK N   1      38.768   7.624  14.555  0.00  0.00     0.222 HD
ENDBRANCH  22  24
BRANCH  22  26
HETATM   26  O   UNK N   1      36.090   9.234  13.759  0.00  0.00    -0.307 OA
HETATM   27  H   UNK N   1      35.672   8.735  13.040  0.00  0.00     0.222 HD
ENDBRANCH  22  26
ENDBRANCH  21  22
ENDBRANCH   3  21
BRANCH   2  28
HETATM   28  O   UNK N   1      37.845  13.072  11.975  0.00  0.00    -0.390 OA
HETATM   29  H   UNK N   1      38.031  13.841  11.413  0.00  0.00     0.210 HD
ENDBRANCH   2  28
BRANCH   1  30
HETATM   30  C   UNK N   1      34.799  14.017  11.749  0.00  0.00     0.215 C 
BRANCH  30  31
HETATM   31  O   UNK N   1      34.496  15.367  11.551  0.00  0.00    -0.294 OA
BRANCH  31  32
HETATM   32  P   UNK N   1      35.580  15.970  10.323  0.00  0.00     0.401 P 
HETATM   33  O   UNK N   1      35.308  15.136   9.042  0.00  0.00    -0.631 OA
BRANCH  32  34
HETATM   34  O   UNK N   1      37.254  15.746  10.731  0.00  0.00    -0.307 OA
HETATM   35  H   UNK N   1      37.767  16.453  11.152  0.00  0.00     0.222 HD
ENDBRANCH  32  34
BRANCH  32  36
HETATM   36  O   UNK N   1      35.235  17.626   9.877  0.00  0.00    -0.195 OA
BRANCH  36  37
HETATM   37  P   UNK N   1      34.524  17.599   8.283  0.00  0.00     0.399 P 
HETATM   38  O   UNK N   1      34.883  19.107   8.411  0.00  0.00    -0.631 OA
BRANCH  37  39
HETATM   39  O   UNK N   1      33.017  18.389   7.942  0.00  0.00    -0.307 OA
HETATM   40  H   UNK N   1      32.462  18.719   8.666  0.00  0.00     0.222 HD
ENDBRANCH  37  39
BRANCH  37  41
HETATM   41  O   UNK N   1      33.330  17.214   9.481  0.00  0.00    -0.307 OA
HETATM   42  H   UNK N   1      33.473  16.565  10.186  0.00  0.00     0.222 HD
ENDBRANCH  37  41
ENDBRANCH  36  37
ENDBRANCH  32  36
ENDBRANCH  31  32
ENDBRANCH  30  31
ENDBRANCH   1  30
TORSDOF 15
ENDMDL
MODEL 2
REMARK VINA RESULT:      -7.0      5.591      9.595
REMARK  15 active torsions:
REMARK  status: ('A' for Active; 'I' for Inactive)
REMARK    1  A    between atoms: C_4  and  C_1 
REMARK    2  A    between atoms: O_28  and  C_1 
REMARK    3  A    between atoms: C_6  and  O_19 
REMARK    4  A    between atoms: C_7  and  O_30 
REMARK    5  A    between atoms: N_11  and  C_8 
REMARK    6  A    between atoms: C_10  and  N_18 
REMARK    7  A    between atoms: P_32  and  O_20 
REMARK    8  A    between atoms: P_32  and  O_21 
REMARK    9  A    between atoms: P_33  and  O_23 
REMARK   10  A    between atoms: P_33  and  O_24 
REMARK   11  A    between atoms: P_34  and  O_26 
REMARK   12  A    between atoms: P_34  and  O_28 
REMARK   13  A    between atoms: P_32  and  O_30 
REMARK   14  A    between atoms: P_33  and  O_31 
REMARK   15  A    between atoms: P_34  and  O_31 
ROOT
HETATM    1  C   UNK N   1      36.570  13.900   9.962  0.00  0.00     0.180 C 
HETATM    2  C   UNK N   1      36.132  15.248  10.545  0.00  0.00     0.183 C 
HETATM    3  C   UNK N   1      35.227  15.694   9.416  0.00  0.00     0.214 C 
HETATM    4  C   UNK N   1      34.466  14.378   9.278  0.00  0.00     0.263 C 
HETATM    5  O   UNK N   1      35.436  13.344   9.318  0.00  0.00    -0.353 OA
ENDROOT
BRANCH   4   6
HETATM    6  N   UNK N   1      33.628  14.295   8.077  0.00  0.00    -0.297 N 
HETATM    7  C   UNK N   1      32.273  14.364   8.010  0.00  0.00     0.188 A 
HETATM    8  N   UNK N   1      31.839  14.355   6.716  0.00  0.00    -0.346 N 
HETATM    9  C   UNK N   1      32.967  14.287   5.986  0.00  0.00     0.122 A 
ATOM     10  HN  UNK N   1      30.877  14.392   6.379  1.00  0.00     0.167 HD
HETATM   11  C   UNK N   1      33.143  14.292   4.611  0.00  0.00     0.131 A 
HETATM   12  C   UNK N   1      34.038  14.241   6.801  0.00  0.00     0.142 A 
HETATM   13  N   UNK N   1      34.419  14.235   4.126  0.00  0.00    -0.337 N 
HETATM   14  C   UNK N   1      35.496  14.183   4.977  0.00  0.00     0.183 A 
ATOM     15  HN  UNK N   1      34.574  14.230   3.117  1.00  0.00     0.168 HD
HETATM   16  N   UNK N   1      35.307  14.199   6.332  0.00  0.00    -0.336 N 
ATOM     17  HN  UNK N   1      36.101  14.180   6.972  1.00  0.00     0.168 HD
BRANCH  11  18
HETATM   18  N   UNK N   1      32.044  14.378   3.731  0.00  0.00    -0.383 N 
HETATM   19  H   UNK N   1      31.761  15.247   3.364  0.00  0.00     0.157 HD
HETATM   20  H   UNK N   1      31.555  13.561   3.482  0.00  0.00     0.157 HD
ENDBRANCH  11  18
ENDBRANCH   4   6
BRANCH   3  21
HETATM   21  O   UNK N   1      34.328  16.790   9.527  0.00  0.00    -0.284 OA
BRANCH  21  22
HETATM   22  P   UNK N   1      34.219  17.951   8.216  0.00  0.00     0.391 P 
HETATM   23  O   UNK N   1      34.722  17.372   6.868  0.00  0.00    -0.632 OA
BRANCH  22  24
HETATM   24  O   UNK N   1      32.621  18.592   8.003  0.00  0.00    -0.307 OA
HETATM   25  H   UNK N   1      32.105  19.397   8.173  0.00  0.00     0.222 HD
ENDBRANCH  22  24
BRANCH  22  26
HETATM   26  O   UNK N   1      35.307  19.253   8.577  0.00  0.00    -0.307 OA
HETATM   27  H   UNK N   1      35.779  19.761   7.898  0.00  0.00     0.222 HD
ENDBRANCH  22  26
ENDBRANCH  21  22
ENDBRANCH   3  21
BRANCH   2  28
HETATM   28  O   UNK N   1      37.205  16.112  10.777  0.00  0.00    -0.390 OA
HETATM   29  H   UNK N   1      37.841  16.561  10.198  0.00  0.00     0.210 HD
ENDBRANCH   2  28
BRANCH   1  30
HETATM   30  C   UNK N   1      37.104  12.925  11.015  0.00  0.00     0.215 C 
BRANCH  30  31
HETATM   31  O   UNK N   1      36.858  13.382  12.314  0.00  0.00    -0.294 OA
BRANCH  31  32
HETATM   32  P   UNK N   1      35.552  12.423  12.964  0.00  0.00     0.401 P 
HETATM   33  O   UNK N   1      36.205  11.209  13.677  0.00  0.00    -0.631 OA
BRANCH  32  34
HETATM   34  O   UNK N   1      34.503  11.789  11.733  0.00  0.00    -0.307 OA
HETATM   35  H   UNK N   1      34.842  11.556  10.855  0.00  0.00     0.222 HD
ENDBRANCH  32  34
BRANCH  32  36
HETATM   36  O   UNK N   1      34.659  13.265  14.210  0.00  0.00    -0.195 OA
BRANCH  36  37
HETATM   37  P   UNK N   1      35.215  12.658  15.750  0.00  0.00     0.399 P 
HETATM   38  O   UNK N   1      33.895  13.359  16.179  0.00  0.00    -0.631 OA
BRANCH  37  39
HETATM   39  O   UNK N   1      35.734  13.725  17.017  0.00  0.00    -0.307 OA
HETATM   40  H   UNK N   1      35.354  14.614  17.095  0.00  0.00     0.222 HD
ENDBRANCH  37  39
BRANCH  37  41
HETATM   41  O   UNK N   1      36.307  13.865  15.147  0.00  0.00    -0.307 OA
HETATM   42  H   UNK N   1      36.636  13.878  14.236  0.00  0.00     0.222 HD
ENDBRANCH  37  41
ENDBRANCH  36  37
ENDBRANCH  32  36
ENDBRANCH  31  32
ENDBRANCH  30  31
ENDBRANCH   1  30
TORSDOF 15
ENDMDL
MODEL 3
REMARK VINA RESULT:      -6.7     14.275     16.334
REMARK  15 active torsions:
REMARK  status: ('A' for Active; 'I' for Inactive)
REMARK    1  A    between atoms: C_4  and  C_1 
REMARK    2  A    between atoms: O_28  and  C_1 
REMARK    3  A    between atoms: C_6  and  O_19 
REMARK    4  A    between atoms: C_7  and  O_30 
REMARK    5  A    between atoms: N_11  and  C_8 
REMARK    6  A    between atoms: C_10  and  N_18 
REMARK    7  A    between atoms: P_32  and  O_20 
REMARK    8  A    between atoms: P_32  and  O_21 
REMARK    9  A    between atoms: P_33  and  O_23 
REMARK   10  A    between atoms: P_33  and  O_24 
REMARK   11  A    between atoms: P_34  and  O_26 
REMARK   12  A    between atoms: P_34  and  O_28 
REMARK   13  A    between atoms: P_32  and  O_30 
REMARK   14  A    between atoms: P_33  and  O_31 
REMARK   15  A    between atoms: P_34  and  O_31 
ROOT
HETATM    1  C   UNK N   1      22.724  15.795   6.065  0.00  0.00     0.180 C 
HETATM    2  C   UNK N   1      22.003  14.731   5.231  0.00  0.00     0.183 C 
HETATM    3  C   UNK N   1      21.912  13.648   6.287  0.00  0.00     0.214 C 
HETATM    4  C   UNK N   1      21.399  14.547   7.409  0.00  0.00     0.263 C 
HETATM    5  O   UNK N   1      22.185  15.727   7.374  0.00  0.00    -0.353 OA
ENDROOT
BRANCH   4   6
HETATM    6  N   UNK N   1      21.415  13.918   8.734  0.00  0.00    -0.297 N 
HETATM    7  C   UNK N   1      20.347  13.588   9.504  0.00  0.00     0.188 A 
HETATM    8  N   UNK N   1      20.733  12.923  10.631  0.00  0.00    -0.346 N 
HETATM    9  C   UNK N   1      22.072  12.845  10.530  0.00  0.00     0.122 A 
ATOM     10  HN  UNK N   1      20.140  12.566  11.381  1.00  0.00     0.167 HD
HETATM   11  C   UNK N   1      22.997  12.238  11.366  0.00  0.00     0.131 A 
HETATM   12  C   UNK N   1      22.482  13.448   9.399  0.00  0.00     0.142 A 
HETATM   13  N   UNK N   1      24.316  12.289  11.009  0.00  0.00    -0.337 N 
HETATM   14  C   UNK N   1      24.710  12.916   9.852  0.00  0.00     0.183 A 
ATOM     15  HN  UNK N   1      25.017  11.855  11.611  1.00  0.00     0.168 HD
HETATM   16  N   UNK N   1      23.783  13.492   9.028  0.00  0.00    -0.336 N 
ATOM     17  HN  UNK N   1      24.065  13.944   8.158  1.00  0.00     0.168 HD
BRANCH  11  18
HETATM   18  N   UNK N   1      22.596  11.563  12.537  0.00  0.00    -0.383 N 
HETATM   19  H   UNK N   1      22.708  10.589  12.620  0.00  0.00     0.157 HD
HETATM   20  H   UNK N   1      22.200  12.073  13.280  0.00  0.00     0.157 HD
ENDBRANCH  11  18
ENDBRANCH   4   6
BRANCH   3  21
HETATM   21  O   UNK N   1      21.095  12.493   6.148  0.00  0.00    -0.284 OA
BRANCH  21  22
HETATM   22  P   UNK N   1      19.878  12.446   4.885  0.00  0.00     0.391 P 
HETATM   23  O   UNK N   1      18.840  13.590   5.019  0.00  0.00    -0.632 OA
BRANCH  22  24
HETATM   24  O   UNK N   1      20.551  12.468   3.287  0.00  0.00    -0.307 OA
HETATM   25  H   UNK N   1      21.384  12.291   2.819  0.00  0.00     0.222 HD
ENDBRANCH  22  24
BRANCH  22  26
HETATM   26  O   UNK N   1      18.963  10.986   5.093  0.00  0.00    -0.307 OA
HETATM   27  H   UNK N   1      19.210  10.138   4.693  0.00  0.00     0.222 HD
ENDBRANCH  22  26
ENDBRANCH  21  22
ENDBRANCH   3  21
BRANCH   2  28
HETATM   28  O   UNK N   1      22.725  14.348   4.098  0.00  0.00    -0.390 OA
HETATM   29  H   UNK N   1      22.486  13.896   3.273  0.00  0.00     0.210 HD
ENDBRANCH   2  28
BRANCH   1  30
HETATM   30  C   UNK N   1      22.566  17.213   5.508  0.00  0.00     0.215 C 
BRANCH  30  31
HETATM   31  O   UNK N   1      22.165  17.201   4.169  0.00  0.00    -0.294 OA
BRANCH  31  32
HETATM   32  P   UNK N   1      21.216  18.641   3.897  0.00  0.00     0.401 P 
HETATM   33  O   UNK N   1      21.126  19.379   5.260  0.00  0.00    -0.631 OA
BRANCH  32  34
HETATM   34  O   UNK N   1      19.588  18.293   3.398  0.00  0.00    -0.307 OA
HETATM   35  H   UNK N   1      19.241  18.622   2.554  0.00  0.00     0.222 HD
ENDBRANCH  32  34
BRANCH  32  36
HETATM   36  O   UNK N   1      22.002  19.768   2.814  0.00  0.00    -0.195 OA
BRANCH  36  37
HETATM   37  P   UNK N   1      20.797  20.326   1.680  0.00  0.00     0.399 P 
HETATM   38  O   UNK N   1      22.098  20.596   0.871  0.00  0.00    -0.631 OA
BRANCH  37  39
HETATM   39  O   UNK N   1      20.652  22.003   1.255  0.00  0.00    -0.307 OA
HETATM   40  H   UNK N   1      19.997  22.565   1.697  0.00  0.00     0.222 HD
ENDBRANCH  37  39
BRANCH  37  41
HETATM   41  O   UNK N   1      20.809  21.335   3.092  0.00  0.00    -0.307 OA
HETATM   42  H   UNK N   1      20.954  22.293   3.061  0.00  0.00     0.222 HD
ENDBRANCH  37  41
ENDBRANCH  36  37
ENDBRANCH  32  36
ENDBRANCH  31  32
ENDBRANCH  30  31
ENDBRANCH   1  30
TORSDOF 15
ENDMDL
MODEL 4
REMARK VINA RESULT:      -6.7     15.728     18.201
REMARK  15 active torsions:
REMARK  status: ('A' for Active; 'I' for Inactive)
REMARK    1  A    between atoms: C_4  and  C_1 
REMARK    2  A    between atoms: O_28  and  C_1 
REMARK    3  A    between atoms: C_6  and  O_19 
REMARK    4  A    between atoms: C_7  and  O_30 
REMARK    5  A    between atoms: N_11  and  C_8 
REMARK    6  A    between atoms: C_10  and  N_18 
REMARK    7  A    between atoms: P_32  and  O_20 
REMARK    8  A    between atoms: P_32  and  O_21 
REMARK    9  A    between atoms: P_33  and  O_23 
REMARK   10  A    between atoms: P_33  and  O_24 
REMARK   11  A    between atoms: P_34  and  O_26 
REMARK   12  A    between atoms: P_34  and  O_28 
REMARK   13  A    between atoms: P_32  and  O_30 
REMARK   14  A    between atoms: P_33  and  O_31 
REMARK   15  A    between atoms: P_34  and  O_31 
ROOT
HETATM    1  C   UNK N   1      21.116  16.262   5.319  0.00  0.00     0.180 C 
HETATM    2  C   UNK N   1      20.534  16.681   3.966  0.00  0.00     0.183 C 
HETATM    3  C   UNK N   1      21.508  17.795   3.641  0.00  0.00     0.214 C 
HETATM    4  C   UNK N   1      22.776  17.015   3.979  0.00  0.00     0.263 C 
HETATM    5  O   UNK N   1      22.526  16.346   5.204  0.00  0.00    -0.353 OA
ENDROOT
BRANCH   4   6
HETATM    6  N   UNK N   1      23.986  17.840   4.043  0.00  0.00    -0.297 N 
HETATM    7  C   UNK N   1      24.087  19.124   4.474  0.00  0.00     0.188 A 
HETATM    8  N   UNK N   1      25.386  19.542   4.494  0.00  0.00    -0.346 N 
HETATM    9  C   UNK N   1      26.086  18.473   4.070  0.00  0.00     0.122 A 
ATOM     10  HN  UNK N   1      25.746  20.456   4.767  1.00  0.00     0.167 HD
HETATM   11  C   UNK N   1      27.455  18.299   3.931  0.00  0.00     0.131 A 
HETATM   12  C   UNK N   1      25.248  17.458   3.792  0.00  0.00     0.142 A 
HETATM   13  N   UNK N   1      27.907  17.086   3.495  0.00  0.00    -0.337 N 
HETATM   14  C   UNK N   1      27.031  16.066   3.212  0.00  0.00     0.183 A 
ATOM     15  HN  UNK N   1      28.910  16.935   3.379  1.00  0.00     0.168 HD
HETATM   16  N   UNK N   1      25.685  16.247   3.373  0.00  0.00    -0.336 N 
ATOM     17  HN  UNK N   1      25.029  15.490   3.184  1.00  0.00     0.168 HD
BRANCH  11  18
HETATM   18  N   UNK N   1      28.361  19.330   4.252  0.00  0.00    -0.383 N 
HETATM   19  H   UNK N   1      28.073  20.106   4.786  0.00  0.00     0.157 HD
HETATM   20  H   UNK N   1      29.293  19.273   3.940  0.00  0.00     0.157 HD
ENDBRANCH  11  18
ENDBRANCH   4   6
BRANCH   3  21
HETATM   21  O   UNK N   1      21.607  18.392   2.355  0.00  0.00    -0.284 OA
BRANCH  21  22
HETATM   22  P   UNK N   1      20.744  19.884   2.029  0.00  0.00     0.391 P 
HETATM   23  O   UNK N   1      19.290  19.858   2.565  0.00  0.00    -0.632 OA
BRANCH  22  24
HETATM   24  O   UNK N   1      21.555  21.290   2.641  0.00  0.00    -0.307 OA
HETATM   25  H   UNK N   1      21.742  22.213   2.405  0.00  0.00     0.222 HD
ENDBRANCH  22  24
BRANCH  22  26
HETATM   26  O   UNK N   1      20.582  20.030   0.307  0.00  0.00    -0.307 OA
HETATM   27  H   UNK N   1      19.769  20.328  -0.131  0.00  0.00     0.222 HD
ENDBRANCH  22  26
ENDBRANCH  21  22
ENDBRANCH   3  21
BRANCH   2  28
HETATM   28  O   UNK N   1      19.206  17.108   4.054  0.00  0.00    -0.390 OA
HETATM   29  H   UNK N   1      18.493  16.949   4.692  0.00  0.00     0.210 HD
ENDBRANCH   2  28
BRANCH   1  30
HETATM   30  C   UNK N   1      20.709  14.849   5.745  0.00  0.00     0.215 C 
BRANCH  30  31
HETATM   31  O   UNK N   1      19.744  14.871   6.756  0.00  0.00    -0.294 OA
BRANCH  31  32
HETATM   32  P   UNK N   1      20.589  14.878   8.284  0.00  0.00     0.401 P 
HETATM   33  O   UNK N   1      22.065  14.508   7.976  0.00  0.00    -0.631 OA
BRANCH  32  34
HETATM   34  O   UNK N   1      19.986  13.687   9.395  0.00  0.00    -0.307 OA
HETATM   35  H   UNK N   1      20.041  12.740   9.195  0.00  0.00     0.222 HD
ENDBRANCH  32  34
BRANCH  32  36
HETATM   36  O   UNK N   1      20.654  16.470   9.007  0.00  0.00    -0.195 OA
BRANCH  36  37
HETATM   37  P   UNK N   1      19.342  17.403   8.331  0.00  0.00     0.399 P 
HETATM   38  O   UNK N   1      19.953  18.440   9.316  0.00  0.00    -0.631 OA
BRANCH  37  39
HETATM   39  O   UNK N   1      17.976  17.884   9.288  0.00  0.00    -0.307 OA
HETATM   40  H   UNK N   1      17.991  18.721   9.776  0.00  0.00     0.222 HD
ENDBRANCH  37  39
BRANCH  37  41
HETATM   41  O   UNK N   1      18.721  16.070   9.253  0.00  0.00    -0.307 OA
HETATM   42  H   UNK N   1      18.094  16.175   9.984  0.00  0.00     0.222 HD
ENDBRANCH  37  41
ENDBRANCH  36  37
ENDBRANCH  32  36
ENDBRANCH  31  32
ENDBRANCH  30  31
ENDBRANCH   1  30
TORSDOF 15
ENDMDL
MODEL 5
REMARK VINA RESULT:      -6.6     14.348     16.772
REMARK  15 active torsions:
REMARK  status: ('A' for Active; 'I' for Inactive)
REMARK    1  A    between atoms: C_4  and  C_1 
REMARK    2  A    between atoms: O_28  and  C_1 
REMARK    3  A    between atoms: C_6  and  O_19 
REMARK    4  A    between atoms: C_7  and  O_30 
REMARK    5  A    between atoms: N_11  and  C_8 
REMARK    6  A    between atoms: C_10  and  N_18 
REMARK    7  A    between atoms: P_32  and  O_20 
REMARK    8  A    between atoms: P_32  and  O_21 
REMARK    9  A    between atoms: P_33  and  O_23 
REMARK   10  A    between atoms: P_33  and  O_24 
REMARK   11  A    between atoms: P_34  and  O_26 
REMARK   12  A    between atoms: P_34  and  O_28 
REMARK   13  A    between atoms: P_32  and  O_30 
REMARK   14  A    between atoms: P_33  and  O_31 
REMARK   15  A    between atoms: P_34  and  O_31 
ROOT
HETATM    1  C   UNK N   1      21.035  13.865   5.487  0.00  0.00     0.180 C 
HETATM    2  C   UNK N   1      20.647  15.305   5.835  0.00  0.00     0.183 C 
HETATM    3  C   UNK N   1      20.402  15.117   7.318  0.00  0.00     0.214 C 
HETATM    4  C   UNK N   1      21.683  14.336   7.603  0.00  0.00     0.263 C 
HETATM    5  O   UNK N   1      21.810  13.375   6.568  0.00  0.00    -0.353 OA
ENDROOT
BRANCH   4   6
HETATM    6  N   UNK N   1      21.721  13.716   8.932  0.00  0.00    -0.297 N 
HETATM    7  C   UNK N   1      20.664  13.337   9.696  0.00  0.00     0.188 A 
HETATM    8  N   UNK N   1      21.075  12.699  10.830  0.00  0.00    -0.346 N 
HETATM    9  C   UNK N   1      22.417  12.686  10.738  0.00  0.00     0.122 A 
ATOM     10  HN  UNK N   1      20.496  12.317  11.578  1.00  0.00     0.167 HD
HETATM   11  C   UNK N   1      23.366  12.130  11.584  0.00  0.00     0.131 A 
HETATM   12  C   UNK N   1      22.805  13.303   9.607  0.00  0.00     0.142 A 
HETATM   13  N   UNK N   1      24.682  12.244  11.236  0.00  0.00    -0.337 N 
HETATM   14  C   UNK N   1      25.053  12.884  10.078  0.00  0.00     0.183 A 
ATOM     15  HN  UNK N   1      25.399  11.849  11.845  1.00  0.00     0.168 HD
HETATM   16  N   UNK N   1      24.105  13.410   9.245  0.00  0.00    -0.336 N 
ATOM     17  HN  UNK N   1      24.370  13.870   8.374  1.00  0.00     0.168 HD
BRANCH  11  18
HETATM   18  N   UNK N   1      22.990  11.443  12.756  0.00  0.00    -0.383 N 
HETATM   19  H   UNK N   1      23.303  10.525  12.923  0.00  0.00     0.157 HD
HETATM   20  H   UNK N   1      22.408  11.887  13.415  0.00  0.00     0.157 HD
ENDBRANCH  11  18
ENDBRANCH   4   6
BRANCH   3  21
HETATM   21  O   UNK N   1      20.256  16.200   8.226  0.00  0.00    -0.284 OA
BRANCH  21  22
HETATM   22  P   UNK N   1      18.647  16.722   8.693  0.00  0.00     0.391 P 
HETATM   23  O   UNK N   1      17.979  15.752   9.701  0.00  0.00    -0.632 OA
BRANCH  22  24
HETATM   24  O   UNK N   1      18.611  18.332   9.337  0.00  0.00    -0.307 OA
HETATM   25  H   UNK N   1      18.417  18.808  10.161  0.00  0.00     0.222 HD
ENDBRANCH  22  24
BRANCH  22  26
HETATM   26  O   UNK N   1      17.643  16.657   7.278  0.00  0.00    -0.307 OA
HETATM   27  H   UNK N   1      16.674  16.659   7.309  0.00  0.00     0.222 HD
ENDBRANCH  22  26
ENDBRANCH  21  22
ENDBRANCH   3  21
BRANCH   2  28
HETATM   28  O   UNK N   1      19.522  15.749   5.134  0.00  0.00    -0.390 OA
HETATM   29  H   UNK N   1      19.328  16.546   4.616  0.00  0.00     0.210 HD
ENDBRANCH   2  28
BRANCH   1  30
HETATM   30  C   UNK N   1      21.824  13.745   4.180  0.00  0.00     0.215 C 
BRANCH  30  31
HETATM   31  O   UNK N   1      20.991  13.843   3.062  0.00  0.00    -0.294 OA
BRANCH  31  32
HETATM   32  P   UNK N   1      21.350  15.360   2.276  0.00  0.00     0.401 P 
HETATM   33  O   UNK N   1      21.727  15.022   0.809  0.00  0.00    -0.631 OA
BRANCH  32  34
HETATM   34  O   UNK N   1      22.712  16.178   2.978  0.00  0.00    -0.307 OA
HETATM   35  H   UNK N   1      23.619  15.876   2.814  0.00  0.00     0.222 HD
ENDBRANCH  32  34
BRANCH  32  36
HETATM   36  O   UNK N   1      19.951  16.405   2.164  0.00  0.00    -0.195 OA
BRANCH  36  37
HETATM   37  P   UNK N   1      20.497  18.038   2.448  0.00  0.00     0.399 P 
HETATM   38  O   UNK N   1      19.163  18.039   3.248  0.00  0.00    -0.631 OA
BRANCH  37  39
HETATM   39  O   UNK N   1      19.653  19.409   1.798  0.00  0.00    -0.307 OA
HETATM   40  H   UNK N   1      19.317  20.101   2.387  0.00  0.00     0.222 HD
ENDBRANCH  37  39
BRANCH  37  41
HETATM   41  O   UNK N   1      20.129  17.810   0.767  0.00  0.00    -0.307 OA
HETATM   42  H   UNK N   1      19.627  18.450   0.240  0.00  0.00     0.222 HD
ENDBRANCH  37  41
ENDBRANCH  36  37
ENDBRANCH  32  36
ENDBRANCH  31  32
ENDBRANCH  30  31
ENDBRANCH   1  30
TORSDOF 15
ENDMDL
MODEL 6
REMARK VINA RESULT:      -6.6      7.740     11.499
REMARK  15 active torsions:
REMARK  status: ('A' for Active; 'I' for Inactive)
REMARK    1  A    between atoms: C_4  and  C_1 
REMARK    2  A    between atoms: O_28  and  C_1 
REMARK    3  A    between atoms: C_6  and  O_19 
REMARK    4  A    between atoms: C_7  and  O_30 
REMARK    5  A    between atoms: N_11  and  C_8 
REMARK    6  A    between atoms: C_10  and  N_18 
REMARK    7  A    between atoms: P_32  and  O_20 
REMARK    8  A    between atoms: P_32  and  O_21 
REMARK    9  A    between atoms: P_33  and  O_23 
REMARK   10  A    between atoms: P_33  and  O_24 
REMARK   11  A    between atoms: P_34  and  O_26 
REMARK   12  A    between atoms: P_34  and  O_28 
REMARK   13  A    between atoms: P_32  and  O_30 
REMARK   14  A    between atoms: P_33  and  O_31 
REMARK   15  A    between atoms: P_34  and  O_31 
ROOT
HETATM    1  C   UNK N   1      32.264  16.092   8.513  0.00  0.00     0.180 C 
HETATM    2  C   UNK N   1      32.042  15.506   7.115  0.00  0.00     0.183 C 
HETATM    3  C   UNK N   1      30.592  15.908   6.934  0.00  0.00     0.214 C 
HETATM    4  C   UNK N   1      30.761  17.356   7.389  0.00  0.00     0.263 C 
HETATM    5  O   UNK N   1      31.562  17.322   8.559  0.00  0.00    -0.353 OA
ENDROOT
BRANCH   4   6
HETATM    6  N   UNK N   1      29.495  18.063   7.613  0.00  0.00    -0.297 N 
HETATM    7  C   UNK N   1      28.871  18.282   8.799  0.00  0.00     0.188 A 
HETATM    8  N   UNK N   1      27.765  19.066   8.641  0.00  0.00    -0.346 N 
HETATM    9  C   UNK N   1      27.730  19.332   7.323  0.00  0.00     0.122 A 
ATOM     10  HN  UNK N   1      27.113  19.380   9.360  1.00  0.00     0.167 HD
HETATM   11  C   UNK N   1      26.852  20.119   6.593  0.00  0.00     0.131 A 
HETATM   12  C   UNK N   1      28.761  18.724   6.705  0.00  0.00     0.142 A 
HETATM   13  N   UNK N   1      27.062  20.238   5.248  0.00  0.00    -0.337 N 
HETATM   14  C   UNK N   1      28.118  19.603   4.639  0.00  0.00     0.183 A 
ATOM     15  HN  UNK N   1      26.426  20.806   4.688  1.00  0.00     0.168 HD
HETATM   16  N   UNK N   1      28.987  18.847   5.377  0.00  0.00    -0.336 N 
ATOM     17  HN  UNK N   1      29.784  18.387   4.937  1.00  0.00     0.168 HD
BRANCH  11  18
HETATM   18  N   UNK N   1      25.787  20.800   7.216  0.00  0.00    -0.383 N 
HETATM   19  H   UNK N   1      24.926  20.919   6.753  0.00  0.00     0.157 HD
HETATM   20  H   UNK N   1      25.906  21.162   8.124  0.00  0.00     0.157 HD
ENDBRANCH  11  18
ENDBRANCH   4   6
BRANCH   3  21
HETATM   21  O   UNK N   1      29.918  15.844   5.685  0.00  0.00    -0.284 OA
BRANCH  21  22
HETATM   22  P   UNK N   1      30.780  16.270   4.217  0.00  0.00     0.391 P 
HETATM   23  O   UNK N   1      31.694  17.508   4.405  0.00  0.00    -0.632 OA
BRANCH  22  24
HETATM   24  O   UNK N   1      31.716  14.960   3.571  0.00  0.00    -0.307 OA
HETATM   25  H   UNK N   1      32.482  14.794   2.997  0.00  0.00     0.222 HD
ENDBRANCH  22  24
BRANCH  22  26
HETATM   26  O   UNK N   1      29.603  16.759   3.040  0.00  0.00    -0.307 OA
HETATM   27  H   UNK N   1      28.773  17.207   3.267  0.00  0.00     0.222 HD
ENDBRANCH  22  26
ENDBRANCH  21  22
ENDBRANCH   3  21
BRANCH   2  28
HETATM   28  O   UNK N   1      32.249  14.124   7.067  0.00  0.00    -0.390 OA
HETATM   29  H   UNK N   1      31.662  13.364   6.931  0.00  0.00     0.210 HD
ENDBRANCH   2  28
BRANCH   1  30
HETATM   30  C   UNK N   1      33.740  16.320   8.850  0.00  0.00     0.215 C 
BRANCH  30  31
HETATM   31  O   UNK N   1      34.365  15.138   9.260  0.00  0.00    -0.294 OA
BRANCH  31  32
HETATM   32  P   UNK N   1      35.360  15.528  10.641  0.00  0.00     0.401 P 
HETATM   33  O   UNK N   1      35.186  17.048  10.899  0.00  0.00    -0.631 OA
BRANCH  32  34
HETATM   34  O   UNK N   1      37.051  15.249  10.355  0.00  0.00    -0.307 OA
HETATM   35  H   UNK N   1      37.562  15.825   9.766  0.00  0.00     0.222 HD
ENDBRANCH  32  34
BRANCH  32  36
HETATM   36  O   UNK N   1      34.811  14.745  12.106  0.00  0.00    -0.195 OA
BRANCH  36  37
HETATM   37  P   UNK N   1      36.113  13.731  12.675  0.00  0.00     0.399 P 
HETATM   38  O   UNK N   1      34.966  13.285  13.626  0.00  0.00    -0.631 OA
BRANCH  37  39
HETATM   39  O   UNK N   1      36.811  13.940  14.250  0.00  0.00    -0.307 OA
HETATM   40  H   UNK N   1      36.319  13.673  15.042  0.00  0.00     0.222 HD
ENDBRANCH  37  39
BRANCH  37  41
HETATM   41  O   UNK N   1      36.469  15.401  12.988  0.00  0.00    -0.307 OA
HETATM   42  H   UNK N   1      37.293  15.701  13.401  0.00  0.00     0.222 HD
ENDBRANCH  37  41
ENDBRANCH  36  37
ENDBRANCH  32  36
ENDBRANCH  31  32
ENDBRANCH  30  31
ENDBRANCH   1  30
TORSDOF 15
ENDMDL
MODEL 7
REMARK VINA RESULT:      -6.6      7.140     10.159
REMARK  15 active torsions:
REMARK  status: ('A' for Active; 'I' for Inactive)
REMARK    1  A    between atoms: C_4  and  C_1 
REMARK    2  A    between atoms: O_28  and  C_1 
REMARK    3  A    between atoms: C_6  and  O_19 
REMARK    4  A    between atoms: C_7  and  O_30 
REMARK    5  A    between atoms: N_11  and  C_8 
REMARK    6  A    between atoms: C_10  and  N_18 
REMARK    7  A    between atoms: P_32  and  O_20 
REMARK    8  A    between atoms: P_32  and  O_21 
REMARK    9  A    between atoms: P_33  and  O_23 
REMARK   10  A    between atoms: P_33  and  O_24 
REMARK   11  A    between atoms: P_34  and  O_26 
REMARK   12  A    between atoms: P_34  and  O_28 
REMARK   13  A    between atoms: P_32  and  O_30 
REMARK   14  A    between atoms: P_33  and  O_31 
REMARK   15  A    between atoms: P_34  and  O_31 
ROOT
HETATM    1  C   UNK N   1      33.310  16.063   9.041  0.00  0.00     0.180 C 
HETATM    2  C   UNK N   1      33.243  14.757   8.241  0.00  0.00     0.183 C 
HETATM    3  C   UNK N   1      31.885  14.960   7.600  0.00  0.00     0.214 C 
HETATM    4  C   UNK N   1      32.128  16.396   7.140  0.00  0.00     0.263 C 
HETATM    5  O   UNK N   1      32.736  17.072   8.228  0.00  0.00    -0.353 OA
ENDROOT
BRANCH   4   6
HETATM    6  N   UNK N   1      30.921  17.085   6.673  0.00  0.00    -0.297 N 
HETATM    7  C   UNK N   1      30.475  17.195   5.395  0.00  0.00     0.188 A 
HETATM    8  N   UNK N   1      29.262  17.817   5.343  0.00  0.00    -0.346 N 
HETATM    9  C   UNK N   1      28.968  18.082   6.629  0.00  0.00     0.122 A 
ATOM     10  HN  UNK N   1      28.704  18.034   4.517  1.00  0.00     0.167 HD
HETATM   11  C   UNK N   1      27.839  18.664   7.186  0.00  0.00     0.131 A 
HETATM   12  C   UNK N   1      29.965  17.652   7.425  0.00  0.00     0.142 A 
HETATM   13  N   UNK N   1      27.787  18.794   8.545  0.00  0.00    -0.337 N 
HETATM   14  C   UNK N   1      28.820  18.353   9.336  0.00  0.00     0.183 A 
ATOM     15  HN  UNK N   1      26.970  19.225   8.979  1.00  0.00     0.168 HD
HETATM   16  N   UNK N   1      29.918  17.762   8.773  0.00  0.00    -0.336 N 
ATOM     17  HN  UNK N   1      30.681  17.415   9.354  1.00  0.00     0.168 HD
BRANCH  11  18
HETATM   18  N   UNK N   1      26.761  19.088   6.383  0.00  0.00    -0.383 N 
HETATM   19  H   UNK N   1      26.561  20.046   6.273  0.00  0.00     0.157 HD
HETATM   20  H   UNK N   1      26.200  18.418   5.927  0.00  0.00     0.157 HD
ENDBRANCH  11  18
ENDBRANCH   4   6
BRANCH   3  21
HETATM   21  O   UNK N   1      31.404  14.159   6.530  0.00  0.00    -0.284 OA
BRANCH  21  22
HETATM   22  P   UNK N   1      32.550  13.381   5.452  0.00  0.00     0.391 P 
HETATM   23  O   UNK N   1      31.857  12.678   4.258  0.00  0.00    -0.632 OA
BRANCH  22  24
HETATM   24  O   UNK N   1      33.766  14.463   4.852  0.00  0.00    -0.307 OA
HETATM   25  H   UNK N   1      34.515  14.484   4.235  0.00  0.00     0.222 HD
ENDBRANCH  22  24
BRANCH  22  26
HETATM   26  O   UNK N   1      33.318  12.103   6.339  0.00  0.00    -0.307 OA
HETATM   27  H   UNK N   1      34.033  12.248   6.979  0.00  0.00     0.222 HD
ENDBRANCH  22  26
ENDBRANCH  21  22
ENDBRANCH   3  21
BRANCH   2  28
HETATM   28  O   UNK N   1      33.315  13.621   9.051  0.00  0.00    -0.390 OA
HETATM   29  H   UNK N   1      33.493  13.481   9.994  0.00  0.00     0.210 HD
ENDBRANCH   2  28
BRANCH   1  30
HETATM   30  C   UNK N   1      34.734  16.459   9.440  0.00  0.00     0.215 C 
BRANCH  30  31
HETATM   31  O   UNK N   1      35.677  15.534   8.981  0.00  0.00    -0.294 OA
BRANCH  31  32
HETATM   32  P   UNK N   1      36.508  14.900  10.378  0.00  0.00     0.401 P 
HETATM   33  O   UNK N   1      36.210  15.871  11.552  0.00  0.00    -0.631 OA
BRANCH  32  34
HETATM   34  O   UNK N   1      38.233  14.860  10.176  0.00  0.00    -0.307 OA
HETATM   35  H   UNK N   1      38.798  15.562  10.534  0.00  0.00     0.222 HD
ENDBRANCH  32  34
BRANCH  32  36
HETATM   36  O   UNK N   1      35.877  13.351  10.889  0.00  0.00    -0.195 OA
BRANCH  36  37
HETATM   37  P   UNK N   1      35.681  13.414  12.623  0.00  0.00     0.399 P 
HETATM   38  O   UNK N   1      35.935  11.893  12.419  0.00  0.00    -0.631 OA
BRANCH  37  39
HETATM   39  O   UNK N   1      34.321  12.682  13.415  0.00  0.00    -0.307 OA
HETATM   40  H   UNK N   1      33.910  11.885  13.046  0.00  0.00     0.222 HD
ENDBRANCH  37  39
BRANCH  37  41
HETATM   41  O   UNK N   1      34.194  13.834  11.833  0.00  0.00    -0.307 OA
HETATM   42  H   UNK N   1      34.151  14.382  11.034  0.00  0.00     0.222 HD
ENDBRANCH  37  41
ENDBRANCH  36  37
ENDBRANCH  32  36
ENDBRANCH  31  32
ENDBRANCH  30  31
ENDBRANCH   1  30
TORSDOF 15
ENDMDL
MODEL 8
REMARK VINA RESULT:      -6.6      6.874      9.694
REMARK  15 active torsions:
REMARK  status: ('A' for Active; 'I' for Inactive)
REMARK    1  A    between atoms: C_4  and  C_1 
REMARK    2  A    between atoms: O_28  and  C_1 
REMARK    3  A    between atoms: C_6  and  O_19 
REMARK    4  A    between atoms: C_7  and  O_30 
REMARK    5  A    between atoms: N_11  and  C_8 
REMARK    6  A    between atoms: C_10  and  N_18 
REMARK    7  A    between atoms: P_32  and  O_20 
REMARK    8  A    between atoms: P_32  and  O_21 
REMARK    9  A    between atoms: P_33  and  O_23 
REMARK   10  A    between atoms: P_33  and  O_24 
REMARK   11  A    between atoms: P_34  and  O_26 
REMARK   12  A    between atoms: P_34  and  O_28 
REMARK   13  A    between atoms: P_32  and  O_30 
REMARK   14  A    between atoms: P_33  and  O_31 
REMARK   15  A    between atoms: P_34  and  O_31 
ROOT
HETATM    1  C   UNK N   1      32.585  13.904   8.713  0.00  0.00     0.180 C 
HETATM    2  C   UNK N   1      33.033  13.496   7.306  0.00  0.00     0.183 C 
HETATM    3  C   UNK N   1      31.923  14.161   6.519  0.00  0.00     0.214 C 
HETATM    4  C   UNK N   1      31.993  15.509   7.232  0.00  0.00     0.263 C 
HETATM    5  O   UNK N   1      32.090  15.229   8.619  0.00  0.00    -0.353 OA
ENDROOT
BRANCH   4   6
HETATM    6  N   UNK N   1      30.870  16.403   6.932  0.00  0.00    -0.297 N 
HETATM    7  C   UNK N   1      30.190  16.510   5.761  0.00  0.00     0.188 A 
HETATM    8  N   UNK N   1      29.137  17.371   5.875  0.00  0.00    -0.346 N 
HETATM    9  C   UNK N   1      29.182  17.786   7.154  0.00  0.00     0.122 A 
ATOM     10  HN  UNK N   1      28.468  17.639   5.153  1.00  0.00     0.167 HD
HETATM   11  C   UNK N   1      28.333  18.634   7.848  0.00  0.00     0.131 A 
HETATM   12  C   UNK N   1      30.225  17.214   7.784  0.00  0.00     0.142 A 
HETATM   13  N   UNK N   1      28.601  18.873   9.167  0.00  0.00    -0.337 N 
HETATM   14  C   UNK N   1      29.675  18.282   9.787  0.00  0.00     0.183 A 
ATOM     15  HN  UNK N   1      27.995  19.499   9.698  1.00  0.00     0.168 HD
HETATM   16  N   UNK N   1      30.491  17.432   9.094  0.00  0.00    -0.336 N 
ATOM     17  HN  UNK N   1      31.280  16.974   9.551  1.00  0.00     0.168 HD
BRANCH  11  18
HETATM   18  N   UNK N   1      27.210  19.217   7.227  0.00  0.00    -0.383 N 
HETATM   19  H   UNK N   1      27.121  19.218   6.247  0.00  0.00     0.157 HD
HETATM   20  H   UNK N   1      26.507  19.629   7.780  0.00  0.00     0.157 HD
ENDBRANCH  11  18
ENDBRANCH   4   6
BRANCH   3  21
HETATM   21  O   UNK N   1      31.964  14.331   5.108  0.00  0.00    -0.284 OA
BRANCH  21  22
HETATM   22  P   UNK N   1      33.515  14.500   4.305  0.00  0.00     0.391 P 
HETATM   23  O   UNK N   1      33.371  14.923   2.821  0.00  0.00    -0.632 OA
BRANCH  22  24
HETATM   24  O   UNK N   1      34.586  15.599   5.113  0.00  0.00    -0.307 OA
HETATM   25  H   UNK N   1      35.533  15.786   5.217  0.00  0.00     0.222 HD
ENDBRANCH  22  24
BRANCH  22  26
HETATM   26  O   UNK N   1      34.251  12.929   4.252  0.00  0.00    -0.307 OA
HETATM   27  H   UNK N   1      35.025  12.719   3.706  0.00  0.00     0.222 HD
ENDBRANCH  22  26
ENDBRANCH  21  22
ENDBRANCH   3  21
BRANCH   2  28
HETATM   28  O   UNK N   1      33.088  12.110   7.134  0.00  0.00    -0.390 OA
HETATM   29  H   UNK N   1      32.629  11.365   7.553  0.00  0.00     0.210 HD
ENDBRANCH   2  28
BRANCH   1  30
HETATM   30  C   UNK N   1      33.708  13.838   9.752  0.00  0.00     0.215 C 
BRANCH  30  31
HETATM   31  O   UNK N   1      33.821  15.034  10.468  0.00  0.00    -0.294 OA
BRANCH  31  32
HETATM   32  P   UNK N   1      35.380  15.722  10.090  0.00  0.00     0.401 P 
HETATM   33  O   UNK N   1      35.791  15.157   8.705  0.00  0.00    -0.631 OA
BRANCH  32  34
HETATM   34  O   UNK N   1      36.615  15.256  11.219  0.00  0.00    -0.307 OA
HETATM   35  H   UNK N   1      36.796  14.323  11.409  0.00  0.00     0.222 HD
ENDBRANCH  32  34
BRANCH  32  36
HETATM   36  O   UNK N   1      35.313  17.458   9.879  0.00  0.00    -0.195 OA
BRANCH  36  37
HETATM   37  P   UNK N   1      34.585  17.765   8.322  0.00  0.00     0.399 P 
HETATM   38  O   UNK N   1      35.271  19.135   8.593  0.00  0.00    -0.631 OA
BRANCH  37  39
HETATM   39  O   UNK N   1      33.283  18.897   8.130  0.00  0.00    -0.307 OA
HETATM   40  H   UNK N   1      32.739  18.886   7.328  0.00  0.00     0.222 HD
ENDBRANCH  37  39
BRANCH  37  41
HETATM   41  O   UNK N   1      33.357  17.518   9.522  0.00  0.00    -0.307 OA
HETATM   42  H   UNK N   1      33.197  16.664   9.953  0.00  0.00     0.222 HD
ENDBRANCH  37  41
ENDBRANCH  36  37
ENDBRANCH  32  36
ENDBRANCH  31  32
ENDBRANCH  30  31
ENDBRANCH   1  30
TORSDOF 15
ENDMDL
MODEL 9
REMARK VINA RESULT:      -6.5     15.272     17.215
REMARK  15 active torsions:
REMARK  status: ('A' for Active; 'I' for Inactive)
REMARK    1  A    between atoms: C_4  and  C_1 
REMARK    2  A    between atoms: O_28  and  C_1 
REMARK    3  A    between atoms: C_6  and  O_19 
REMARK    4  A    between atoms: C_7  and  O_30 
REMARK    5  A    between atoms: N_11  and  C_8 
REMARK    6  A    between atoms: C_10  and  N_18 
REMARK    7  A    between atoms: P_32  and  O_20 
REMARK    8  A    between atoms: P_32  and  O_21 
REMARK    9  A    between atoms: P_33  and  O_23 
REMARK   10  A    between atoms: P_33  and  O_24 
REMARK   11  A    between atoms: P_34  and  O_26 
REMARK   12  A    between atoms: P_34  and  O_28 
REMARK   13  A    between atoms: P_32  and  O_30 
REMARK   14  A    between atoms: P_33  and  O_31 
REMARK   15  A    between atoms: P_34  and  O_31 
ROOT
HETATM    1  C   UNK N   1      42.141  21.672   0.605  0.00  0.00     0.180 C 
HETATM    2  C   UNK N   1      42.168  22.423   1.940  0.00  0.00     0.183 C 
HETATM    3  C   UNK N   1      42.399  21.237   2.855  0.00  0.00     0.214 C 
HETATM    4  C   UNK N   1      43.532  20.614   2.042  0.00  0.00     0.263 C 
HETATM    5  O   UNK N   1      43.125  20.656   0.684  0.00  0.00    -0.353 OA
ENDROOT
BRANCH   4   6
HETATM    6  N   UNK N   1      43.893  19.257   2.463  0.00  0.00    -0.297 N 
HETATM    7  C   UNK N   1      43.163  18.122   2.307  0.00  0.00     0.188 A 
HETATM    8  N   UNK N   1      43.855  17.023   2.725  0.00  0.00    -0.346 N 
HETATM    9  C   UNK N   1      45.039  17.512   3.136  0.00  0.00     0.122 A 
ATOM     10  HN  UNK N   1      43.546  16.051   2.726  1.00  0.00     0.167 HD
HETATM   11  C   UNK N   1      46.158  16.852   3.621  0.00  0.00     0.131 A 
HETATM   12  C   UNK N   1      45.059  18.850   2.988  0.00  0.00     0.142 A 
HETATM   13  N   UNK N   1      47.253  17.601   3.949  0.00  0.00    -0.337 N 
HETATM   14  C   UNK N   1      47.247  18.966   3.795  0.00  0.00     0.183 A 
ATOM     15  HN  UNK N   1      48.087  17.139   4.315  1.00  0.00     0.168 HD
HETATM   16  N   UNK N   1      46.143  19.600   3.296  0.00  0.00    -0.336 N 
ATOM     17  HN  UNK N   1      46.136  20.611   3.161  1.00  0.00     0.168 HD
BRANCH  11  18
HETATM   18  N   UNK N   1      46.184  15.449   3.750  0.00  0.00    -0.383 N 
HETATM   19  H   UNK N   1      45.535  14.985   4.327  0.00  0.00     0.157 HD
HETATM   20  H   UNK N   1      46.858  14.927   3.257  0.00  0.00     0.157 HD
ENDBRANCH  11  18
ENDBRANCH   4   6
BRANCH   3  21
HETATM   21  O   UNK N   1      42.769  21.370   4.221  0.00  0.00    -0.284 OA
BRANCH  21  22
HETATM   22  P   UNK N   1      43.908  22.621   4.688  0.00  0.00     0.391 P 
HETATM   23  O   UNK N   1      45.379  22.216   4.413  0.00  0.00    -0.632 OA
BRANCH  22  24
HETATM   24  O   UNK N   1      43.585  24.152   3.940  0.00  0.00    -0.307 OA
HETATM   25  H   UNK N   1      43.487  24.553   3.061  0.00  0.00     0.222 HD
ENDBRANCH  22  24
BRANCH  22  26
HETATM   26  O   UNK N   1      43.810  22.802   6.411  0.00  0.00    -0.307 OA
HETATM   27  H   UNK N   1      44.048  23.618   6.878  0.00  0.00     0.222 HD
ENDBRANCH  22  26
ENDBRANCH  21  22
ENDBRANCH   3  21
BRANCH   2  28
HETATM   28  O   UNK N   1      40.979  23.108   2.203  0.00  0.00    -0.390 OA
HETATM   29  H   UNK N   1      40.075  22.824   2.412  0.00  0.00     0.210 HD
ENDBRANCH   2  28
BRANCH   1  30
HETATM   30  C   UNK N   1      42.414  22.572  -0.604  0.00  0.00     0.215 C 
BRANCH  30  31
HETATM   31  O   UNK N   1      42.081  23.905  -0.342  0.00  0.00    -0.294 OA
BRANCH  31  32
HETATM   32  P   UNK N   1      43.558  24.834  -0.415  0.00  0.00     0.401 P 
HETATM   33  O   UNK N   1      43.239  26.112  -1.236  0.00  0.00    -0.631 OA
BRANCH  32  34
HETATM   34  O   UNK N   1      44.838  24.001  -1.243  0.00  0.00    -0.307 OA
HETATM   35  H   UNK N   1      44.699  23.122  -1.628  0.00  0.00     0.222 HD
ENDBRANCH  32  34
BRANCH  32  36
HETATM   36  O   UNK N   1      44.066  25.410   1.157  0.00  0.00    -0.195 OA
BRANCH  36  37
HETATM   37  P   UNK N   1      45.778  25.097   1.297  0.00  0.00     0.399 P 
HETATM   38  O   UNK N   1      45.212  23.652   1.414  0.00  0.00    -0.631 OA
BRANCH  37  39
HETATM   39  O   UNK N   1      46.482  24.521   2.776  0.00  0.00    -0.307 OA
HETATM   40  H   UNK N   1      46.522  23.570   2.961  0.00  0.00     0.222 HD
ENDBRANCH  37  39
BRANCH  37  41
HETATM   41  O   UNK N   1      45.220  26.017   2.659  0.00  0.00    -0.307 OA
HETATM   42  H   UNK N   1      45.417  25.781   3.578  0.00  0.00     0.222 HD
ENDBRANCH  37  41
ENDBRANCH  36  37
ENDBRANCH  32  36
ENDBRANCH  31  32
ENDBRANCH  30  31
ENDBRANCH   1  30
TORSDOF 15
ENDMDL
