MODEL 1
REMARK VINA RESULT:      -5.2      0.000      0.000
REMARK  3 active torsions:
REMARK  status: ('A' for Active; 'I' for Inactive)
REMARK    1  A    between atoms: O_2  and  C_3 
REMARK    2  A    between atoms: C_5  and  C_10 
REMARK    3  A    between atoms: C_8  and  O_9 
ROOT
HETATM    1  C   UNK N   1      24.096  13.056   9.727  0.00  0.00     0.102 A 
HETATM    2  C   UNK N   1      22.887  13.503   9.193  0.00  0.00     0.058 A 
HETATM    3  C   UNK N   1      21.669  13.218   9.811  0.00  0.00     0.043 A 
HETATM    4  C   UNK N   1      21.655  12.466  10.994  0.00  0.00     0.021 A 
HETATM    5  C   UNK N   1      22.856  12.008  11.545  0.00  0.00     0.040 A 
HETATM    6  C   UNK N   1      24.077  12.295  10.925  0.00  0.00     0.099 A 
ENDROOT
BRANCH   3   7
HETATM    7  C   UNK N   1      20.420  13.714   9.206  0.00  0.00     0.209 C 
HETATM    8  O   UNK N   1      19.376  14.039   9.994  0.00  0.00    -0.644 OA
HETATM    9  O   UNK N   1      20.320  13.835   7.997  0.00  0.00    -0.644 OA
ENDBRANCH   3   7
BRANCH   1  10
HETATM   10  O   UNK N   1      25.230  13.383   9.056  0.00  0.00    -0.353 OA
HETATM   11  C   UNK N   1      25.287  13.876   7.774  0.00  0.00     0.210 C 
ENDBRANCH   1  10
BRANCH   6  12
HETATM   12  O   UNK N   1      25.211  11.839  11.483  0.00  0.00    -0.358 OA
HETATM   13  H   UNK N   1      25.193  11.074  12.023  0.00  0.00     0.217 HD
ENDBRANCH   6  12
TORSDOF 3
ENDMDL
MODEL 2
REMARK VINA RESULT:      -5.1     10.003     12.074
REMARK  3 active torsions:
REMARK  status: ('A' for Active; 'I' for Inactive)
REMARK    1  A    between atoms: O_2  and  C_3 
REMARK    2  A    between atoms: C_5  and  C_10 
REMARK    3  A    between atoms: C_8  and  O_9 
ROOT
HETATM    1  C   UNK N   1      34.697  17.083   9.310  0.00  0.00     0.102 A 
HETATM    2  C   UNK N   1      33.957  15.915   9.127  0.00  0.00     0.058 A 
HETATM    3  C   UNK N   1      33.117  15.751   8.024  0.00  0.00     0.043 A 
HETATM    4  C   UNK N   1      33.012  16.780   7.078  0.00  0.00     0.021 A 
HETATM    5  C   UNK N   1      33.745  17.959   7.243  0.00  0.00     0.040 A 
HETATM    6  C   UNK N   1      34.587  18.122   8.349  0.00  0.00     0.099 A 
ENDROOT
BRANCH   3   7
HETATM    7  C   UNK N   1      32.358  14.497   7.878  0.00  0.00     0.209 C 
HETATM    8  O   UNK N   1      31.617  14.287   6.771  0.00  0.00    -0.644 OA
HETATM    9  O   UNK N   1      32.391  13.644   8.748  0.00  0.00    -0.644 OA
ENDBRANCH   3   7
BRANCH   1  10
HETATM   10  O   UNK N   1      35.487  17.152  10.412  0.00  0.00    -0.353 OA
HETATM   11  C   UNK N   1      35.759  16.111  11.268  0.00  0.00     0.210 C 
ENDBRANCH   1  10
BRANCH   6  12
HETATM   12  O   UNK N   1      35.276  19.269   8.475  0.00  0.00    -0.358 OA
HETATM   13  H   UNK N   1      34.975  20.046   8.048  0.00  0.00     0.217 HD
ENDBRANCH   6  12
TORSDOF 3
ENDMDL
MODEL 3
REMARK VINA RESULT:      -5.1      8.907     11.888
REMARK  3 active torsions:
REMARK  status: ('A' for Active; 'I' for Inactive)
REMARK    1  A    between atoms: O_2  and  C_3 
REMARK    2  A    between atoms: C_5  and  C_10 
REMARK    3  A    between atoms: C_8  and  O_9 
ROOT
HETATM    1  C   UNK N   1      31.168  17.433   7.698  0.00  0.00     0.102 A 
HETATM    2  C   UNK N   1      32.304  17.803   8.418  0.00  0.00     0.058 A 
HETATM    3  C   UNK N   1      33.562  17.856   7.815  0.00  0.00     0.043 A 
HETATM    4  C   UNK N   1      33.691  17.532   6.458  0.00  0.00     0.021 A 
HETATM    5  C   UNK N   1      32.564  17.158   5.719  0.00  0.00     0.040 A 
HETATM    6  C   UNK N   1      31.304  17.105   6.324  0.00  0.00     0.099 A 
ENDROOT
BRANCH   3   7
HETATM    7  C   UNK N   1      34.730  18.254   8.621  0.00  0.00     0.209 C 
HETATM    8  O   UNK N   1      35.151  17.462   9.628  0.00  0.00    -0.644 OA
HETATM    9  O   UNK N   1      35.323  19.293   8.387  0.00  0.00    -0.644 OA
ENDBRANCH   3   7
BRANCH   1  10
HETATM   10  O   UNK N   1      29.988  17.410   8.369  0.00  0.00    -0.353 OA
HETATM   11  C   UNK N   1      29.684  18.160   9.480  0.00  0.00     0.210 C 
ENDBRANCH   1  10
BRANCH   6  12
HETATM   12  O   UNK N   1      30.243  16.742   5.582  0.00  0.00    -0.358 OA
HETATM   13  H   UNK N   1      29.377  16.838   5.925  0.00  0.00     0.217 HD
ENDBRANCH   6  12
TORSDOF 3
ENDMDL
MODEL 4
REMARK VINA RESULT:      -5.1      1.046      2.870
REMARK  3 active torsions:
REMARK  status: ('A' for Active; 'I' for Inactive)
REMARK    1  A    between atoms: O_2  and  C_3 
REMARK    2  A    between atoms: C_5  and  C_10 
REMARK    3  A    between atoms: C_8  and  O_9 
ROOT
HETATM    1  C   UNK N   1      22.991  12.208  11.466  0.00  0.00     0.102 A 
HETATM    2  C   UNK N   1      21.800  12.668  10.904  0.00  0.00     0.058 A 
HETATM    3  C   UNK N   1      21.773  13.258   9.639  0.00  0.00     0.043 A 
HETATM    4  C   UNK N   1      22.965  13.393   8.914  0.00  0.00     0.021 A 
HETATM    5  C   UNK N   1      24.169  12.938   9.460  0.00  0.00     0.040 A 
HETATM    6  C   UNK N   1      24.196  12.347  10.728  0.00  0.00     0.099 A 
ENDROOT
BRANCH   3   7
HETATM    7  C   UNK N   1      20.487  13.727   9.091  0.00  0.00     0.209 C 
HETATM    8  O   UNK N   1      20.318  13.810   7.756  0.00  0.00    -0.644 OA
HETATM    9  O   UNK N   1      19.573  14.042   9.833  0.00  0.00    -0.644 OA
ENDBRANCH   3   7
BRANCH   1  10
HETATM   10  O   UNK N   1      22.920  11.649  12.701  0.00  0.00    -0.353 OA
HETATM   11  C   UNK N   1      23.393  12.213  13.863  0.00  0.00     0.210 C 
ENDBRANCH   1  10
BRANCH   6  12
HETATM   12  O   UNK N   1      25.372  11.922  11.220  0.00  0.00    -0.358 OA
HETATM   13  H   UNK N   1      26.013  11.550  10.648  0.00  0.00     0.217 HD
ENDBRANCH   6  12
TORSDOF 3
ENDMDL
MODEL 5
REMARK VINA RESULT:      -4.9     17.978     20.039
REMARK  3 active torsions:
REMARK  status: ('A' for Active; 'I' for Inactive)
REMARK    1  A    between atoms: O_2  and  C_3 
REMARK    2  A    between atoms: C_5  and  C_10 
REMARK    3  A    between atoms: C_8  and  O_9 
ROOT
HETATM    1  C   UNK N   1      26.215  25.298  -3.971  0.00  0.00     0.102 A 
HETATM    2  C   UNK N   1      26.537  26.529  -3.401  0.00  0.00     0.058 A 
HETATM    3  C   UNK N   1      26.171  27.731  -4.010  0.00  0.00     0.043 A 
HETATM    4  C   UNK N   1      25.464  27.704  -5.220  0.00  0.00     0.021 A 
HETATM    5  C   UNK N   1      25.131  26.480  -5.808  0.00  0.00     0.040 A 
HETATM    6  C   UNK N   1      25.499  25.276  -5.196  0.00  0.00     0.099 A 
ENDROOT
BRANCH   3   7
HETATM    7  C   UNK N   1      26.536  29.005  -3.366  0.00  0.00     0.209 C 
HETATM    8  O   UNK N   1      26.248  30.172  -3.977  0.00  0.00    -0.644 OA
HETATM    9  O   UNK N   1      27.097  29.017  -2.283  0.00  0.00    -0.644 OA
ENDBRANCH   3   7
BRANCH   1  10
HETATM   10  O   UNK N   1      26.613  24.182  -3.307  0.00  0.00    -0.353 OA
HETATM   11  C   UNK N   1      27.914  23.844  -3.019  0.00  0.00     0.210 C 
ENDBRANCH   1  10
BRANCH   6  12
HETATM   12  O   UNK N   1      25.162  24.118  -5.790  0.00  0.00    -0.358 OA
HETATM   13  H   UNK N   1      24.413  24.080  -6.352  0.00  0.00     0.217 HD
ENDBRANCH   6  12
TORSDOF 3
ENDMDL
MODEL 6
REMARK VINA RESULT:      -4.9      1.233      4.092
REMARK  3 active torsions:
REMARK  status: ('A' for Active; 'I' for Inactive)
REMARK    1  A    between atoms: O_2  and  C_3 
REMARK    2  A    between atoms: C_5  and  C_10 
REMARK    3  A    between atoms: C_8  and  O_9 
ROOT
HETATM    1  C   UNK N   1      21.233  13.074  10.232  0.00  0.00     0.102 A 
HETATM    2  C   UNK N   1      22.435  13.415   9.612  0.00  0.00     0.058 A 
HETATM    3  C   UNK N   1      23.656  12.912  10.064  0.00  0.00     0.043 A 
HETATM    4  C   UNK N   1      23.679  12.044  11.165  0.00  0.00     0.021 A 
HETATM    5  C   UNK N   1      22.486  11.690  11.801  0.00  0.00     0.040 A 
HETATM    6  C   UNK N   1      21.262  12.195  11.346  0.00  0.00     0.099 A 
ENDROOT
BRANCH   3   7
HETATM    7  C   UNK N   1      24.897  13.304   9.373  0.00  0.00     0.209 C 
HETATM    8  O   UNK N   1      25.031  13.071   8.051  0.00  0.00    -0.644 OA
HETATM    9  O   UNK N   1      25.806  13.839   9.983  0.00  0.00    -0.644 OA
ENDBRANCH   3   7
BRANCH   1  10
HETATM   10  O   UNK N   1      20.095  13.612   9.722  0.00  0.00    -0.353 OA
HETATM   11  C   UNK N   1      19.969  14.884   9.216  0.00  0.00     0.210 C 
ENDBRANCH   1  10
BRANCH   6  12
HETATM   12  O   UNK N   1      20.135  11.832  11.982  0.00  0.00    -0.358 OA
HETATM   13  H   UNK N   1      20.000  10.937  12.223  0.00  0.00     0.217 HD
ENDBRANCH   6  12
TORSDOF 3
ENDMDL
MODEL 7
REMARK VINA RESULT:      -4.8     13.083     14.311
REMARK  3 active torsions:
REMARK  status: ('A' for Active; 'I' for Inactive)
REMARK    1  A    between atoms: O_2  and  C_3 
REMARK    2  A    between atoms: C_5  and  C_10 
REMARK    3  A    between atoms: C_8  and  O_9 
ROOT
HETATM    1  C   UNK N   1      34.718  12.443  15.153  0.00  0.00     0.102 A 
HETATM    2  C   UNK N   1      34.850  13.236  16.293  0.00  0.00     0.058 A 
HETATM    3  C   UNK N   1      35.059  12.671  17.553  0.00  0.00     0.043 A 
HETATM    4  C   UNK N   1      35.139  11.277  17.679  0.00  0.00     0.021 A 
HETATM    5  C   UNK N   1      35.009  10.465  16.549  0.00  0.00     0.040 A 
HETATM    6  C   UNK N   1      34.800  11.032  15.287  0.00  0.00     0.099 A 
ENDROOT
BRANCH   3   7
HETATM    7  C   UNK N   1      35.192  13.555  18.725  0.00  0.00     0.209 C 
HETATM    8  O   UNK N   1      35.305  14.887  18.551  0.00  0.00    -0.644 OA
HETATM    9  O   UNK N   1      35.202  13.093  19.853  0.00  0.00    -0.644 OA
ENDBRANCH   3   7
BRANCH   1  10
HETATM   10  O   UNK N   1      34.518  13.081  13.972  0.00  0.00    -0.353 OA
HETATM   11  C   UNK N   1      35.490  13.695  13.219  0.00  0.00     0.210 C 
ENDBRANCH   1  10
BRANCH   6  12
HETATM   12  O   UNK N   1      34.680  10.219  14.223  0.00  0.00    -0.358 OA
HETATM   13  H   UNK N   1      35.351  10.199  13.571  0.00  0.00     0.217 HD
ENDBRANCH   6  12
TORSDOF 3
ENDMDL
MODEL 8
REMARK VINA RESULT:      -4.8     21.249     23.535
REMARK  3 active torsions:
REMARK  status: ('A' for Active; 'I' for Inactive)
REMARK    1  A    between atoms: O_2  and  C_3 
REMARK    2  A    between atoms: C_5  and  C_10 
REMARK    3  A    between atoms: C_8  and  O_9 
ROOT
HETATM    1  C   UNK N   1      44.051  23.253   3.095  0.00  0.00     0.102 A 
HETATM    2  C   UNK N   1      42.782  23.119   2.531  0.00  0.00     0.058 A 
HETATM    3  C   UNK N   1      42.107  21.897   2.541  0.00  0.00     0.043 A 
HETATM    4  C   UNK N   1      42.713  20.778   3.130  0.00  0.00     0.021 A 
HETATM    5  C   UNK N   1      43.985  20.892   3.701  0.00  0.00     0.040 A 
HETATM    6  C   UNK N   1      44.661  22.118   3.690  0.00  0.00     0.099 A 
ENDROOT
BRANCH   3   7
HETATM    7  C   UNK N   1      40.768  21.809   1.931  0.00  0.00     0.209 C 
HETATM    8  O   UNK N   1      40.516  22.451   0.772  0.00  0.00    -0.644 OA
HETATM    9  O   UNK N   1      39.884  21.161   2.464  0.00  0.00    -0.644 OA
ENDBRANCH   3   7
BRANCH   1  10
HETATM   10  O   UNK N   1      44.630  24.480   3.038  0.00  0.00    -0.353 OA
HETATM   11  C   UNK N   1      45.527  24.898   2.084  0.00  0.00     0.210 C 
ENDBRANCH   1  10
BRANCH   6  12
HETATM   12  O   UNK N   1      45.881  22.189   4.248  0.00  0.00    -0.358 OA
HETATM   13  H   UNK N   1      45.999  22.639   5.062  0.00  0.00     0.217 HD
ENDBRANCH   6  12
TORSDOF 3
ENDMDL
MODEL 9
REMARK VINA RESULT:      -4.7     18.150     20.190
REMARK  3 active torsions:
REMARK  status: ('A' for Active; 'I' for Inactive)
REMARK    1  A    between atoms: O_2  and  C_3 
REMARK    2  A    between atoms: C_5  and  C_10 
REMARK    3  A    between atoms: C_8  and  O_9 
ROOT
HETATM    1  C   UNK N   1      26.254  25.576  -3.934  0.00  0.00     0.102 A 
HETATM    2  C   UNK N   1      26.146  25.055  -5.224  0.00  0.00     0.058 A 
HETATM    3  C   UNK N   1      25.698  25.837  -6.290  0.00  0.00     0.043 A 
HETATM    4  C   UNK N   1      25.348  27.176  -6.064  0.00  0.00     0.021 A 
HETATM    5  C   UNK N   1      25.449  27.717  -4.779  0.00  0.00     0.040 A 
HETATM    6  C   UNK N   1      25.898  26.932  -3.711  0.00  0.00     0.099 A 
ENDROOT
BRANCH   3   7
HETATM    7  C   UNK N   1      25.603  25.238  -7.633  0.00  0.00     0.209 C 
HETATM    8  O   UNK N   1      25.221  23.951  -7.767  0.00  0.00    -0.644 OA
HETATM    9  O   UNK N   1      25.866  25.893  -8.626  0.00  0.00    -0.644 OA
ENDBRANCH   3   7
BRANCH   1  10
HETATM   10  O   UNK N   1      26.699  24.741  -2.961  0.00  0.00    -0.353 OA
HETATM   11  C   UNK N   1      27.802  23.925  -3.050  0.00  0.00     0.210 C 
ENDBRANCH   1  10
BRANCH   6  12
HETATM   12  O   UNK N   1      25.982  27.487  -2.489  0.00  0.00    -0.358 OA
HETATM   13  H   UNK N   1      25.443  28.220  -2.270  0.00  0.00     0.217 HD
ENDBRANCH   6  12
TORSDOF 3
ENDMDL
