MODEL 1
REMARK VINA RESULT:      -7.9      0.000      0.000
REMARK  11 active torsions:
REMARK  status: ('A' for Active; 'I' for Inactive)
REMARK    1  A    between atoms: C_2  and  C_4 
REMARK    2  A    between atoms: C_4  and  N_5 
REMARK    3  A    between atoms: C_4  and  C_22 
REMARK       I    between atoms: N_5  and  C_6 
REMARK    4  A    between atoms: C_6  and  C_8 
REMARK    5  A    between atoms: C_11  and  C_14 
REMARK       I    between atoms: C_14  and  N_16 
REMARK       I    between atoms: C_22  and  N_24 
REMARK    6  A    between atoms: C_28  and  C_29 
REMARK       I    between atoms: C_29  and  N_31 
REMARK    7  A    between atoms: C_32  and  N_31 
REMARK    8  A    between atoms: C_32  and  C_33 
REMARK    9  A    between atoms: C_32  and  C_36 
REMARK   10  A    between atoms: C_36  and  C_38 
REMARK   11  A    between atoms: C_38  and  C_41 
ROOT
HETATM    1  C   UNK N   1      25.686  16.608   4.671  0.00  0.00     0.243 C 
HETATM    2  O   UNK N   1      25.506  16.335   5.852  0.00  0.00    -0.271 OA
HETATM    3  N   UNK N   1      25.479  15.658   3.721  0.00  0.00    -0.337 N 
HETATM    4  C   UNK N   1      25.893  15.797   2.357  0.00  0.00     0.127 C 
HETATM    5  C   UNK N   1      25.437  14.508   1.669  0.00  0.00     0.022 C 
HETATM    6  C   UNK N   1      24.949  13.539   2.760  0.00  0.00     0.037 C 
HETATM    7  C   UNK N   1      24.834  14.409   3.980  0.00  0.00     0.179 C 
ENDROOT
BRANCH   1   8
HETATM    8  C   UNK N   1      26.234  17.971   4.348  0.00  0.00     0.180 C 
BRANCH   8   9
HETATM    9  C   UNK N   1      25.432  19.272   4.280  0.00  0.00     0.009 C 
HETATM   10  C   UNK N   1      26.011  20.154   5.371  0.00  0.00     0.012 C 
HETATM   11  C   UNK N   1      25.461  20.029   2.965  0.00  0.00     0.012 C 
ENDBRANCH   8   9
BRANCH   8  12
HETATM   12  N   UNK N   1      27.410  18.137   5.146  0.00  0.00    -0.343 N 
HETATM   13  C   UNK N   1      28.572  17.730   4.623  0.00  0.00     0.252 C 
HETATM   14  O   UNK N   1      28.664  17.543   3.419  0.00  0.00    -0.268 OA
HETATM   15  H   UNK N   1      27.365  18.536   6.046  0.00  0.00     0.163 HD
BRANCH  13  16
HETATM   16  C   UNK N   1      29.691  17.408   5.489  0.00  0.00     0.032 A 
HETATM   17  C   UNK N   1      29.510  17.183   6.862  0.00  0.00     0.018 A 
HETATM   18  C   UNK N   1      30.618  16.958   7.672  0.00  0.00     0.018 A 
HETATM   19  C   UNK N   1      31.898  16.905   7.107  0.00  0.00     0.032 A 
HETATM   20  C   UNK N   1      32.055  17.088   5.729  0.00  0.00     0.018 A 
HETATM   21  C   UNK N   1      30.957  17.302   4.923  0.00  0.00     0.018 A 
BRANCH  19  22
HETATM   22  C   UNK N   1      32.999  17.366   7.923  0.00  0.00     0.253 C 
HETATM   23  O   UNK N   1      33.137  18.563   8.176  0.00  0.00    -0.267 OA
HETATM   24  N   UNK N   1      33.858  16.438   8.439  0.00  0.00    -0.344 N 
HETATM   25  C   UNK N   1      34.887  16.772   9.381  0.00  0.00     0.152 C 
HETATM   26  C   UNK N   1      33.681  15.023   8.126  0.00  0.00     0.152 C 
HETATM   27  C   UNK N   1      34.678  15.868  10.606  0.00  0.00     0.187 C 
HETATM   28  O   UNK N   1      34.682  14.507  10.220  0.00  0.00    -0.388 OA
HETATM   29  C   UNK N   1      33.527  14.283   9.446  0.00  0.00     0.187 C 
ENDBRANCH  19  22
ENDBRANCH  13  16
ENDBRANCH   8  12
ENDBRANCH   1   8
BRANCH   7  30
HETATM   30  C   UNK N   1      24.497  13.987   5.380  0.00  0.00     0.241 C 
HETATM   31  O   UNK N   1      25.359  13.471   6.070  0.00  0.00    -0.271 OA
HETATM   32  N   UNK N   1      23.276  14.309   5.893  0.00  0.00    -0.347 N 
HETATM   33  H   UNK N   1      22.639  14.741   5.279  0.00  0.00     0.163 HD
BRANCH  32  34
HETATM   34  C   UNK N   1      22.816  14.077   7.259  0.00  0.00     0.164 C 
BRANCH  34  35
HETATM   35  C   UNK N   1      21.874  15.158   7.799  0.00  0.00     0.008 C 
HETATM   36  C   UNK N   1      20.531  14.655   8.293  0.00  0.00     0.012 C 
HETATM   37  C   UNK N   1      21.675  16.256   6.773  0.00  0.00     0.012 C 
ENDBRANCH  34  35
BRANCH  34  38
HETATM   38  C   UNK N   1      22.618  12.602   7.605  0.00  0.00     0.230 C 
HETATM   39  O   UNK N   1      21.886  11.955   6.870  0.00  0.00    -0.289 OA
BRANCH  38  40
HETATM   40  C   UNK N   1      23.291  11.859   8.760  0.00  0.00     0.400 C 
HETATM   41  F   UNK N   1      23.353  10.505   8.482  0.00  0.00    -0.187 F 
HETATM   42  F   UNK N   1      24.596  12.323   8.860  0.00  0.00    -0.187 F 
BRANCH  40  43
HETATM   43  C   UNK N   1      22.639  12.080  10.141  0.00  0.00     0.462 C 
HETATM   44  F   UNK N   1      21.262  12.008  10.039  0.00  0.00    -0.165 F 
HETATM   45  F   UNK N   1      22.982  13.335  10.612  0.00  0.00    -0.165 F 
HETATM   46  F   UNK N   1      23.069  11.164  11.075  0.00  0.00    -0.165 F 
ENDBRANCH  40  43
ENDBRANCH  38  40
ENDBRANCH  34  38
ENDBRANCH  32  34
ENDBRANCH   7  30
TORSDOF 11
ENDMDL
MODEL 2
REMARK VINA RESULT:      -7.8      4.286      9.347
REMARK  11 active torsions:
REMARK  status: ('A' for Active; 'I' for Inactive)
REMARK    1  A    between atoms: C_2  and  C_4 
REMARK    2  A    between atoms: C_4  and  N_5 
REMARK    3  A    between atoms: C_4  and  C_22 
REMARK       I    between atoms: N_5  and  C_6 
REMARK    4  A    between atoms: C_6  and  C_8 
REMARK    5  A    between atoms: C_11  and  C_14 
REMARK       I    between atoms: C_14  and  N_16 
REMARK       I    between atoms: C_22  and  N_24 
REMARK    6  A    between atoms: C_28  and  C_29 
REMARK       I    between atoms: C_29  and  N_31 
REMARK    7  A    between atoms: C_32  and  N_31 
REMARK    8  A    between atoms: C_32  and  C_33 
REMARK    9  A    between atoms: C_32  and  C_36 
REMARK   10  A    between atoms: C_36  and  C_38 
REMARK   11  A    between atoms: C_38  and  C_41 
ROOT
HETATM    1  C   UNK N   1      28.749  18.173   5.730  0.00  0.00     0.243 C 
HETATM    2  O   UNK N   1      29.423  17.535   4.929  0.00  0.00    -0.271 OA
HETATM    3  N   UNK N   1      29.048  18.118   7.056  0.00  0.00    -0.337 N 
HETATM    4  C   UNK N   1      28.187  18.617   8.085  0.00  0.00     0.127 C 
HETATM    5  C   UNK N   1      28.938  18.359   9.393  0.00  0.00     0.022 C 
HETATM    6  C   UNK N   1      30.162  17.486   9.069  0.00  0.00     0.037 C 
HETATM    7  C   UNK N   1      30.254  17.546   7.570  0.00  0.00     0.179 C 
ENDROOT
BRANCH   1   8
HETATM    8  C   UNK N   1      27.547  18.906   5.201  0.00  0.00     0.180 C 
BRANCH   8   9
HETATM    9  C   UNK N   1      27.481  20.395   4.854  0.00  0.00     0.009 C 
HETATM   10  C   UNK N   1      26.707  20.466   3.551  0.00  0.00     0.012 C 
HETATM   11  C   UNK N   1      26.821  21.308   5.871  0.00  0.00     0.012 C 
ENDBRANCH   8   9
BRANCH   8  12
HETATM   12  N   UNK N   1      27.021  18.109   4.135  0.00  0.00    -0.343 N 
HETATM   13  C   UNK N   1      25.899  17.422   4.376  0.00  0.00     0.252 C 
HETATM   14  O   UNK N   1      25.195  17.722   5.329  0.00  0.00    -0.268 OA
HETATM   15  H   UNK N   1      27.468  18.069   3.258  0.00  0.00     0.163 HD
BRANCH  13  16
HETATM   16  C   UNK N   1      25.569  16.256   3.577  0.00  0.00     0.032 A 
HETATM   17  C   UNK N   1      24.678  15.279   4.046  0.00  0.00     0.018 A 
HETATM   18  C   UNK N   1      24.451  14.137   3.285  0.00  0.00     0.018 A 
HETATM   19  C   UNK N   1      25.069  13.994   2.038  0.00  0.00     0.032 A 
HETATM   20  C   UNK N   1      25.920  14.999   1.566  0.00  0.00     0.018 A 
HETATM   21  C   UNK N   1      26.140  16.136   2.314  0.00  0.00     0.018 A 
BRANCH  19  22
HETATM   22  C   UNK N   1      25.403  12.651   1.617  0.00  0.00     0.253 C 
HETATM   23  O   UNK N   1      26.409  12.087   2.051  0.00  0.00    -0.267 OA
HETATM   24  N   UNK N   1      24.557  12.009   0.759  0.00  0.00    -0.344 N 
HETATM   25  C   UNK N   1      24.712  10.629   0.402  0.00  0.00     0.152 C 
HETATM   26  C   UNK N   1      23.370  12.694   0.253  0.00  0.00     0.152 C 
HETATM   27  C   UNK N   1      23.383   9.932   0.730  0.00  0.00     0.187 C 
HETATM   28  O   UNK N   1      22.312  10.573   0.064  0.00  0.00    -0.388 OA
HETATM   29  C   UNK N   1      22.162  11.852   0.634  0.00  0.00     0.187 C 
ENDBRANCH  19  22
ENDBRANCH  13  16
ENDBRANCH   8  12
ENDBRANCH   1   8
BRANCH   7  30
HETATM   30  C   UNK N   1      31.199  16.798   6.677  0.00  0.00     0.241 C 
HETATM   31  O   UNK N   1      32.206  17.356   6.275  0.00  0.00    -0.271 OA
HETATM   32  N   UNK N   1      30.979  15.474   6.442  0.00  0.00    -0.347 N 
HETATM   33  H   UNK N   1      30.153  15.090   6.815  0.00  0.00     0.163 HD
BRANCH  32  34
HETATM   34  C   UNK N   1      31.844  14.567   5.693  0.00  0.00     0.164 C 
BRANCH  34  35
HETATM   35  C   UNK N   1      32.969  13.939   6.522  0.00  0.00     0.008 C 
HETATM   36  C   UNK N   1      32.781  14.014   8.026  0.00  0.00     0.012 C 
HETATM   37  C   UNK N   1      34.311  14.527   6.134  0.00  0.00     0.012 C 
ENDBRANCH  34  35
BRANCH  34  38
HETATM   38  C   UNK N   1      31.118  13.775   4.605  0.00  0.00     0.230 C 
HETATM   39  O   UNK N   1      30.619  12.709   4.937  0.00  0.00    -0.289 OA
BRANCH  38  40
HETATM   40  C   UNK N   1      30.924  14.223   3.155  0.00  0.00     0.400 C 
HETATM   41  F   UNK N   1      31.816  15.234   2.848  0.00  0.00    -0.187 F 
HETATM   42  F   UNK N   1      31.221  13.143   2.334  0.00  0.00    -0.187 F 
BRANCH  40  43
HETATM   43  C   UNK N   1      29.489  14.664   2.800  0.00  0.00     0.462 C 
HETATM   44  F   UNK N   1      28.959  13.838   1.827  0.00  0.00    -0.165 F 
HETATM   45  F   UNK N   1      29.517  15.959   2.312  0.00  0.00    -0.165 F 
HETATM   46  F   UNK N   1      28.655  14.662   3.896  0.00  0.00    -0.165 F 
ENDBRANCH  40  43
ENDBRANCH  38  40
ENDBRANCH  34  38
ENDBRANCH  32  34
ENDBRANCH   7  30
TORSDOF 11
ENDMDL
MODEL 3
REMARK VINA RESULT:      -7.6      6.780     11.900
REMARK  11 active torsions:
REMARK  status: ('A' for Active; 'I' for Inactive)
REMARK    1  A    between atoms: C_2  and  C_4 
REMARK    2  A    between atoms: C_4  and  N_5 
REMARK    3  A    between atoms: C_4  and  C_22 
REMARK       I    between atoms: N_5  and  C_6 
REMARK    4  A    between atoms: C_6  and  C_8 
REMARK    5  A    between atoms: C_11  and  C_14 
REMARK       I    between atoms: C_14  and  N_16 
REMARK       I    between atoms: C_22  and  N_24 
REMARK    6  A    between atoms: C_28  and  C_29 
REMARK       I    between atoms: C_29  and  N_31 
REMARK    7  A    between atoms: C_32  and  N_31 
REMARK    8  A    between atoms: C_32  and  C_33 
REMARK    9  A    between atoms: C_32  and  C_36 
REMARK   10  A    between atoms: C_36  and  C_38 
REMARK   11  A    between atoms: C_38  and  C_41 
ROOT
HETATM    1  C   UNK N   1      35.394  13.473  11.892  0.00  0.00     0.243 C 
HETATM    2  O   UNK N   1      34.415  14.120  11.537  0.00  0.00    -0.271 OA
HETATM    3  N   UNK N   1      36.557  13.576  11.196  0.00  0.00    -0.337 N 
HETATM    4  C   UNK N   1      37.669  12.691  11.373  0.00  0.00     0.127 C 
HETATM    5  C   UNK N   1      38.741  13.199  10.406  0.00  0.00     0.022 C 
HETATM    6  C   UNK N   1      38.099  14.274   9.513  0.00  0.00     0.037 C 
HETATM    7  C   UNK N   1      36.797  14.576  10.202  0.00  0.00     0.179 C 
ENDROOT
BRANCH   1   8
HETATM    8  C   UNK N   1      35.214  12.509  13.032  0.00  0.00     0.180 C 
BRANCH   8   9
HETATM    9  C   UNK N   1      34.991  12.881  14.499  0.00  0.00     0.009 C 
HETATM   10  C   UNK N   1      34.106  11.781  15.058  0.00  0.00     0.012 C 
HETATM   11  C   UNK N   1      36.226  13.012  15.371  0.00  0.00     0.012 C 
ENDBRANCH   8   9
BRANCH   8  12
HETATM   12  N   UNK N   1      34.256  11.539  12.598  0.00  0.00    -0.343 N 
HETATM   13  C   UNK N   1      34.724  10.370  12.148  0.00  0.00     0.252 C 
HETATM   14  O   UNK N   1      35.870  10.033  12.407  0.00  0.00    -0.268 OA
HETATM   15  H   UNK N   1      33.290  11.725  12.631  0.00  0.00     0.163 HD
BRANCH  13  16
HETATM   16  C   UNK N   1      33.915   9.549  11.266  0.00  0.00     0.032 A 
HETATM   17  C   UNK N   1      32.993  10.123  10.378  0.00  0.00     0.018 A 
HETATM   18  C   UNK N   1      32.179   9.298   9.608  0.00  0.00     0.018 A 
HETATM   19  C   UNK N   1      32.319   7.908   9.685  0.00  0.00     0.032 A 
HETATM   20  C   UNK N   1      33.274   7.354  10.543  0.00  0.00     0.018 A 
HETATM   21  C   UNK N   1      34.089   8.169  11.301  0.00  0.00     0.018 A 
BRANCH  19  22
HETATM   22  C   UNK N   1      31.128   7.112   9.488  0.00  0.00     0.253 C 
HETATM   23  O   UNK N   1      30.242   7.082  10.343  0.00  0.00    -0.267 OA
HETATM   24  N   UNK N   1      30.991   6.427   8.314  0.00  0.00    -0.344 N 
HETATM   25  C   UNK N   1      29.787   5.736   7.955  0.00  0.00     0.152 C 
HETATM   26  C   UNK N   1      32.053   6.471   7.313  0.00  0.00     0.152 C 
HETATM   27  C   UNK N   1      29.352   6.281   6.586  0.00  0.00     0.187 C 
HETATM   28  O   UNK N   1      30.395   6.132   5.642  0.00  0.00    -0.388 OA
HETATM   29  C   UNK N   1      31.439   6.997   6.024  0.00  0.00     0.187 C 
ENDBRANCH  19  22
ENDBRANCH  13  16
ENDBRANCH   8  12
ENDBRANCH   1   8
BRANCH   7  30
HETATM   30  C   UNK N   1      35.696  15.479   9.730  0.00  0.00     0.241 C 
HETATM   31  O   UNK N   1      35.643  16.622  10.149  0.00  0.00    -0.271 OA
HETATM   32  N   UNK N   1      34.859  15.044   8.746  0.00  0.00    -0.347 N 
HETATM   33  H   UNK N   1      34.976  14.113   8.446  0.00  0.00     0.163 HD
BRANCH  32  34
HETATM   34  C   UNK N   1      33.808  15.816   8.092  0.00  0.00     0.164 C 
BRANCH  34  35
HETATM   35  C   UNK N   1      34.000  15.991   6.581  0.00  0.00     0.008 C 
HETATM   36  C   UNK N   1      35.222  15.304   6.003  0.00  0.00     0.012 C 
HETATM   37  C   UNK N   1      34.000  17.460   6.209  0.00  0.00     0.012 C 
ENDBRANCH  34  35
BRANCH  34  38
HETATM   38  C   UNK N   1      32.420  15.616   8.701  0.00  0.00     0.230 C 
HETATM   39  O   UNK N   1      32.226  14.569   9.302  0.00  0.00    -0.289 OA
BRANCH  38  40
HETATM   40  C   UNK N   1      31.275  16.629   8.662  0.00  0.00     0.400 C 
HETATM   41  F   UNK N   1      30.428  16.429   9.737  0.00  0.00    -0.187 F 
HETATM   42  F   UNK N   1      31.825  17.897   8.797  0.00  0.00    -0.187 F 
BRANCH  40  43
HETATM   43  C   UNK N   1      30.463  16.639   7.351  0.00  0.00     0.462 C 
HETATM   44  F   UNK N   1      29.111  16.742   7.623  0.00  0.00    -0.165 F 
HETATM   45  F   UNK N   1      30.687  15.457   6.666  0.00  0.00    -0.165 F 
HETATM   46  F   UNK N   1      30.833  17.669   6.514  0.00  0.00    -0.165 F 
ENDBRANCH  40  43
ENDBRANCH  38  40
ENDBRANCH  34  38
ENDBRANCH  32  34
ENDBRANCH   7  30
TORSDOF 11
ENDMDL
MODEL 4
REMARK VINA RESULT:      -7.6      4.253      9.844
REMARK  11 active torsions:
REMARK  status: ('A' for Active; 'I' for Inactive)
REMARK    1  A    between atoms: C_2  and  C_4 
REMARK    2  A    between atoms: C_4  and  N_5 
REMARK    3  A    between atoms: C_4  and  C_22 
REMARK       I    between atoms: N_5  and  C_6 
REMARK    4  A    between atoms: C_6  and  C_8 
REMARK    5  A    between atoms: C_11  and  C_14 
REMARK       I    between atoms: C_14  and  N_16 
REMARK       I    between atoms: C_22  and  N_24 
REMARK    6  A    between atoms: C_28  and  C_29 
REMARK       I    between atoms: C_29  and  N_31 
REMARK    7  A    between atoms: C_32  and  N_31 
REMARK    8  A    between atoms: C_32  and  C_33 
REMARK    9  A    between atoms: C_32  and  C_36 
REMARK   10  A    between atoms: C_36  and  C_38 
REMARK   11  A    between atoms: C_38  and  C_41 
ROOT
HETATM    1  C   UNK N   1      28.385  15.289   4.630  0.00  0.00     0.243 C 
HETATM    2  O   UNK N   1      29.225  14.865   5.416  0.00  0.00    -0.271 OA
HETATM    3  N   UNK N   1      28.182  16.628   4.520  0.00  0.00    -0.337 N 
HETATM    4  C   UNK N   1      27.072  17.209   3.826  0.00  0.00     0.127 C 
HETATM    5  C   UNK N   1      27.271  18.721   3.949  0.00  0.00     0.022 C 
HETATM    6  C   UNK N   1      28.423  18.966   4.939  0.00  0.00     0.037 C 
HETATM    7  C   UNK N   1      29.051  17.609   5.093  0.00  0.00     0.179 C 
ENDROOT
BRANCH   1   8
HETATM    8  C   UNK N   1      27.544  14.279   3.899  0.00  0.00     0.180 C 
BRANCH   8   9
HETATM    9  C   UNK N   1      27.955  13.499   2.649  0.00  0.00     0.009 C 
HETATM   10  C   UNK N   1      28.780  12.333   3.161  0.00  0.00     0.012 C 
HETATM   11  C   UNK N   1      26.837  12.966   1.773  0.00  0.00     0.012 C 
ENDBRANCH   8   9
BRANCH   8  12
HETATM   12  N   UNK N   1      27.003  13.404   4.893  0.00  0.00    -0.343 N 
HETATM   13  C   UNK N   1      25.710  13.548   5.203  0.00  0.00     0.252 C 
HETATM   14  O   UNK N   1      24.968  14.158   4.448  0.00  0.00    -0.268 OA
HETATM   15  H   UNK N   1      27.561  12.720   5.331  0.00  0.00     0.163 HD
BRANCH  13  16
HETATM   16  C   UNK N   1      25.207  13.077   6.481  0.00  0.00     0.032 A 
HETATM   17  C   UNK N   1      24.589  11.824   6.603  0.00  0.00     0.018 A 
HETATM   18  C   UNK N   1      24.047  11.444   7.827  0.00  0.00     0.018 A 
HETATM   19  C   UNK N   1      24.168  12.287   8.937  0.00  0.00     0.032 A 
HETATM   20  C   UNK N   1      24.827  13.514   8.807  0.00  0.00     0.018 A 
HETATM   21  C   UNK N   1      25.372  13.889   7.598  0.00  0.00     0.018 A 
BRANCH  19  22
HETATM   22  C   UNK N   1      23.096  12.260   9.907  0.00  0.00     0.253 C 
HETATM   23  O   UNK N   1      23.323  12.007  11.091  0.00  0.00    -0.267 OA
HETATM   24  N   UNK N   1      21.831  12.560   9.487  0.00  0.00    -0.344 N 
HETATM   25  C   UNK N   1      20.728  12.713  10.390  0.00  0.00     0.152 C 
HETATM   26  C   UNK N   1      21.579  12.855   8.078  0.00  0.00     0.152 C 
HETATM   27  C   UNK N   1      20.124  14.100  10.126  0.00  0.00     0.187 C 
HETATM   28  O   UNK N   1      19.764  14.230   8.763  0.00  0.00    -0.388 OA
HETATM   29  C   UNK N   1      20.954  14.240   8.010  0.00  0.00     0.187 C 
ENDBRANCH  19  22
ENDBRANCH  13  16
ENDBRANCH   8  12
ENDBRANCH   1   8
BRANCH   7  30
HETATM   30  C   UNK N   1      30.163  17.212   6.020  0.00  0.00     0.241 C 
HETATM   31  O   UNK N   1      29.936  17.111   7.213  0.00  0.00    -0.271 OA
HETATM   32  N   UNK N   1      31.365  16.846   5.492  0.00  0.00    -0.347 N 
HETATM   33  H   UNK N   1      31.466  16.937   4.517  0.00  0.00     0.163 HD
BRANCH  32  34
HETATM   34  C   UNK N   1      32.518  16.332   6.225  0.00  0.00     0.164 C 
BRANCH  34  35
HETATM   35  C   UNK N   1      33.012  14.963   5.745  0.00  0.00     0.008 C 
HETATM   36  C   UNK N   1      32.550  14.561   4.357  0.00  0.00     0.012 C 
HETATM   37  C   UNK N   1      32.654  13.884   6.747  0.00  0.00     0.012 C 
ENDBRANCH  34  35
BRANCH  34  38
HETATM   38  C   UNK N   1      33.493  17.415   6.686  0.00  0.00     0.230 C 
HETATM   39  O   UNK N   1      34.098  18.021   5.814  0.00  0.00    -0.289 OA
BRANCH  38  40
HETATM   40  C   UNK N   1      33.740  17.834   8.136  0.00  0.00     0.400 C 
HETATM   41  F   UNK N   1      34.679  18.849   8.184  0.00  0.00    -0.187 F 
HETATM   42  F   UNK N   1      32.550  18.345   8.639  0.00  0.00    -0.187 F 
BRANCH  40  43
HETATM   43  C   UNK N   1      34.160  16.688   9.079  0.00  0.00     0.462 C 
HETATM   44  F   UNK N   1      35.005  15.811   8.424  0.00  0.00    -0.165 F 
HETATM   45  F   UNK N   1      33.034  15.995   9.486  0.00  0.00    -0.165 F 
HETATM   46  F   UNK N   1      34.785  17.149  10.217  0.00  0.00    -0.165 F 
ENDBRANCH  40  43
ENDBRANCH  38  40
ENDBRANCH  34  38
ENDBRANCH  32  34
ENDBRANCH   7  30
TORSDOF 11
ENDMDL
MODEL 5
REMARK VINA RESULT:      -7.6      6.344     11.983
REMARK  11 active torsions:
REMARK  status: ('A' for Active; 'I' for Inactive)
REMARK    1  A    between atoms: C_2  and  C_4 
REMARK    2  A    between atoms: C_4  and  N_5 
REMARK    3  A    between atoms: C_4  and  C_22 
REMARK       I    between atoms: N_5  and  C_6 
REMARK    4  A    between atoms: C_6  and  C_8 
REMARK    5  A    between atoms: C_11  and  C_14 
REMARK       I    between atoms: C_14  and  N_16 
REMARK       I    between atoms: C_22  and  N_24 
REMARK    6  A    between atoms: C_28  and  C_29 
REMARK       I    between atoms: C_29  and  N_31 
REMARK    7  A    between atoms: C_32  and  N_31 
REMARK    8  A    between atoms: C_32  and  C_33 
REMARK    9  A    between atoms: C_32  and  C_36 
REMARK   10  A    between atoms: C_36  and  C_38 
REMARK   11  A    between atoms: C_38  and  C_41 
ROOT
HETATM    1  C   UNK N   1      36.293  12.872  10.772  0.00  0.00     0.243 C 
HETATM    2  O   UNK N   1      36.339  12.775  11.993  0.00  0.00    -0.271 OA
HETATM    3  N   UNK N   1      35.711  11.886  10.039  0.00  0.00    -0.337 N 
HETATM    4  C   UNK N   1      35.822  11.784   8.615  0.00  0.00     0.127 C 
HETATM    5  C   UNK N   1      35.001  10.549   8.239  0.00  0.00     0.022 C 
HETATM    6  C   UNK N   1      34.608   9.829   9.540  0.00  0.00     0.037 C 
HETATM    7  C   UNK N   1      34.929  10.834  10.611  0.00  0.00     0.179 C 
ENDROOT
BRANCH   1   8
HETATM    8  C   UNK N   1      36.987  14.048  10.141  0.00  0.00     0.180 C 
BRANCH   8   9
HETATM    9  C   UNK N   1      38.373  14.037   9.494  0.00  0.00     0.009 C 
HETATM   10  C   UNK N   1      39.097  12.862  10.126  0.00  0.00     0.012 C 
HETATM   11  C   UNK N   1      38.426  13.895   7.984  0.00  0.00     0.012 C 
ENDBRANCH   8   9
BRANCH   8  12
HETATM   12  N   UNK N   1      36.027  14.674   9.283  0.00  0.00    -0.343 N 
HETATM   13  C   UNK N   1      35.514  15.843   9.682  0.00  0.00     0.252 C 
HETATM   14  O   UNK N   1      36.078  16.489  10.553  0.00  0.00    -0.268 OA
HETATM   15  H   UNK N   1      35.757  14.260   8.431  0.00  0.00     0.163 HD
BRANCH  13  16
HETATM   16  C   UNK N   1      34.237  16.296   9.162  0.00  0.00     0.032 A 
HETATM   17  C   UNK N   1      34.105  17.548   8.542  0.00  0.00     0.018 A 
HETATM   18  C   UNK N   1      32.848  17.980   8.131  0.00  0.00     0.018 A 
HETATM   19  C   UNK N   1      31.736  17.147   8.290  0.00  0.00     0.032 A 
HETATM   20  C   UNK N   1      31.893  15.884   8.870  0.00  0.00     0.018 A 
HETATM   21  C   UNK N   1      33.140  15.449   9.270  0.00  0.00     0.018 A 
BRANCH  19  22
HETATM   22  C   UNK N   1      30.462  17.785   8.533  0.00  0.00     0.253 C 
HETATM   23  O   UNK N   1      30.285  18.478   9.536  0.00  0.00    -0.267 OA
HETATM   24  N   UNK N   1      29.472  17.635   7.604  0.00  0.00    -0.344 N 
HETATM   25  C   UNK N   1      28.229  18.348   7.671  0.00  0.00     0.152 C 
HETATM   26  C   UNK N   1      29.697  16.808   6.421  0.00  0.00     0.152 C 
HETATM   27  C   UNK N   1      28.067  19.087   6.334  0.00  0.00     0.187 C 
HETATM   28  O   UNK N   1      28.141  18.175   5.255  0.00  0.00    -0.388 OA
HETATM   29  C   UNK N   1      29.460  17.686   5.202  0.00  0.00     0.187 C 
ENDBRANCH  19  22
ENDBRANCH  13  16
ENDBRANCH   8  12
ENDBRANCH   1   8
BRANCH   7  30
HETATM   30  C   UNK N   1      34.849  10.648  12.098  0.00  0.00     0.241 C 
HETATM   31  O   UNK N   1      33.820  10.942  12.680  0.00  0.00    -0.271 OA
HETATM   32  N   UNK N   1      35.880  10.035  12.745  0.00  0.00    -0.347 N 
HETATM   33  H   UNK N   1      36.672   9.812  12.203  0.00  0.00     0.163 HD
BRANCH  32  34
HETATM   34  C   UNK N   1      35.931   9.676  14.159  0.00  0.00     0.164 C 
BRANCH  34  35
HETATM   35  C   UNK N   1      36.378   8.235  14.428  0.00  0.00     0.008 C 
HETATM   36  C   UNK N   1      36.000   7.231  13.355  0.00  0.00     0.012 C 
HETATM   37  C   UNK N   1      35.881   7.765  15.781  0.00  0.00     0.012 C 
ENDBRANCH  34  35
BRANCH  34  38
HETATM   38  C   UNK N   1      36.349  10.825  15.076  0.00  0.00     0.230 C 
HETATM   39  O   UNK N   1      37.476  11.274  14.921  0.00  0.00    -0.289 OA
BRANCH  38  40
HETATM   40  C   UNK N   1      35.465  11.488  16.134  0.00  0.00     0.400 C 
HETATM   41  F   UNK N   1      34.271  10.800  16.254  0.00  0.00    -0.187 F 
HETATM   42  F   UNK N   1      36.123  11.395  17.354  0.00  0.00    -0.187 F 
BRANCH  40  43
HETATM   43  C   UNK N   1      35.185  12.986  15.899  0.00  0.00     0.462 C 
HETATM   44  F   UNK N   1      36.240  13.751  16.360  0.00  0.00    -0.165 F 
HETATM   45  F   UNK N   1      34.041  13.351  16.586  0.00  0.00    -0.165 F 
HETATM   46  F   UNK N   1      34.968  13.275  14.569  0.00  0.00    -0.165 F 
ENDBRANCH  40  43
ENDBRANCH  38  40
ENDBRANCH  34  38
ENDBRANCH  32  34
ENDBRANCH   7  30
TORSDOF 11
ENDMDL
MODEL 6
REMARK VINA RESULT:      -7.6      7.856     10.448
REMARK  11 active torsions:
REMARK  status: ('A' for Active; 'I' for Inactive)
REMARK    1  A    between atoms: C_2  and  C_4 
REMARK    2  A    between atoms: C_4  and  N_5 
REMARK    3  A    between atoms: C_4  and  C_22 
REMARK       I    between atoms: N_5  and  C_6 
REMARK    4  A    between atoms: C_6  and  C_8 
REMARK    5  A    between atoms: C_11  and  C_14 
REMARK       I    between atoms: C_14  and  N_16 
REMARK       I    between atoms: C_22  and  N_24 
REMARK    6  A    between atoms: C_28  and  C_29 
REMARK       I    between atoms: C_29  and  N_31 
REMARK    7  A    between atoms: C_32  and  N_31 
REMARK    8  A    between atoms: C_32  and  C_33 
REMARK    9  A    between atoms: C_32  and  C_36 
REMARK   10  A    between atoms: C_36  and  C_38 
REMARK   11  A    between atoms: C_38  and  C_41 
ROOT
HETATM    1  C   UNK N   1      33.991  14.593   8.138  0.00  0.00     0.243 C 
HETATM    2  O   UNK N   1      33.322  13.715   8.671  0.00  0.00    -0.271 OA
HETATM    3  N   UNK N   1      34.588  14.352   6.941  0.00  0.00    -0.337 N 
HETATM    4  C   UNK N   1      35.577  15.209   6.361  0.00  0.00     0.127 C 
HETATM    5  C   UNK N   1      35.939  14.555   5.025  0.00  0.00     0.022 C 
HETATM    6  C   UNK N   1      35.272  13.169   4.984  0.00  0.00     0.037 C 
HETATM    7  C   UNK N   1      34.301  13.209   6.131  0.00  0.00     0.179 C 
ENDROOT
BRANCH   1   8
HETATM    8  C   UNK N   1      34.198  15.871   8.904  0.00  0.00     0.180 C 
BRANCH   8   9
HETATM    9  C   UNK N   1      33.443  17.184   8.688  0.00  0.00     0.009 C 
HETATM   10  C   UNK N   1      34.495  18.178   8.232  0.00  0.00     0.012 C 
HETATM   11  C   UNK N   1      32.310  17.167   7.678  0.00  0.00     0.012 C 
ENDBRANCH   8   9
BRANCH   8  12
HETATM   12  N   UNK N   1      34.219  15.515  10.290  0.00  0.00    -0.343 N 
HETATM   13  C   UNK N   1      35.412  15.283  10.848  0.00  0.00     0.252 C 
HETATM   14  O   UNK N   1      36.428  15.676  10.296  0.00  0.00    -0.268 OA
HETATM   15  H   UNK N   1      33.387  15.446  10.813  0.00  0.00     0.163 HD
BRANCH  13  16
HETATM   16  C   UNK N   1      35.513  14.475  12.050  0.00  0.00     0.032 A 
HETATM   17  C   UNK N   1      34.893  13.219  12.138  0.00  0.00     0.018 A 
HETATM   18  C   UNK N   1      34.944  12.512  13.335  0.00  0.00     0.018 A 
HETATM   19  C   UNK N   1      35.655  13.030  14.423  0.00  0.00     0.032 A 
HETATM   20  C   UNK N   1      36.305  14.263  14.303  0.00  0.00     0.018 A 
HETATM   21  C   UNK N   1      36.263  14.962  13.114  0.00  0.00     0.018 A 
BRANCH  19  22
HETATM   22  C   UNK N   1      35.160  12.718  15.745  0.00  0.00     0.253 C 
HETATM   23  O   UNK N   1      34.237  13.366  16.241  0.00  0.00    -0.267 OA
HETATM   24  N   UNK N   1      35.711  11.662  16.413  0.00  0.00    -0.344 N 
HETATM   25  C   UNK N   1      35.191  11.174  17.657  0.00  0.00     0.152 C 
HETATM   26  C   UNK N   1      36.805  10.906  15.810  0.00  0.00     0.152 C 
HETATM   27  C   UNK N   1      34.903   9.677  17.463  0.00  0.00     0.187 C 
HETATM   28  O   UNK N   1      36.070   9.003  17.031  0.00  0.00    -0.388 OA
HETATM   29  C   UNK N   1      36.362   9.453  15.729  0.00  0.00     0.187 C 
ENDBRANCH  19  22
ENDBRANCH  13  16
ENDBRANCH   8  12
ENDBRANCH   1   8
BRANCH   7  30
HETATM   30  C   UNK N   1      33.438  12.094   6.643  0.00  0.00     0.241 C 
HETATM   31  O   UNK N   1      32.296  11.987   6.232  0.00  0.00    -0.271 OA
HETATM   32  N   UNK N   1      33.991  11.149   7.455  0.00  0.00    -0.347 N 
HETATM   33  H   UNK N   1      34.926  11.294   7.730  0.00  0.00     0.163 HD
BRANCH  32  34
HETATM   34  C   UNK N   1      33.340   9.944   7.959  0.00  0.00     0.164 C 
BRANCH  34  35
HETATM   35  C   UNK N   1      33.884   8.639   7.369  0.00  0.00     0.008 C 
HETATM   36  C   UNK N   1      35.277   8.731   6.775  0.00  0.00     0.012 C 
HETATM   37  C   UNK N   1      32.918   8.070   6.348  0.00  0.00     0.012 C 
ENDBRANCH  34  35
BRANCH  34  38
HETATM   38  C   UNK N   1      32.908  10.038   9.422  0.00  0.00     0.230 C 
HETATM   39  O   UNK N   1      31.890  10.672   9.659  0.00  0.00    -0.289 OA
BRANCH  38  40
HETATM   40  C   UNK N   1      33.614   9.371  10.605  0.00  0.00     0.400 C 
HETATM   41  F   UNK N   1      33.026   9.766  11.792  0.00  0.00    -0.187 F 
HETATM   42  F   UNK N   1      33.433   7.999  10.487  0.00  0.00    -0.187 F 
BRANCH  40  43
HETATM   43  C   UNK N   1      35.136   9.609  10.669  0.00  0.00     0.462 C 
HETATM   44  F   UNK N   1      35.460  10.813  10.071  0.00  0.00    -0.165 F 
HETATM   45  F   UNK N   1      35.788   8.592   9.994  0.00  0.00    -0.165 F 
HETATM   46  F   UNK N   1      35.611   9.608  11.962  0.00  0.00    -0.165 F 
ENDBRANCH  40  43
ENDBRANCH  38  40
ENDBRANCH  34  38
ENDBRANCH  32  34
ENDBRANCH   7  30
TORSDOF 11
ENDMDL
MODEL 7
REMARK VINA RESULT:      -7.5      2.338      3.628
REMARK  11 active torsions:
REMARK  status: ('A' for Active; 'I' for Inactive)
REMARK    1  A    between atoms: C_2  and  C_4 
REMARK    2  A    between atoms: C_4  and  N_5 
REMARK    3  A    between atoms: C_4  and  C_22 
REMARK       I    between atoms: N_5  and  C_6 
REMARK    4  A    between atoms: C_6  and  C_8 
REMARK    5  A    between atoms: C_11  and  C_14 
REMARK       I    between atoms: C_14  and  N_16 
REMARK       I    between atoms: C_22  and  N_24 
REMARK    6  A    between atoms: C_28  and  C_29 
REMARK       I    between atoms: C_29  and  N_31 
REMARK    7  A    between atoms: C_32  and  N_31 
REMARK    8  A    between atoms: C_32  and  C_33 
REMARK    9  A    between atoms: C_32  and  C_36 
REMARK   10  A    between atoms: C_36  and  C_38 
REMARK   11  A    between atoms: C_38  and  C_41 
ROOT
HETATM    1  C   UNK N   1      22.298  15.463   4.543  0.00  0.00     0.243 C 
HETATM    2  O   UNK N   1      22.157  14.921   5.633  0.00  0.00    -0.271 OA
HETATM    3  N   UNK N   1      22.422  14.702   3.424  0.00  0.00    -0.337 N 
HETATM    4  C   UNK N   1      22.832  15.220   2.153  0.00  0.00     0.127 C 
HETATM    5  C   UNK N   1      22.808  14.018   1.206  0.00  0.00     0.022 C 
HETATM    6  C   UNK N   1      22.584  12.754   2.054  0.00  0.00     0.037 C 
HETATM    7  C   UNK N   1      22.165  13.295   3.392  0.00  0.00     0.179 C 
ENDROOT
BRANCH   1   8
HETATM    8  C   UNK N   1      22.430  16.961   4.523  0.00  0.00     0.180 C 
BRANCH   8   9
HETATM    9  C   UNK N   1      21.314  17.968   4.806  0.00  0.00     0.009 C 
HETATM   10  C   UNK N   1      21.422  18.275   6.289  0.00  0.00     0.012 C 
HETATM   11  C   UNK N   1      21.351  19.271   4.028  0.00  0.00     0.012 C 
ENDBRANCH   8   9
BRANCH   8  12
HETATM   12  N   UNK N   1      23.606  17.276   5.275  0.00  0.00    -0.343 N 
HETATM   13  C   UNK N   1      24.697  17.635   4.590  0.00  0.00     0.252 C 
HETATM   14  O   UNK N   1      24.594  17.992   3.426  0.00  0.00    -0.268 OA
HETATM   15  H   UNK N   1      23.610  17.231   6.259  0.00  0.00     0.163 HD
BRANCH  13  16
HETATM   16  C   UNK N   1      26.013  17.500   5.188  0.00  0.00     0.032 A 
HETATM   17  C   UNK N   1      26.335  16.405   6.003  0.00  0.00     0.018 A 
HETATM   18  C   UNK N   1      27.579  16.354   6.624  0.00  0.00     0.018 A 
HETATM   19  C   UNK N   1      28.519  17.364   6.390  0.00  0.00     0.032 A 
HETATM   20  C   UNK N   1      28.197  18.427   5.538  0.00  0.00     0.018 A 
HETATM   21  C   UNK N   1      26.967  18.475   4.916  0.00  0.00     0.018 A 
BRANCH  19  22
HETATM   22  C   UNK N   1      29.421  17.689   7.471  0.00  0.00     0.253 C 
HETATM   23  O   UNK N   1      29.032  18.337   8.444  0.00  0.00    -0.267 OA
HETATM   24  N   UNK N   1      30.705  17.227   7.408  0.00  0.00    -0.344 N 
HETATM   25  C   UNK N   1      31.633  17.360   8.493  0.00  0.00     0.152 C 
HETATM   26  C   UNK N   1      31.151  16.463   6.246  0.00  0.00     0.152 C 
HETATM   27  C   UNK N   1      32.147  15.948   8.815  0.00  0.00     0.187 C 
HETATM   28  O   UNK N   1      32.706  15.352   7.660  0.00  0.00    -0.388 OA
HETATM   29  C   UNK N   1      31.655  15.120   6.752  0.00  0.00     0.187 C 
ENDBRANCH  19  22
ENDBRANCH  13  16
ENDBRANCH   8  12
ENDBRANCH   1   8
BRANCH   7  30
HETATM   30  C   UNK N   1      21.910  12.526   4.655  0.00  0.00     0.241 C 
HETATM   31  O   UNK N   1      20.802  12.061   4.856  0.00  0.00    -0.271 OA
HETATM   32  N   UNK N   1      22.956  12.252   5.486  0.00  0.00    -0.347 N 
HETATM   33  H   UNK N   1      23.825  12.648   5.247  0.00  0.00     0.163 HD
BRANCH  32  34
HETATM   34  C   UNK N   1      22.918  11.433   6.693  0.00  0.00     0.164 C 
BRANCH  34  35
HETATM   35  C   UNK N   1      24.042  10.396   6.787  0.00  0.00     0.008 C 
HETATM   36  C   UNK N   1      24.814  10.163   5.502  0.00  0.00     0.012 C 
HETATM   37  C   UNK N   1      23.512   9.080   7.322  0.00  0.00     0.012 C 
ENDBRANCH  34  35
BRANCH  34  38
HETATM   38  C   UNK N   1      22.412  12.174   7.930  0.00  0.00     0.230 C 
HETATM   39  O   UNK N   1      21.204  12.181   8.115  0.00  0.00    -0.289 OA
BRANCH  38  40
HETATM   40  C   UNK N   1      23.289  12.867   8.975  0.00  0.00     0.400 C 
HETATM   41  F   UNK N   1      24.492  13.245   8.409  0.00  0.00    -0.187 F 
HETATM   42  F   UNK N   1      22.635  14.025   9.377  0.00  0.00    -0.187 F 
BRANCH  40  43
HETATM   43  C   UNK N   1      23.548  12.042  10.253  0.00  0.00     0.462 C 
HETATM   44  F   UNK N   1      23.005  10.777  10.127  0.00  0.00    -0.165 F 
HETATM   45  F   UNK N   1      22.953  12.672  11.332  0.00  0.00    -0.165 F 
HETATM   46  F   UNK N   1      24.891  11.929  10.539  0.00  0.00    -0.165 F 
ENDBRANCH  40  43
ENDBRANCH  38  40
ENDBRANCH  34  38
ENDBRANCH  32  34
ENDBRANCH   7  30
TORSDOF 11
ENDMDL
MODEL 8
REMARK VINA RESULT:      -7.3     14.025     17.759
REMARK  11 active torsions:
REMARK  status: ('A' for Active; 'I' for Inactive)
REMARK    1  A    between atoms: C_2  and  C_4 
REMARK    2  A    between atoms: C_4  and  N_5 
REMARK    3  A    between atoms: C_4  and  C_22 
REMARK       I    between atoms: N_5  and  C_6 
REMARK    4  A    between atoms: C_6  and  C_8 
REMARK    5  A    between atoms: C_11  and  C_14 
REMARK       I    between atoms: C_14  and  N_16 
REMARK       I    between atoms: C_22  and  N_24 
REMARK    6  A    between atoms: C_28  and  C_29 
REMARK       I    between atoms: C_29  and  N_31 
REMARK    7  A    between atoms: C_32  and  N_31 
REMARK    8  A    between atoms: C_32  and  C_33 
REMARK    9  A    between atoms: C_32  and  C_36 
REMARK   10  A    between atoms: C_36  and  C_38 
REMARK   11  A    between atoms: C_38  and  C_41 
ROOT
HETATM    1  C   UNK N   1      28.454  24.478  -4.976  0.00  0.00     0.243 C 
HETATM    2  O   UNK N   1      27.775  23.847  -5.779  0.00  0.00    -0.271 OA
HETATM    3  N   UNK N   1      28.226  25.806  -4.800  0.00  0.00    -0.337 N 
HETATM    4  C   UNK N   1      29.110  26.675  -4.083  0.00  0.00     0.127 C 
HETATM    5  C   UNK N   1      28.442  28.051  -4.129  0.00  0.00     0.022 C 
HETATM    6  C   UNK N   1      27.252  27.964  -5.100  0.00  0.00     0.037 C 
HETATM    7  C   UNK N   1      27.081  26.487  -5.320  0.00  0.00     0.179 C 
ENDROOT
BRANCH   1   8
HETATM    8  C   UNK N   1      29.585  23.753  -4.300  0.00  0.00     0.180 C 
BRANCH   8   9
HETATM    9  C   UNK N   1      29.788  23.608  -2.791  0.00  0.00     0.009 C 
HETATM   10  C   UNK N   1      28.438  23.178  -2.247  0.00  0.00     0.012 C 
HETATM   11  C   UNK N   1      30.844  22.619  -2.331  0.00  0.00     0.012 C 
ENDBRANCH   8   9
BRANCH   8  12
HETATM   12  N   UNK N   1      29.707  22.487  -4.956  0.00  0.00    -0.343 N 
HETATM   13  C   UNK N   1      30.744  22.320  -5.784  0.00  0.00     0.252 C 
HETATM   14  O   UNK N   1      31.701  23.078  -5.721  0.00  0.00    -0.268 OA
HETATM   15  H   UNK N   1      29.053  21.767  -4.803  0.00  0.00     0.163 HD
BRANCH  13  16
HETATM   16  C   UNK N   1      30.693  21.311  -6.827  0.00  0.00     0.032 A 
HETATM   17  C   UNK N   1      31.682  21.238  -7.819  0.00  0.00     0.018 A 
HETATM   18  C   UNK N   1      31.554  20.310  -8.848  0.00  0.00     0.018 A 
HETATM   19  C   UNK N   1      30.472  19.422  -8.857  0.00  0.00     0.032 A 
HETATM   20  C   UNK N   1      29.519  19.480  -7.835  0.00  0.00     0.018 A 
HETATM   21  C   UNK N   1      29.648  20.394  -6.809  0.00  0.00     0.018 A 
BRANCH  19  22
HETATM   22  C   UNK N   1      29.970  19.007 -10.148  0.00  0.00     0.253 C 
HETATM   23  O   UNK N   1      29.226  19.739 -10.801  0.00  0.00    -0.267 OA
HETATM   24  N   UNK N   1      30.373  17.799 -10.644  0.00  0.00    -0.344 N 
HETATM   25  C   UNK N   1      30.061  17.362 -11.973  0.00  0.00     0.152 C 
HETATM   26  C   UNK N   1      31.254  16.942  -9.855  0.00  0.00     0.152 C 
HETATM   27  C   UNK N   1      31.394  17.017 -12.654  0.00  0.00     0.187 C 
HETATM   28  O   UNK N   1      32.102  16.057 -11.892  0.00  0.00    -0.388 OA
HETATM   29  C   UNK N   1      32.496  16.676 -10.691  0.00  0.00     0.187 C 
ENDBRANCH  19  22
ENDBRANCH  13  16
ENDBRANCH   8  12
ENDBRANCH   1   8
BRANCH   7  30
HETATM   30  C   UNK N   1      26.134  25.803  -6.261  0.00  0.00     0.241 C 
HETATM   31  O   UNK N   1      25.058  25.413  -5.843  0.00  0.00    -0.271 OA
HETATM   32  N   UNK N   1      26.441  25.749  -7.588  0.00  0.00    -0.347 N 
HETATM   33  H   UNK N   1      27.322  26.101  -7.852  0.00  0.00     0.163 HD
BRANCH  32  34
HETATM   34  C   UNK N   1      25.598  25.223  -8.657  0.00  0.00     0.164 C 
BRANCH  34  35
HETATM   35  C   UNK N   1      25.584  26.079  -9.928  0.00  0.00     0.008 C 
HETATM   36  C   UNK N   1      24.493  25.735 -10.925  0.00  0.00     0.012 C 
HETATM   37  C   UNK N   1      26.939  26.052 -10.606  0.00  0.00     0.012 C 
ENDBRANCH  34  35
BRANCH  34  38
HETATM   38  C   UNK N   1      25.562  23.696  -8.723  0.00  0.00     0.230 C 
HETATM   39  O   UNK N   1      24.481  23.160  -8.526  0.00  0.00    -0.289 OA
BRANCH  38  40
HETATM   40  C   UNK N   1      26.748  22.790  -9.059  0.00  0.00     0.400 C 
HETATM   41  F   UNK N   1      27.936  23.464  -8.844  0.00  0.00    -0.187 F 
HETATM   42  F   UNK N   1      26.718  21.711  -8.186  0.00  0.00    -0.187 F 
BRANCH  40  43
HETATM   43  C   UNK N   1      26.730  22.202 -10.485  0.00  0.00     0.462 C 
HETATM   44  F   UNK N   1      26.406  20.859 -10.448  0.00  0.00    -0.165 F 
HETATM   45  F   UNK N   1      27.986  22.339 -11.051  0.00  0.00    -0.165 F 
HETATM   46  F   UNK N   1      25.841  22.857 -11.310  0.00  0.00    -0.165 F 
ENDBRANCH  40  43
ENDBRANCH  38  40
ENDBRANCH  34  38
ENDBRANCH  32  34
ENDBRANCH   7  30
TORSDOF 11
ENDMDL
MODEL 9
REMARK VINA RESULT:      -7.3      3.628      8.949
REMARK  11 active torsions:
REMARK  status: ('A' for Active; 'I' for Inactive)
REMARK    1  A    between atoms: C_2  and  C_4 
REMARK    2  A    between atoms: C_4  and  N_5 
REMARK    3  A    between atoms: C_4  and  C_22 
REMARK       I    between atoms: N_5  and  C_6 
REMARK    4  A    between atoms: C_6  and  C_8 
REMARK    5  A    between atoms: C_11  and  C_14 
REMARK       I    between atoms: C_14  and  N_16 
REMARK       I    between atoms: C_22  and  N_24 
REMARK    6  A    between atoms: C_28  and  C_29 
REMARK       I    between atoms: C_29  and  N_31 
REMARK    7  A    between atoms: C_32  and  N_31 
REMARK    8  A    between atoms: C_32  and  C_33 
REMARK    9  A    between atoms: C_32  and  C_36 
REMARK   10  A    between atoms: C_36  and  C_38 
REMARK   11  A    between atoms: C_38  and  C_41 
ROOT
HETATM    1  C   UNK N   1      26.169  16.265   3.809  0.00  0.00     0.243 C 
HETATM    2  O   UNK N   1      26.831  15.554   4.557  0.00  0.00    -0.271 OA
HETATM    3  N   UNK N   1      26.332  17.614   3.845  0.00  0.00    -0.337 N 
HETATM    4  C   UNK N   1      25.447  18.538   3.202  0.00  0.00     0.127 C 
HETATM    5  C   UNK N   1      26.032  19.921   3.495  0.00  0.00     0.022 C 
HETATM    6  C   UNK N   1      27.161  19.746   4.525  0.00  0.00     0.037 C 
HETATM    7  C   UNK N   1      27.402  18.263   4.538  0.00  0.00     0.179 C 
ENDROOT
BRANCH   1   8
HETATM    8  C   UNK N   1      25.126  15.597   2.956  0.00  0.00     0.180 C 
BRANCH   8   9
HETATM    9  C   UNK N   1      25.389  14.734   1.721  0.00  0.00     0.009 C 
HETATM   10  C   UNK N   1      25.965  13.436   2.258  0.00  0.00     0.012 C 
HETATM   11  C   UNK N   1      24.196  14.417   0.838  0.00  0.00     0.012 C 
ENDBRANCH   8   9
BRANCH   8  12
HETATM   12  N   UNK N   1      24.224  14.944   3.855  0.00  0.00    -0.343 N 
HETATM   13  C   UNK N   1      23.035  15.521   4.061  0.00  0.00     0.252 C 
HETATM   14  O   UNK N   1      22.624  16.364   3.278  0.00  0.00    -0.268 OA
HETATM   15  H   UNK N   1      24.469  14.101   4.302  0.00  0.00     0.163 HD
BRANCH  13  16
HETATM   16  C   UNK N   1      22.279  15.228   5.265  0.00  0.00     0.032 A 
HETATM   17  C   UNK N   1      22.149  16.175   6.292  0.00  0.00     0.018 A 
HETATM   18  C   UNK N   1      21.486  15.828   7.465  0.00  0.00     0.018 A 
HETATM   19  C   UNK N   1      20.909  14.559   7.592  0.00  0.00     0.032 A 
HETATM   20  C   UNK N   1      21.009  13.643   6.540  0.00  0.00     0.018 A 
HETATM   21  C   UNK N   1      21.659  13.988   5.373  0.00  0.00     0.018 A 
BRANCH  19  22
HETATM   22  C   UNK N   1      20.873  13.980   8.916  0.00  0.00     0.253 C 
HETATM   23  O   UNK N   1      19.807  13.856   9.522  0.00  0.00    -0.267 OA
HETATM   24  N   UNK N   1      22.043  13.535   9.463  0.00  0.00    -0.344 N 
HETATM   25  C   UNK N   1      22.096  12.808  10.698  0.00  0.00     0.152 C 
HETATM   26  C   UNK N   1      23.298  13.692   8.732  0.00  0.00     0.152 C 
HETATM   27  C   UNK N   1      22.836  11.493  10.409  0.00  0.00     0.187 C 
HETATM   28  O   UNK N   1      24.109  11.756   9.849  0.00  0.00    -0.388 OA
HETATM   29  C   UNK N   1      23.904  12.306   8.569  0.00  0.00     0.187 C 
ENDBRANCH  19  22
ENDBRANCH  13  16
ENDBRANCH   8  12
ENDBRANCH   1   8
BRANCH   7  30
HETATM   30  C   UNK N   1      28.326  17.490   5.433  0.00  0.00     0.241 C 
HETATM   31  O   UNK N   1      27.990  17.263   6.582  0.00  0.00    -0.271 OA
HETATM   32  N   UNK N   1      29.459  16.948   4.905  0.00  0.00    -0.347 N 
HETATM   33  H   UNK N   1      29.654  17.162   3.964  0.00  0.00     0.163 HD
BRANCH  32  34
HETATM   34  C   UNK N   1      30.414  16.084   5.592  0.00  0.00     0.164 C 
BRANCH  34  35
HETATM   35  C   UNK N   1      30.799  14.823   4.811  0.00  0.00     0.008 C 
HETATM   36  C   UNK N   1      31.192  15.056   3.364  0.00  0.00     0.012 C 
HETATM   37  C   UNK N   1      29.697  13.786   4.892  0.00  0.00     0.012 C 
ENDBRANCH  34  35
BRANCH  34  38
HETATM   38  C   UNK N   1      31.436  16.840   6.441  0.00  0.00     0.230 C 
HETATM   39  O   UNK N   1      32.286  17.482   5.841  0.00  0.00    -0.289 OA
BRANCH  38  40
HETATM   40  C   UNK N   1      31.457  16.897   7.970  0.00  0.00     0.400 C 
HETATM   41  F   UNK N   1      31.884  18.143   8.391  0.00  0.00    -0.187 F 
HETATM   42  F   UNK N   1      30.154  16.730   8.419  0.00  0.00    -0.187 F 
BRANCH  40  43
HETATM   43  C   UNK N   1      32.300  15.798   8.647  0.00  0.00     0.462 C 
HETATM   44  F   UNK N   1      33.557  16.280   8.962  0.00  0.00    -0.165 F 
HETATM   45  F   UNK N   1      32.442  14.730   7.779  0.00  0.00    -0.165 F 
HETATM   46  F   UNK N   1      31.705  15.313   9.792  0.00  0.00    -0.165 F 
ENDBRANCH  40  43
ENDBRANCH  38  40
ENDBRANCH  34  38
ENDBRANCH  32  34
ENDBRANCH   7  30
TORSDOF 11
ENDMDL
