MODEL 1
REMARK VINA RESULT:      -6.5      0.000      0.000
REMARK  6 active torsions:
REMARK  status: ('A' for Active; 'I' for Inactive)
REMARK    1  A    between atoms: C_4  and  C_2 
REMARK    2  A    between atoms: O_20  and  C_2 
REMARK    3  A    between atoms: C_10  and  C_6 
REMARK    4  A    between atoms: C_8  and  O_21 
REMARK    5  A    between atoms: C_9  and  O_22 
REMARK    6  A    between atoms: N_12  and  C_11 
ROOT
HETATM    1  C   UNK N   1      29.651  18.495   9.912  0.00  0.00     0.182 A 
HETATM    2  C   UNK N   1      30.594  17.050   8.343  0.00  0.00     0.092 A 
HETATM    3  C   UNK N   1      31.435  16.162   7.735  0.00  0.00     0.086 A 
HETATM    4  C   UNK N   1      29.591  17.277   7.472  0.00  0.00     0.120 A 
HETATM    5  C   UNK N   1      28.573  18.161   7.805  0.00  0.00     0.132 A 
HETATM    6  N   UNK N   1      30.657  17.638   9.561  0.00  0.00    -0.349 N 
ATOM      7  HN  UNK N   1      31.430  17.446  10.197  1.00  0.00     0.167 HD
HETATM    8  N   UNK N   1      28.625  18.758   9.037  0.00  0.00    -0.337 N 
ATOM      9  HN  UNK N   1      27.889  19.408   9.310  1.00  0.00     0.168 HD
HETATM   10  N   UNK N   1      30.919  15.860   6.516  0.00  0.00    -0.299 N 
HETATM   11  N   UNK N   1      29.788  16.553   6.354  0.00  0.00    -0.295 N 
ATOM     12  HN  UNK N   1      29.184  16.535   5.533  1.00  0.00     0.187 HD
HETATM   13  H   UNK N   1      31.311  15.237   5.863  0.00  0.00     0.186 HD
ENDROOT
BRANCH   3  14
HETATM   14  C   UNK N   1      32.722  15.654   8.314  0.00  0.00     0.207 C 
HETATM   15  C   UNK N   1      32.592  14.695   9.476  0.00  0.00     0.184 C 
HETATM   16  C   UNK N   1      34.020  14.688   9.991  0.00  0.00     0.180 C 
HETATM   17  C   UNK N   1      34.562  16.038   9.462  0.00  0.00     0.177 C 
HETATM   18  O   UNK N   1      33.483  16.709   8.850  0.00  0.00    -0.367 OA
BRANCH  15  19
HETATM   19  O   UNK N   1      32.135  13.426   9.114  0.00  0.00    -0.390 OA
HETATM   20  H   UNK N   1      32.347  12.845   8.367  0.00  0.00     0.210 HD
ENDBRANCH  15  19
BRANCH  16  21
HETATM   21  O   UNK N   1      34.028  14.586  11.387  0.00  0.00    -0.390 OA
HETATM   22  H   UNK N   1      33.538  14.130  12.088  0.00  0.00     0.210 HD
ENDBRANCH  16  21
BRANCH  17  23
HETATM   23  C   UNK N   1      35.241  16.919  10.502  0.00  0.00     0.198 C 
BRANCH  23  24
HETATM   24  O   UNK N   1      36.485  16.382  10.841  0.00  0.00    -0.398 OA
HETATM   25  H   UNK N   1      37.015  16.694  11.592  0.00  0.00     0.209 HD
ENDBRANCH  23  24
ENDBRANCH  17  23
ENDBRANCH   3  14
BRANCH   5  26
HETATM   26  N   UNK N   1      27.527  18.446   6.898  0.00  0.00    -0.379 N 
HETATM   27  C   UNK N   1      27.638  19.521   5.945  0.00  0.00     0.147 C 
HETATM   28  H   UNK N   1      26.707  17.902   6.918  0.00  0.00     0.160 HD
ENDBRANCH   5  26
TORSDOF 6
ENDMDL
MODEL 2
REMARK VINA RESULT:      -6.5      5.556      8.610
REMARK  6 active torsions:
REMARK  status: ('A' for Active; 'I' for Inactive)
REMARK    1  A    between atoms: C_4  and  C_2 
REMARK    2  A    between atoms: O_20  and  C_2 
REMARK    3  A    between atoms: C_10  and  C_6 
REMARK    4  A    between atoms: C_8  and  O_21 
REMARK    5  A    between atoms: C_9  and  O_22 
REMARK    6  A    between atoms: N_12  and  C_11 
ROOT
HETATM    1  C   UNK N   1      34.113  10.783  13.476  0.00  0.00     0.182 A 
HETATM    2  C   UNK N   1      35.383  12.704  13.107  0.00  0.00     0.092 A 
HETATM    3  C   UNK N   1      35.902  13.827  12.528  0.00  0.00     0.086 A 
HETATM    4  C   UNK N   1      35.991  12.580  14.302  0.00  0.00     0.120 A 
HETATM    5  C   UNK N   1      35.678  11.510  15.129  0.00  0.00     0.132 A 
HETATM    6  N   UNK N   1      34.448  11.832  12.664  0.00  0.00    -0.349 N 
ATOM      7  HN  UNK N   1      34.005  11.953  11.753  1.00  0.00     0.167 HD
HETATM    8  N   UNK N   1      34.730  10.623  14.693  0.00  0.00    -0.337 N 
ATOM      9  HN  UNK N   1      34.477   9.830  15.282  1.00  0.00     0.168 HD
HETATM   10  N   UNK N   1      36.804  14.366  13.387  0.00  0.00    -0.299 N 
HETATM   11  N   UNK N   1      36.862  13.593  14.476  0.00  0.00    -0.295 N 
ATOM     12  HN  UNK N   1      37.457  13.744  15.290  1.00  0.00     0.187 HD
HETATM   13  H   UNK N   1      37.327  15.186  13.235  0.00  0.00     0.186 HD
ENDROOT
BRANCH   3  14
HETATM   14  C   UNK N   1      35.554  14.335  11.160  0.00  0.00     0.207 C 
HETATM   15  C   UNK N   1      35.642  15.832  10.966  0.00  0.00     0.184 C 
HETATM   16  C   UNK N   1      34.910  15.985   9.645  0.00  0.00     0.180 C 
HETATM   17  C   UNK N   1      34.034  14.710   9.611  0.00  0.00     0.177 C 
HETATM   18  O   UNK N   1      34.214  14.047  10.843  0.00  0.00    -0.367 OA
BRANCH  15  19
HETATM   19  O   UNK N   1      36.949  16.322  10.928  0.00  0.00    -0.390 OA
HETATM   20  H   UNK N   1      37.535  16.560  10.192  0.00  0.00     0.210 HD
ENDBRANCH  15  19
BRANCH  16  21
HETATM   21  O   UNK N   1      34.174  17.175   9.637  0.00  0.00    -0.390 OA
HETATM   22  H   UNK N   1      33.931  17.887  10.249  0.00  0.00     0.210 HD
ENDBRANCH  16  21
BRANCH  17  23
HETATM   23  C   UNK N   1      32.557  14.943   9.321  0.00  0.00     0.198 C 
BRANCH  23  24
HETATM   24  O   UNK N   1      31.879  15.238  10.505  0.00  0.00    -0.398 OA
HETATM   25  H   UNK N   1      31.126  15.848  10.552  0.00  0.00     0.209 HD
ENDBRANCH  23  24
ENDBRANCH  17  23
ENDBRANCH   3  14
BRANCH   5  26
HETATM   26  N   UNK N   1      36.325  11.334  16.374  0.00  0.00    -0.379 N 
HETATM   27  C   UNK N   1      35.616  10.821  17.518  0.00  0.00     0.147 C 
HETATM   28  H   UNK N   1      37.278  11.565  16.461  0.00  0.00     0.160 HD
ENDBRANCH   5  26
TORSDOF 6
ENDMDL
MODEL 3
REMARK VINA RESULT:      -6.1      3.420      5.361
REMARK  6 active torsions:
REMARK  status: ('A' for Active; 'I' for Inactive)
REMARK    1  A    between atoms: C_4  and  C_2 
REMARK    2  A    between atoms: O_20  and  C_2 
REMARK    3  A    between atoms: C_10  and  C_6 
REMARK    4  A    between atoms: C_8  and  O_21 
REMARK    5  A    between atoms: C_9  and  O_22 
REMARK    6  A    between atoms: N_12  and  C_11 
ROOT
HETATM    1  C   UNK N   1      32.777  13.707   8.795  0.00  0.00     0.182 A 
HETATM    2  C   UNK N   1      34.147  15.030  10.141  0.00  0.00     0.092 A 
HETATM    3  C   UNK N   1      35.018  15.427  11.116  0.00  0.00     0.086 A 
HETATM    4  C   UNK N   1      33.840  16.136   9.436  0.00  0.00     0.120 A 
HETATM    5  C   UNK N   1      32.952  16.053   8.372  0.00  0.00     0.132 A 
HETATM    6  N   UNK N   1      33.638  13.810   9.852  0.00  0.00    -0.349 N 
ATOM      7  HN  UNK N   1      33.889  12.991  10.407  1.00  0.00     0.167 HD
HETATM    8  N   UNK N   1      32.435  14.822   8.068  0.00  0.00    -0.337 N 
ATOM      9  HN  UNK N   1      31.783  14.731   7.289  1.00  0.00     0.168 HD
HETATM   10  N   UNK N   1      35.231  16.760  10.974  0.00  0.00    -0.299 N 
HETATM   11  N   UNK N   1      34.499  17.195   9.944  0.00  0.00    -0.295 N 
ATOM     12  HN  UNK N   1      34.450  18.156   9.603  1.00  0.00     0.187 HD
HETATM   13  H   UNK N   1      35.822  17.312  11.534  0.00  0.00     0.186 HD
ENDROOT
BRANCH   3  14
HETATM   14  C   UNK N   1      35.594  14.536  12.175  0.00  0.00     0.207 C 
HETATM   15  C   UNK N   1      36.568  13.483  11.698  0.00  0.00     0.184 C 
HETATM   16  C   UNK N   1      36.650  12.599  12.929  0.00  0.00     0.180 C 
HETATM   17  C   UNK N   1      35.317  12.920  13.646  0.00  0.00     0.177 C 
HETATM   18  O   UNK N   1      34.586  13.782  12.802  0.00  0.00    -0.367 OA
BRANCH  15  19
HETATM   19  O   UNK N   1      37.808  13.993  11.307  0.00  0.00    -0.390 OA
HETATM   20  H   UNK N   1      38.547  14.369  11.812  0.00  0.00     0.210 HD
ENDBRANCH  15  19
BRANCH  16  21
HETATM   21  O   UNK N   1      36.779  11.258  12.553  0.00  0.00    -0.390 OA
HETATM   22  H   UNK N   1      36.219  10.475  12.440  0.00  0.00     0.210 HD
ENDBRANCH  16  21
BRANCH  17  23
HETATM   23  C   UNK N   1      34.487  11.709  14.050  0.00  0.00     0.198 C 
BRANCH  23  24
HETATM   24  O   UNK N   1      33.929  11.114  12.917  0.00  0.00    -0.398 OA
HETATM   25  H   UNK N   1      34.237  10.269  12.551  0.00  0.00     0.209 HD
ENDBRANCH  23  24
ENDBRANCH  17  23
ENDBRANCH   3  14
BRANCH   5  26
HETATM   26  N   UNK N   1      32.584  17.203   7.635  0.00  0.00    -0.379 N 
HETATM   27  C   UNK N   1      33.296  17.585   6.443  0.00  0.00     0.147 C 
HETATM   28  H   UNK N   1      31.827  17.752   7.942  0.00  0.00     0.160 HD
ENDBRANCH   5  26
TORSDOF 6
ENDMDL
MODEL 4
REMARK VINA RESULT:      -6.1      7.794     11.358
REMARK  6 active torsions:
REMARK  status: ('A' for Active; 'I' for Inactive)
REMARK    1  A    between atoms: C_4  and  C_2 
REMARK    2  A    between atoms: O_20  and  C_2 
REMARK    3  A    between atoms: C_10  and  C_6 
REMARK    4  A    between atoms: C_8  and  O_21 
REMARK    5  A    between atoms: C_9  and  O_22 
REMARK    6  A    between atoms: N_12  and  C_11 
ROOT
HETATM    1  C   UNK N   1      26.171  20.556   2.998  0.00  0.00     0.182 A 
HETATM    2  C   UNK N   1      24.643  19.163   4.076  0.00  0.00     0.092 A 
HETATM    3  C   UNK N   1      23.473  18.590   4.489  0.00  0.00     0.086 A 
HETATM    4  C   UNK N   1      25.633  18.478   4.680  0.00  0.00     0.120 A 
HETATM    5  C   UNK N   1      26.955  18.840   4.465  0.00  0.00     0.132 A 
HETATM    6  N   UNK N   1      24.873  20.200   3.237  0.00  0.00    -0.349 N 
ATOM      7  HN  UNK N   1      24.101  20.700   2.795  1.00  0.00     0.167 HD
HETATM    8  N   UNK N   1      27.200  19.885   3.614  0.00  0.00    -0.337 N 
ATOM      9  HN  UNK N   1      28.162  20.170   3.434  1.00  0.00     0.168 HD
HETATM   10  N   UNK N   1      23.778  17.564   5.323  0.00  0.00    -0.299 N 
HETATM   11  N   UNK N   1      25.107  17.501   5.445  0.00  0.00    -0.295 N 
ATOM     12  HN  UNK N   1      25.629  16.834   6.013  1.00  0.00     0.187 HD
HETATM   13  H   UNK N   1      23.131  16.968   5.764  0.00  0.00     0.186 HD
ENDROOT
BRANCH   3  14
HETATM   14  C   UNK N   1      22.100  19.057   4.107  0.00  0.00     0.207 C 
HETATM   15  C   UNK N   1      21.234  18.050   3.385  0.00  0.00     0.184 C 
HETATM   16  C   UNK N   1      20.124  18.951   2.875  0.00  0.00     0.180 C 
HETATM   17  C   UNK N   1      20.816  20.335   2.855  0.00  0.00     0.177 C 
HETATM   18  O   UNK N   1      22.168  20.132   3.202  0.00  0.00    -0.367 OA
BRANCH  15  19
HETATM   19  O   UNK N   1      20.768  17.016   4.201  0.00  0.00    -0.390 OA
HETATM   20  H   UNK N   1      20.697  16.928   5.164  0.00  0.00     0.210 HD
ENDBRANCH  15  19
BRANCH  16  21
HETATM   21  O   UNK N   1      19.692  18.519   1.616  0.00  0.00    -0.390 OA
HETATM   22  H   UNK N   1      19.071  18.792   0.924  0.00  0.00     0.210 HD
ENDBRANCH  16  21
BRANCH  17  23
HETATM   23  C   UNK N   1      20.691  21.106   1.548  0.00  0.00     0.198 C 
BRANCH  23  24
HETATM   24  O   UNK N   1      21.545  20.559   0.588  0.00  0.00    -0.398 OA
HETATM   25  H   UNK N   1      21.639  20.915  -0.310  0.00  0.00     0.209 HD
ENDBRANCH  23  24
ENDBRANCH  17  23
ENDBRANCH   3  14
BRANCH   5  26
HETATM   26  N   UNK N   1      28.014  18.162   5.113  0.00  0.00    -0.379 N 
HETATM   27  C   UNK N   1      28.400  18.496   6.461  0.00  0.00     0.147 C 
HETATM   28  H   UNK N   1      28.497  17.450   4.635  0.00  0.00     0.160 HD
ENDBRANCH   5  26
TORSDOF 6
ENDMDL
MODEL 5
REMARK VINA RESULT:      -6.0      4.392      7.106
REMARK  6 active torsions:
REMARK  status: ('A' for Active; 'I' for Inactive)
REMARK    1  A    between atoms: C_4  and  C_2 
REMARK    2  A    between atoms: O_20  and  C_2 
REMARK    3  A    between atoms: C_10  and  C_6 
REMARK    4  A    between atoms: C_8  and  O_21 
REMARK    5  A    between atoms: C_9  and  O_22 
REMARK    6  A    between atoms: N_12  and  C_11 
ROOT
HETATM    1  C   UNK N   1      36.024  12.844  10.434  0.00  0.00     0.182 A 
HETATM    2  C   UNK N   1      35.332  14.999   9.871  0.00  0.00     0.092 A 
HETATM    3  C   UNK N   1      34.867  16.071   9.164  0.00  0.00     0.086 A 
HETATM    4  C   UNK N   1      35.555  15.441  11.124  0.00  0.00     0.120 A 
HETATM    5  C   UNK N   1      36.052  14.571  12.085  0.00  0.00     0.132 A 
HETATM    6  N   UNK N   1      35.554  13.718   9.493  0.00  0.00    -0.349 N 
ATOM      7  HN  UNK N   1      35.375  13.414   8.536  1.00  0.00     0.167 HD
HETATM    8  N   UNK N   1      36.276  13.272  11.715  0.00  0.00    -0.337 N 
ATOM      9  HN  UNK N   1      36.637  12.610  12.401  1.00  0.00     0.168 HD
HETATM   10  N   UNK N   1      34.806  17.136  10.004  0.00  0.00    -0.299 N 
HETATM   11  N   UNK N   1      35.238  16.747  11.208  0.00  0.00    -0.295 N 
ATOM     12  HN  UNK N   1      35.312  17.334  12.039  1.00  0.00     0.187 HD
HETATM   13  H   UNK N   1      34.499  18.040   9.767  0.00  0.00     0.186 HD
ENDROOT
BRANCH   3  14
HETATM   14  C   UNK N   1      34.527  16.062   7.703  0.00  0.00     0.207 C 
HETATM   15  C   UNK N   1      33.728  17.243   7.201  0.00  0.00     0.184 C 
HETATM   16  C   UNK N   1      33.296  16.729   5.840  0.00  0.00     0.180 C 
HETATM   17  C   UNK N   1      33.386  15.196   6.031  0.00  0.00     0.177 C 
HETATM   18  O   UNK N   1      33.712  14.962   7.383  0.00  0.00    -0.367 OA
BRANCH  15  19
HETATM   19  O   UNK N   1      34.458  18.432   7.130  0.00  0.00    -0.390 OA
HETATM   20  H   UNK N   1      34.564  19.170   7.751  0.00  0.00     0.210 HD
ENDBRANCH  15  19
BRANCH  16  21
HETATM   21  O   UNK N   1      32.007  17.184   5.540  0.00  0.00    -0.390 OA
HETATM   22  H   UNK N   1      31.092  17.022   5.819  0.00  0.00     0.210 HD
ENDBRANCH  16  21
BRANCH  17  23
HETATM   23  C   UNK N   1      32.146  14.414   5.618  0.00  0.00     0.198 C 
BRANCH  23  24
HETATM   24  O   UNK N   1      31.223  14.398   6.666  0.00  0.00    -0.398 OA
HETATM   25  H   UNK N   1      31.236  15.033   7.399  0.00  0.00     0.209 HD
ENDBRANCH  23  24
ENDBRANCH  17  23
ENDBRANCH   3  14
BRANCH   5  26
HETATM   26  N   UNK N   1      36.331  15.015  13.399  0.00  0.00    -0.379 N 
HETATM   27  C   UNK N   1      36.427  14.086  14.496  0.00  0.00     0.147 C 
HETATM   28  H   UNK N   1      36.461  15.976  13.567  0.00  0.00     0.160 HD
ENDBRANCH   5  26
TORSDOF 6
ENDMDL
MODEL 6
REMARK VINA RESULT:      -5.9      3.908      5.685
REMARK  6 active torsions:
REMARK  status: ('A' for Active; 'I' for Inactive)
REMARK    1  A    between atoms: C_4  and  C_2 
REMARK    2  A    between atoms: O_20  and  C_2 
REMARK    3  A    between atoms: C_10  and  C_6 
REMARK    4  A    between atoms: C_8  and  O_21 
REMARK    5  A    between atoms: C_9  and  O_22 
REMARK    6  A    between atoms: N_12  and  C_11 
ROOT
HETATM    1  C   UNK N   1      35.170  14.030   7.681  0.00  0.00     0.182 A 
HETATM    2  C   UNK N   1      35.285  15.110   9.745  0.00  0.00     0.092 A 
HETATM    3  C   UNK N   1      35.482  15.355  11.074  0.00  0.00     0.086 A 
HETATM    4  C   UNK N   1      34.878  16.275   9.203  0.00  0.00     0.120 A 
HETATM    5  C   UNK N   1      34.581  16.340   7.848  0.00  0.00     0.132 A 
HETATM    6  N   UNK N   1      35.440  13.977   9.021  0.00  0.00    -0.349 N 
ATOM      7  HN  UNK N   1      35.749  13.110   9.461  1.00  0.00     0.167 HD
HETATM    8  N   UNK N   1      34.738  15.200   7.105  0.00  0.00    -0.337 N 
ATOM      9  HN  UNK N   1      34.531  15.220   6.107  1.00  0.00     0.168 HD
HETATM   10  N   UNK N   1      35.204  16.663  11.308  0.00  0.00    -0.299 N 
HETATM   11  N   UNK N   1      34.825  17.225  10.156  0.00  0.00    -0.295 N 
ATOM     12  HN  UNK N   1      34.548  18.197  10.023  1.00  0.00     0.187 HD
HETATM   13  H   UNK N   1      35.268  17.119  12.177  0.00  0.00     0.186 HD
ENDROOT
BRANCH   3  14
HETATM   14  C   UNK N   1      35.895  14.331  12.090  0.00  0.00     0.207 C 
HETATM   15  C   UNK N   1      34.795  13.433  12.609  0.00  0.00     0.184 C 
HETATM   16  C   UNK N   1      35.486  12.812  13.810  0.00  0.00     0.180 C 
HETATM   17  C   UNK N   1      36.582  13.857  14.128  0.00  0.00     0.177 C 
HETATM   18  O   UNK N   1      36.385  14.948  13.255  0.00  0.00    -0.367 OA
BRANCH  15  19
HETATM   19  O   UNK N   1      34.352  12.486  11.683  0.00  0.00    -0.390 OA
HETATM   20  H   UNK N   1      33.717  12.538  10.951  0.00  0.00     0.210 HD
ENDBRANCH  15  19
BRANCH  16  21
HETATM   21  O   UNK N   1      34.569  12.623  14.849  0.00  0.00    -0.390 OA
HETATM   22  H   UNK N   1      33.608  12.606  14.981  0.00  0.00     0.210 HD
ENDBRANCH  16  21
BRANCH  17  23
HETATM   23  C   UNK N   1      36.643  14.315  15.579  0.00  0.00     0.198 C 
BRANCH  23  24
HETATM   24  O   UNK N   1      37.707  15.202  15.754  0.00  0.00    -0.398 OA
HETATM   25  H   UNK N   1      37.909  15.634  16.600  0.00  0.00     0.209 HD
ENDBRANCH  23  24
ENDBRANCH  17  23
ENDBRANCH   3  14
BRANCH   5  26
HETATM   26  N   UNK N   1      34.118  17.539   7.258  0.00  0.00    -0.379 N 
HETATM   27  C   UNK N   1      32.975  17.546   6.380  0.00  0.00     0.147 C 
HETATM   28  H   UNK N   1      34.583  18.384   7.450  0.00  0.00     0.160 HD
ENDBRANCH   5  26
TORSDOF 6
ENDMDL
MODEL 7
REMARK VINA RESULT:      -5.9     13.668     14.382
REMARK  6 active torsions:
REMARK  status: ('A' for Active; 'I' for Inactive)
REMARK    1  A    between atoms: C_4  and  C_2 
REMARK    2  A    between atoms: O_20  and  C_2 
REMARK    3  A    between atoms: C_10  and  C_6 
REMARK    4  A    between atoms: C_8  and  O_21 
REMARK    5  A    between atoms: C_9  and  O_22 
REMARK    6  A    between atoms: N_12  and  C_11 
ROOT
HETATM    1  C   UNK N   1      40.217  20.794  -0.601  0.00  0.00     0.182 A 
HETATM    2  C   UNK N   1      41.104  22.391   0.849  0.00  0.00     0.092 A 
HETATM    3  C   UNK N   1      41.796  22.976   1.871  0.00  0.00     0.086 A 
HETATM    4  C   UNK N   1      40.504  23.392   0.176  0.00  0.00     0.120 A 
HETATM    5  C   UNK N   1      39.706  23.106  -0.923  0.00  0.00     0.132 A 
HETATM    6  N   UNK N   1      40.983  21.091   0.492  0.00  0.00    -0.349 N 
ATOM      7  HN  UNK N   1      41.450  20.355   1.022  1.00  0.00     0.167 HD
HETATM    8  N   UNK N   1      39.580  21.794  -1.295  0.00  0.00    -0.337 N 
ATOM      9  HN  UNK N   1      39.004  21.555  -2.101  1.00  0.00     0.168 HD
HETATM   10  N   UNK N   1      41.611  24.318   1.790  0.00  0.00    -0.299 N 
HETATM   11  N   UNK N   1      40.810  24.571   0.751  0.00  0.00    -0.295 N 
ATOM     12  HN  UNK N   1      40.489  25.491   0.448  1.00  0.00     0.187 HD
HETATM   13  H   UNK N   1      42.000  24.991   2.394  0.00  0.00     0.186 HD
ENDROOT
BRANCH   3  14
HETATM   14  C   UNK N   1      42.582  22.241   2.915  0.00  0.00     0.207 C 
HETATM   15  C   UNK N   1      43.759  22.985   3.505  0.00  0.00     0.184 C 
HETATM   16  C   UNK N   1      44.477  21.852   4.215  0.00  0.00     0.180 C 
HETATM   17  C   UNK N   1      43.966  20.611   3.444  0.00  0.00     0.177 C 
HETATM   18  O   UNK N   1      43.169  21.081   2.379  0.00  0.00    -0.367 OA
BRANCH  15  19
HETATM   19  O   UNK N   1      43.399  24.027   4.362  0.00  0.00    -0.390 OA
HETATM   20  H   UNK N   1      43.408  24.108   5.329  0.00  0.00     0.210 HD
ENDBRANCH  15  19
BRANCH  16  21
HETATM   21  O   UNK N   1      45.862  22.034   4.135  0.00  0.00    -0.390 OA
HETATM   22  H   UNK N   1      46.586  21.864   3.512  0.00  0.00     0.210 HD
ENDBRANCH  16  21
BRANCH  17  23
HETATM   23  C   UNK N   1      45.048  19.662   2.947  0.00  0.00     0.198 C 
BRANCH  23  24
HETATM   24  O   UNK N   1      45.709  20.223   1.853  0.00  0.00    -0.398 OA
HETATM   25  H   UNK N   1      45.918  21.168   1.782  0.00  0.00     0.209 HD
ENDBRANCH  23  24
ENDBRANCH  17  23
ENDBRANCH   3  14
BRANCH   5  26
HETATM   26  N   UNK N   1      39.035  24.133  -1.627  0.00  0.00    -0.379 N 
HETATM   27  C   UNK N   1      39.653  24.799  -2.744  0.00  0.00     0.147 C 
HETATM   28  H   UNK N   1      38.129  24.398  -1.348  0.00  0.00     0.160 HD
ENDBRANCH   5  26
TORSDOF 6
ENDMDL
MODEL 8
REMARK VINA RESULT:      -5.9      1.339      2.128
REMARK  6 active torsions:
REMARK  status: ('A' for Active; 'I' for Inactive)
REMARK    1  A    between atoms: C_4  and  C_2 
REMARK    2  A    between atoms: O_20  and  C_2 
REMARK    3  A    between atoms: C_10  and  C_6 
REMARK    4  A    between atoms: C_8  and  O_21 
REMARK    5  A    between atoms: C_9  and  O_22 
REMARK    6  A    between atoms: N_12  and  C_11 
ROOT
HETATM    1  C   UNK N   1      28.969  18.226   9.812  0.00  0.00     0.182 A 
HETATM    2  C   UNK N   1      30.430  17.595   8.107  0.00  0.00     0.092 A 
HETATM    3  C   UNK N   1      31.549  17.183   7.442  0.00  0.00     0.086 A 
HETATM    4  C   UNK N   1      29.474  17.761   7.173  0.00  0.00     0.120 A 
HETATM    5  C   UNK N   1      28.209  18.195   7.546  0.00  0.00     0.132 A 
HETATM    6  N   UNK N   1      30.215  17.817   9.425  0.00  0.00    -0.349 N 
ATOM      7  HN  UNK N   1      30.960  17.683  10.109  1.00  0.00     0.167 HD
HETATM    8  N   UNK N   1      27.980  18.419   8.878  0.00  0.00    -0.337 N 
ATOM      9  HN  UNK N   1      27.059  18.734   9.181  1.00  0.00     0.168 HD
HETATM   10  N   UNK N   1      31.246  17.095   6.122  0.00  0.00    -0.299 N 
HETATM   11  N   UNK N   1      29.971  17.459   5.958  0.00  0.00    -0.295 N 
ATOM     12  HN  UNK N   1      29.465  17.498   5.073  1.00  0.00     0.187 HD
HETATM   13  H   UNK N   1      31.861  16.814   5.407  0.00  0.00     0.186 HD
ENDROOT
BRANCH   3  14
HETATM   14  C   UNK N   1      32.883  16.919   8.074  0.00  0.00     0.207 C 
HETATM   15  C   UNK N   1      33.906  16.229   7.201  0.00  0.00     0.184 C 
HETATM   16  C   UNK N   1      34.938  15.832   8.241  0.00  0.00     0.180 C 
HETATM   17  C   UNK N   1      34.097  15.809   9.539  0.00  0.00     0.177 C 
HETATM   18  O   UNK N   1      32.756  16.049   9.172  0.00  0.00    -0.367 OA
BRANCH  15  19
HETATM   19  O   UNK N   1      34.429  17.040   6.192  0.00  0.00    -0.390 OA
HETATM   20  H   UNK N   1      34.953  16.838   5.400  0.00  0.00     0.210 HD
ENDBRANCH  15  19
BRANCH  16  21
HETATM   21  O   UNK N   1      35.502  14.594   7.913  0.00  0.00    -0.390 OA
HETATM   22  H   UNK N   1      36.206  14.007   8.228  0.00  0.00     0.210 HD
ENDBRANCH  16  21
BRANCH  17  23
HETATM   23  C   UNK N   1      34.222  14.542  10.374  0.00  0.00     0.198 C 
BRANCH  23  24
HETATM   24  O   UNK N   1      33.448  13.524   9.815  0.00  0.00    -0.398 OA
HETATM   25  H   UNK N   1      33.436  12.614  10.152  0.00  0.00     0.209 HD
ENDBRANCH  23  24
ENDBRANCH  17  23
ENDBRANCH   3  14
BRANCH   5  26
HETATM   26  N   UNK N   1      27.197  18.412   6.584  0.00  0.00    -0.379 N 
HETATM   27  C   UNK N   1      27.052  19.686   5.927  0.00  0.00     0.147 C 
HETATM   28  H   UNK N   1      26.579  17.680   6.358  0.00  0.00     0.160 HD
ENDBRANCH   5  26
TORSDOF 6
ENDMDL
MODEL 9
REMARK VINA RESULT:      -5.8      4.797      7.467
REMARK  6 active torsions:
REMARK  status: ('A' for Active; 'I' for Inactive)
REMARK    1  A    between atoms: C_4  and  C_2 
REMARK    2  A    between atoms: O_20  and  C_2 
REMARK    3  A    between atoms: C_10  and  C_6 
REMARK    4  A    between atoms: C_8  and  O_21 
REMARK    5  A    between atoms: C_9  and  O_22 
REMARK    6  A    between atoms: N_12  and  C_11 
ROOT
HETATM    1  C   UNK N   1      34.869  11.601  11.925  0.00  0.00     0.182 A 
HETATM    2  C   UNK N   1      35.172  13.874  11.499  0.00  0.00     0.092 A 
HETATM    3  C   UNK N   1      35.088  15.111  10.926  0.00  0.00     0.086 A 
HETATM    4  C   UNK N   1      35.968  14.011  12.577  0.00  0.00     0.120 A 
HETATM    5  C   UNK N   1      36.258  12.907  13.367  0.00  0.00     0.132 A 
HETATM    6  N   UNK N   1      34.610  12.694  11.146  0.00  0.00    -0.349 N 
ATOM      7  HN  UNK N   1      34.012  12.623  10.323  1.00  0.00     0.167 HD
HETATM    8  N   UNK N   1      35.691  11.709  13.021  0.00  0.00    -0.337 N 
ATOM      9  HN  UNK N   1      35.884  10.882  13.586  1.00  0.00     0.168 HD
HETATM   10  N   UNK N   1      35.823  15.973  11.673  0.00  0.00    -0.299 N 
HETATM   11  N   UNK N   1      36.370  15.292  12.684  0.00  0.00    -0.295 N 
ATOM     12  HN  UNK N   1      36.980  15.674  13.407  1.00  0.00     0.187 HD
HETATM   13  H   UNK N   1      35.936  16.935  11.499  0.00  0.00     0.186 HD
ENDROOT
BRANCH   3  14
HETATM   14  C   UNK N   1      34.341  15.430   9.665  0.00  0.00     0.207 C 
HETATM   15  C   UNK N   1      35.035  15.064   8.373  0.00  0.00     0.184 C 
HETATM   16  C   UNK N   1      34.183  15.825   7.373  0.00  0.00     0.180 C 
HETATM   17  C   UNK N   1      33.560  16.933   8.256  0.00  0.00     0.177 C 
HETATM   18  O   UNK N   1      34.135  16.816   9.539  0.00  0.00    -0.367 OA
BRANCH  15  19
HETATM   19  O   UNK N   1      35.078  13.691   8.122  0.00  0.00    -0.390 OA
HETATM   20  H   UNK N   1      35.323  12.934   8.678  0.00  0.00     0.210 HD
ENDBRANCH  15  19
BRANCH  16  21
HETATM   21  O   UNK N   1      34.981  16.315   6.334  0.00  0.00    -0.390 OA
HETATM   22  H   UNK N   1      35.071  17.119   5.800  0.00  0.00     0.210 HD
ENDBRANCH  16  21
BRANCH  17  23
HETATM   23  C   UNK N   1      33.698  18.350   7.717  0.00  0.00     0.198 C 
BRANCH  23  24
HETATM   24  O   UNK N   1      35.001  18.812   7.918  0.00  0.00    -0.398 OA
HETATM   25  H   UNK N   1      35.210  19.624   8.407  0.00  0.00     0.209 HD
ENDBRANCH  23  24
ENDBRANCH  17  23
ENDBRANCH   3  14
BRANCH   5  26
HETATM   26  N   UNK N   1      37.119  13.012  14.484  0.00  0.00    -0.379 N 
HETATM   27  C   UNK N   1      36.720  13.728  15.669  0.00  0.00     0.147 C 
HETATM   28  H   UNK N   1      38.007  12.590  14.452  0.00  0.00     0.160 HD
ENDBRANCH   5  26
TORSDOF 6
ENDMDL
