MODEL 1
REMARK VINA RESULT:      -4.2      0.000      0.000
REMARK  0 active torsions:
REMARK  status: ('A' for Active; 'I' for Inactive)
REMARK       I    between atoms: N_1  and  C_2 
REMARK       I    between atoms: C_2  and  N_4 
ROOT
HETATM    1  N   UNK N   1      20.429  21.140   0.313  0.00  0.00    -0.233 N 
HETATM    2  C   UNK N   1      20.677  20.512   1.555  0.00  0.00     0.691 C 
HETATM    3  N   UNK N   1      21.043  21.219   2.561  0.00  0.00    -0.233 N 
HETATM    4  N   UNK N   1      20.519  19.092   1.682  0.00  0.00    -0.082 N 
HETATM    5  C   UNK N   1      20.713  18.346   2.782  0.00  0.00     0.226 A 
HETATM    6  N   UNK N   1      20.462  17.051   2.503  0.00  0.00    -0.345 N 
ATOM      7  HN  UNK N   1      20.523  16.253   3.135  1.00  0.00     0.167 HD
HETATM    8  C   UNK N   1      20.112  17.049   1.197  0.00  0.00     0.199 A 
HETATM    9  N   UNK N   1      20.147  18.299   0.697  0.00  0.00    -0.274 N 
ATOM     10  HN  UNK N   1      19.928  18.578  -0.259  1.00  0.00     0.189 HD
HETATM   11  H   UNK N   1      20.537  22.114   0.224  0.00  0.00     0.174 HD
HETATM   12  H   UNK N   1      20.148  20.602  -0.463  0.00  0.00     0.174 HD
HETATM   13  H   UNK N   1      21.217  20.788   3.428  0.00  0.00     0.174 HD
HETATM   14  H   UNK N   1      21.149  22.193   2.465  0.00  0.00     0.174 HD
ENDROOT
TORSDOF 0
ENDMDL
MODEL 2
REMARK VINA RESULT:      -4.2      1.163      3.255
REMARK  0 active torsions:
REMARK  status: ('A' for Active; 'I' for Inactive)
REMARK       I    between atoms: N_1  and  C_2 
REMARK       I    between atoms: C_2  and  N_4 
ROOT
HETATM    1  N   UNK N   1      19.323  17.169   1.065  0.00  0.00    -0.233 N 
HETATM    2  C   UNK N   1      19.613  17.884   2.249  0.00  0.00     0.691 C 
HETATM    3  N   UNK N   1      19.408  17.334   3.389  0.00  0.00    -0.233 N 
HETATM    4  N   UNK N   1      20.135  19.218   2.167  0.00  0.00    -0.082 N 
HETATM    5  C   UNK N   1      20.461  20.029   3.187  0.00  0.00     0.226 A 
HETATM    6  N   UNK N   1      20.917  21.203   2.706  0.00  0.00    -0.345 N 
ATOM      7  HN  UNK N   1      21.238  22.013   3.237  1.00  0.00     0.167 HD
HETATM    8  C   UNK N   1      20.851  21.067   1.363  0.00  0.00     0.199 A 
HETATM    9  N   UNK N   1      20.372  19.851   1.036  0.00  0.00    -0.274 N 
ATOM     10  HN  UNK N   1      20.223  19.490   0.093  1.00  0.00     0.189 HD
HETATM   11  H   UNK N   1      18.965  16.254   1.118  0.00  0.00     0.174 HD
HETATM   12  H   UNK N   1      19.478  17.586   0.186  0.00  0.00     0.174 HD
HETATM   13  H   UNK N   1      19.609  17.827   4.216  0.00  0.00     0.174 HD
HETATM   14  H   UNK N   1      19.050  16.419   3.435  0.00  0.00     0.174 HD
ENDROOT
TORSDOF 0
ENDMDL
MODEL 3
REMARK VINA RESULT:      -4.2     10.630     11.627
REMARK  0 active torsions:
REMARK  status: ('A' for Active; 'I' for Inactive)
REMARK       I    between atoms: N_1  and  C_2 
REMARK       I    between atoms: C_2  and  N_4 
ROOT
HETATM    1  N   UNK N   1      20.703  13.378   9.922  0.00  0.00    -0.233 N 
HETATM    2  C   UNK N   1      21.482  12.611  10.818  0.00  0.00     0.691 C 
HETATM    3  N   UNK N   1      20.903  11.898  11.713  0.00  0.00    -0.233 N 
HETATM    4  N   UNK N   1      22.913  12.636  10.721  0.00  0.00    -0.082 N 
HETATM    5  C   UNK N   1      23.793  11.971  11.488  0.00  0.00     0.226 A 
HETATM    6  N   UNK N   1      25.049  12.252  11.087  0.00  0.00    -0.345 N 
ATOM      7  HN  UNK N   1      25.923  11.899  11.476  1.00  0.00     0.167 HD
HETATM    8  C   UNK N   1      24.889  13.108  10.053  0.00  0.00     0.199 A 
HETATM    9  N   UNK N   1      23.582  13.341   9.831  0.00  0.00    -0.274 N 
ATOM     10  HN  UNK N   1      23.185  13.947   9.112  1.00  0.00     0.189 HD
HETATM   11  H   UNK N   1      19.721  13.362   9.987  0.00  0.00     0.174 HD
HETATM   12  H   UNK N   1      21.143  13.927   9.233  0.00  0.00     0.174 HD
HETATM   13  H   UNK N   1      21.440  11.362  12.339  0.00  0.00     0.174 HD
HETATM   14  H   UNK N   1      19.920  11.887  11.772  0.00  0.00     0.174 HD
ENDROOT
TORSDOF 0
ENDMDL
MODEL 4
REMARK VINA RESULT:      -4.1     10.605     11.892
REMARK  0 active torsions:
REMARK  status: ('A' for Active; 'I' for Inactive)
REMARK       I    between atoms: N_1  and  C_2 
REMARK       I    between atoms: C_2  and  N_4 
ROOT
HETATM    1  N   UNK N   1      25.878  13.575  10.580  0.00  0.00    -0.233 N 
HETATM    2  C   UNK N   1      24.717  13.074   9.948  0.00  0.00     0.691 C 
HETATM    3  N   UNK N   1      24.612  13.134   8.672  0.00  0.00    -0.233 N 
HETATM    4  N   UNK N   1      23.665  12.502  10.739  0.00  0.00    -0.082 N 
HETATM    5  C   UNK N   1      22.505  11.985  10.299  0.00  0.00     0.226 A 
HETATM    6  N   UNK N   1      21.778  11.547  11.347  0.00  0.00    -0.345 N 
ATOM      7  HN  UNK N   1      20.857  11.108  11.328  1.00  0.00     0.167 HD
HETATM    8  C   UNK N   1      22.543  11.819  12.427  0.00  0.00     0.199 A 
HETATM    9  N   UNK N   1      23.696  12.404  12.053  0.00  0.00    -0.274 N 
ATOM     10  HN  UNK N   1      24.450  12.711  12.668  1.00  0.00     0.189 HD
HETATM   11  H   UNK N   1      26.601  13.967  10.040  0.00  0.00     0.174 HD
HETATM   12  H   UNK N   1      25.963  13.531  11.560  0.00  0.00     0.174 HD
HETATM   13  H   UNK N   1      23.806  12.787   8.227  0.00  0.00     0.174 HD
HETATM   14  H   UNK N   1      25.339  13.528   8.138  0.00  0.00     0.174 HD
ENDROOT
TORSDOF 0
ENDMDL
MODEL 5
REMARK VINA RESULT:      -3.9     22.764     23.279
REMARK  0 active torsions:
REMARK  status: ('A' for Active; 'I' for Inactive)
REMARK       I    between atoms: N_1  and  C_2 
REMARK       I    between atoms: C_2  and  N_4 
ROOT
HETATM    1  N   UNK N   1      45.592  22.340   4.169  0.00  0.00    -0.233 N 
HETATM    2  C   UNK N   1      44.208  22.354   3.886  0.00  0.00     0.691 C 
HETATM    3  N   UNK N   1      43.544  23.443   4.020  0.00  0.00    -0.233 N 
HETATM    4  N   UNK N   1      43.556  21.152   3.452  0.00  0.00    -0.082 N 
HETATM    5  C   UNK N   1      42.257  20.996   3.145  0.00  0.00     0.226 A 
HETATM    6  N   UNK N   1      42.028  19.719   2.780  0.00  0.00    -0.345 N 
ATOM      7  HN  UNK N   1      41.142  19.300   2.493  1.00  0.00     0.167 HD
HETATM    8  C   UNK N   1      43.234  19.116   2.879  0.00  0.00     0.199 A 
HETATM    9  N   UNK N   1      44.167  19.996   3.291  0.00  0.00    -0.274 N 
ATOM     10  HN  UNK N   1      45.157  19.804   3.448  1.00  0.00     0.189 HD
HETATM   11  H   UNK N   1      46.042  23.163   4.467  0.00  0.00     0.174 HD
HETATM   12  H   UNK N   1      46.107  21.506   4.068  0.00  0.00     0.174 HD
HETATM   13  H   UNK N   1      42.580  23.459   3.825  0.00  0.00     0.174 HD
HETATM   14  H   UNK N   1      44.000  24.263   4.319  0.00  0.00     0.174 HD
ENDROOT
TORSDOF 0
ENDMDL
MODEL 6
REMARK VINA RESULT:      -3.9     22.368     23.036
REMARK  0 active torsions:
REMARK  status: ('A' for Active; 'I' for Inactive)
REMARK       I    between atoms: N_1  and  C_2 
REMARK       I    between atoms: C_2  and  N_4 
ROOT
HETATM    1  N   UNK N   1      44.833  24.691   2.915  0.00  0.00    -0.233 N 
HETATM    2  C   UNK N   1      44.420  23.350   3.090  0.00  0.00     0.691 C 
HETATM    3  N   UNK N   1      45.222  22.503   3.621  0.00  0.00    -0.233 N 
HETATM    4  N   UNK N   1      43.107  22.948   2.673  0.00  0.00    -0.082 N 
HETATM    5  C   UNK N   1      42.563  21.723   2.766  0.00  0.00     0.226 A 
HETATM    6  N   UNK N   1      41.311  21.743   2.266  0.00  0.00    -0.345 N 
ATOM      7  HN  UNK N   1      40.652  20.967   2.202  1.00  0.00     0.167 HD
HETATM    8  C   UNK N   1      41.126  23.022   1.871  0.00  0.00     0.199 A 
HETATM    9  N   UNK N   1      42.226  23.757   2.120  0.00  0.00    -0.274 N 
ATOM     10  HN  UNK N   1      42.353  24.750   1.920  1.00  0.00     0.189 HD
HETATM   11  H   UNK N   1      45.732  24.969   3.200  0.00  0.00     0.174 HD
HETATM   12  H   UNK N   1      44.220  25.345   2.508  0.00  0.00     0.174 HD
HETATM   13  H   UNK N   1      44.940  21.568   3.745  0.00  0.00     0.174 HD
HETATM   14  H   UNK N   1      46.121  22.788   3.904  0.00  0.00     0.174 HD
ENDROOT
TORSDOF 0
ENDMDL
MODEL 7
REMARK VINA RESULT:      -3.8      9.709     11.516
REMARK  0 active torsions:
REMARK  status: ('A' for Active; 'I' for Inactive)
REMARK       I    between atoms: N_1  and  C_2 
REMARK       I    between atoms: C_2  and  N_4 
ROOT
HETATM    1  N   UNK N   1      24.686  12.165  11.462  0.00  0.00    -0.233 N 
HETATM    2  C   UNK N   1      23.280  12.116  11.601  0.00  0.00     0.691 C 
HETATM    3  N   UNK N   1      22.761  11.475  12.583  0.00  0.00    -0.233 N 
HETATM    4  N   UNK N   1      22.445  12.783  10.644  0.00  0.00    -0.082 N 
HETATM    5  C   UNK N   1      21.102  12.833  10.631  0.00  0.00     0.226 A 
HETATM    6  N   UNK N   1      20.685  13.556   9.572  0.00  0.00    -0.345 N 
ATOM      7  HN  UNK N   1      19.725  13.768   9.299  1.00  0.00     0.167 HD
HETATM    8  C   UNK N   1      21.825  13.935   8.952  0.00  0.00     0.199 A 
HETATM    9  N   UNK N   1      22.900  13.461   9.610  0.00  0.00    -0.274 N 
ATOM     10  HN  UNK N   1      23.878  13.599   9.357  1.00  0.00     0.189 HD
HETATM   11  H   UNK N   1      25.261  11.709  12.117  0.00  0.00     0.174 HD
HETATM   12  H   UNK N   1      25.089  12.656  10.709  0.00  0.00     0.174 HD
HETATM   13  H   UNK N   1      21.784  11.437  12.685  0.00  0.00     0.174 HD
HETATM   14  H   UNK N   1      23.343  11.021  13.235  0.00  0.00     0.174 HD
ENDROOT
TORSDOF 0
ENDMDL
MODEL 8
REMARK VINA RESULT:      -3.7      8.291      9.441
REMARK  0 active torsions:
REMARK  status: ('A' for Active; 'I' for Inactive)
REMARK       I    between atoms: N_1  and  C_2 
REMARK       I    between atoms: C_2  and  N_4 
ROOT
HETATM    1  N   UNK N   1      27.765  18.484   9.077  0.00  0.00    -0.233 N 
HETATM    2  C   UNK N   1      28.174  18.597   7.729  0.00  0.00     0.691 C 
HETATM    3  N   UNK N   1      29.055  17.789   7.263  0.00  0.00    -0.233 N 
HETATM    4  N   UNK N   1      27.602  19.611   6.892  0.00  0.00    -0.082 N 
HETATM    5  C   UNK N   1      27.877  19.852   5.599  0.00  0.00     0.226 A 
HETATM    6  N   UNK N   1      27.135  20.889   5.161  0.00  0.00    -0.345 N 
ATOM      7  HN  UNK N   1      27.126  21.300   4.228  1.00  0.00     0.167 HD
HETATM    8  C   UNK N   1      26.406  21.260   6.237  0.00  0.00     0.199 A 
HETATM    9  N   UNK N   1      26.693  20.477   7.294  0.00  0.00    -0.274 N 
ATOM     10  HN  UNK N   1      26.286  20.542   8.228  1.00  0.00     0.189 HD
HETATM   11  H   UNK N   1      28.157  17.789   9.653  0.00  0.00     0.174 HD
HETATM   12  H   UNK N   1      27.089  19.102   9.440  0.00  0.00     0.174 HD
HETATM   13  H   UNK N   1      29.343  17.862   6.325  0.00  0.00     0.174 HD
HETATM   14  H   UNK N   1      29.442  17.096   7.845  0.00  0.00     0.174 HD
ENDROOT
TORSDOF 0
ENDMDL
MODEL 9
REMARK VINA RESULT:      -3.7      1.908      3.530
REMARK  0 active torsions:
REMARK  status: ('A' for Active; 'I' for Inactive)
REMARK       I    between atoms: N_1  and  C_2 
REMARK       I    between atoms: C_2  and  N_4 
ROOT
HETATM    1  N   UNK N   1      19.386  17.023   3.570  0.00  0.00    -0.233 N 
HETATM    2  C   UNK N   1      19.553  18.263   2.912  0.00  0.00     0.691 C 
HETATM    3  N   UNK N   1      18.578  18.763   2.245  0.00  0.00    -0.233 N 
HETATM    4  N   UNK N   1      20.808  18.951   2.993  0.00  0.00    -0.082 N 
HETATM    5  C   UNK N   1      21.129  20.129   2.430  0.00  0.00     0.226 A 
HETATM    6  N   UNK N   1      22.404  20.445   2.735  0.00  0.00    -0.345 N 
ATOM      7  HN  UNK N   1      22.926  21.275   2.452  1.00  0.00     0.167 HD
HETATM    8  C   UNK N   1      22.834  19.417   3.500  0.00  0.00     0.199 A 
HETATM    9  N   UNK N   1      21.856  18.505   3.656  0.00  0.00    -0.274 N 
ATOM     10  HN  UNK N   1      21.914  17.634   4.186  1.00  0.00     0.189 HD
HETATM   11  H   UNK N   1      18.526  16.549   3.516  0.00  0.00     0.174 HD
HETATM   12  H   UNK N   1      20.132  16.635   4.083  0.00  0.00     0.174 HD
HETATM   13  H   UNK N   1      18.687  19.625   1.785  0.00  0.00     0.174 HD
HETATM   14  H   UNK N   1      17.720  18.283   2.195  0.00  0.00     0.174 HD
ENDROOT
TORSDOF 0
ENDMDL
