MODEL 1
REMARK VINA RESULT:      -5.2      0.000      0.000
REMARK  4 active torsions:
REMARK  status: ('A' for Active; 'I' for Inactive)
REMARK    1  A    between atoms: O_1  and  C_2 
REMARK    2  A    between atoms: C_2  and  C_4 
REMARK    3  A    between atoms: C_4  and  C_5 
REMARK    4  A    between atoms: C_5  and  C_6 
ROOT
HETATM    1  C   UNK N   1      30.664  17.220   8.006  0.00  0.00    -0.014 C 
HETATM    2  C   UNK N   1      30.548  18.338   9.040  0.00  0.00     0.004 C 
HETATM    3  C   UNK N   1      29.108  18.469   9.533  0.00  0.00     0.000 C 
HETATM    4  C   UNK N   1      28.161  18.719   8.362  0.00  0.00     0.000 C 
HETATM    5  C   UNK N   1      28.280  17.593   7.340  0.00  0.00     0.000 C 
HETATM    6  C   UNK N   1      29.717  17.504   6.837  0.00  0.00     0.004 C 
ENDROOT
BRANCH   1   7
HETATM    7  C   UNK N   1      32.112  17.118   7.543  0.00  0.00     0.015 C 
BRANCH   7   8
HETATM    8  C   UNK N   1      33.059  17.875   8.472  0.00  0.00     0.110 C 
BRANCH   8   9
HETATM    9  C   UNK N   1      34.340  18.281   7.806  0.00  0.00     0.139 C 
HETATM   10  O   UNK N   1      34.602  17.918   6.670  0.00  0.00    -0.650 OA
BRANCH   9  11
HETATM   11  O   UNK N   1      35.205  19.072   8.468  0.00  0.00    -0.776 OA
HETATM   12  H   UNK N   1      35.336  19.958   8.193  0.00  0.00     0.167 HD
ENDBRANCH   9  11
ENDBRANCH   8   9
ENDBRANCH   7   8
ENDBRANCH   1   7
TORSDOF 4
ENDMDL
MODEL 2
REMARK VINA RESULT:      -5.0     10.482     11.645
REMARK  4 active torsions:
REMARK  status: ('A' for Active; 'I' for Inactive)
REMARK    1  A    between atoms: O_1  and  C_2 
REMARK    2  A    between atoms: C_2  and  C_4 
REMARK    3  A    between atoms: C_4  and  C_5 
REMARK    4  A    between atoms: C_5  and  C_6 
ROOT
HETATM    1  C   UNK N   1      34.843  12.525  17.166  0.00  0.00    -0.014 C 
HETATM    2  C   UNK N   1      35.598  11.209  17.342  0.00  0.00     0.004 C 
HETATM    3  C   UNK N   1      35.351  10.629  18.735  0.00  0.00     0.000 C 
HETATM    4  C   UNK N   1      35.756  11.631  19.813  0.00  0.00     0.000 C 
HETATM    5  C   UNK N   1      34.991  12.938  19.630  0.00  0.00     0.000 C 
HETATM    6  C   UNK N   1      35.279  13.516  18.249  0.00  0.00     0.004 C 
ENDROOT
BRANCH   1   7
HETATM    7  C   UNK N   1      35.110  13.068  15.767  0.00  0.00     0.015 C 
BRANCH   7   8
HETATM    8  C   UNK N   1      36.605  13.170  15.474  0.00  0.00     0.110 C 
BRANCH   8   9
HETATM    9  C   UNK N   1      37.051  14.568  15.164  0.00  0.00     0.139 C 
HETATM   10  O   UNK N   1      37.646  15.238  15.993  0.00  0.00    -0.650 OA
BRANCH   9  11
HETATM   11  O   UNK N   1      36.804  15.083  13.945  0.00  0.00    -0.776 OA
HETATM   12  H   UNK N   1      36.168  15.763  13.843  0.00  0.00     0.167 HD
ENDBRANCH   9  11
ENDBRANCH   8   9
ENDBRANCH   7   8
ENDBRANCH   1   7
TORSDOF 4
ENDMDL
MODEL 3
REMARK VINA RESULT:      -4.9     10.028     10.963
REMARK  4 active torsions:
REMARK  status: ('A' for Active; 'I' for Inactive)
REMARK    1  A    between atoms: O_1  and  C_2 
REMARK    2  A    between atoms: C_2  and  C_4 
REMARK    3  A    between atoms: C_4  and  C_5 
REMARK    4  A    between atoms: C_5  and  C_6 
ROOT
HETATM    1  C   UNK N   1      21.675  13.515   9.973  0.00  0.00    -0.014 C 
HETATM    2  C   UNK N   1      22.210  13.032   8.626  0.00  0.00     0.004 C 
HETATM    3  C   UNK N   1      22.245  14.180   7.618  0.00  0.00     0.000 C 
HETATM    4  C   UNK N   1      20.857  14.795   7.457  0.00  0.00     0.000 C 
HETATM    5  C   UNK N   1      20.336  15.279   8.807  0.00  0.00     0.000 C 
HETATM    6  C   UNK N   1      20.278  14.111   9.785  0.00  0.00     0.004 C 
ENDROOT
BRANCH   1   7
HETATM    7  C   UNK N   1      21.660  12.345  10.950  0.00  0.00     0.015 C 
BRANCH   7   8
HETATM    8  C   UNK N   1      22.974  11.567  10.923  0.00  0.00     0.110 C 
BRANCH   8   9
HETATM    9  C   UNK N   1      23.949  12.018  11.970  0.00  0.00     0.139 C 
HETATM   10  O   UNK N   1      23.645  12.025  13.152  0.00  0.00    -0.650 OA
BRANCH   9  11
HETATM   11  O   UNK N   1      25.182  12.407  11.596  0.00  0.00    -0.776 OA
HETATM   12  H   UNK N   1      25.885  12.395  12.215  0.00  0.00     0.167 HD
ENDBRANCH   9  11
ENDBRANCH   8   9
ENDBRANCH   7   8
ENDBRANCH   1   7
TORSDOF 4
ENDMDL
MODEL 4
REMARK VINA RESULT:      -4.7      3.366      4.994
REMARK  4 active torsions:
REMARK  status: ('A' for Active; 'I' for Inactive)
REMARK    1  A    between atoms: O_1  and  C_2 
REMARK    2  A    between atoms: C_2  and  C_4 
REMARK    3  A    between atoms: C_4  and  C_5 
REMARK    4  A    between atoms: C_5  and  C_6 
ROOT
HETATM    1  C   UNK N   1      31.677  16.957   7.019  0.00  0.00    -0.014 C 
HETATM    2  C   UNK N   1      30.773  17.394   5.867  0.00  0.00     0.004 C 
HETATM    3  C   UNK N   1      31.387  17.002   4.523  0.00  0.00     0.000 C 
HETATM    4  C   UNK N   1      32.781  17.608   4.374  0.00  0.00     0.000 C 
HETATM    5  C   UNK N   1      33.675  17.160   5.525  0.00  0.00     0.000 C 
HETATM    6  C   UNK N   1      33.061  17.590   6.853  0.00  0.00     0.004 C 
ENDROOT
BRANCH   1   7
HETATM    7  C   UNK N   1      31.031  17.360   8.339  0.00  0.00     0.015 C 
BRANCH   7   8
HETATM    8  C   UNK N   1      29.507  17.379   8.242  0.00  0.00     0.110 C 
BRANCH   8   9
HETATM    9  C   UNK N   1      28.856  18.178   9.331  0.00  0.00     0.139 C 
HETATM   10  O   UNK N   1      29.525  18.767  10.166  0.00  0.00    -0.650 OA
BRANCH   9  11
HETATM   11  O   UNK N   1      27.513  18.258   9.377  0.00  0.00    -0.776 OA
HETATM   12  H   UNK N   1      27.010  17.528   9.679  0.00  0.00     0.167 HD
ENDBRANCH   9  11
ENDBRANCH   8   9
ENDBRANCH   7   8
ENDBRANCH   1   7
TORSDOF 4
ENDMDL
MODEL 5
REMARK VINA RESULT:      -4.7      3.902      5.161
REMARK  4 active torsions:
REMARK  status: ('A' for Active; 'I' for Inactive)
REMARK    1  A    between atoms: O_1  and  C_2 
REMARK    2  A    between atoms: C_2  and  C_4 
REMARK    3  A    between atoms: C_4  and  C_5 
REMARK    4  A    between atoms: C_5  and  C_6 
ROOT
HETATM    1  C   UNK N   1      28.164  18.911   5.957  0.00  0.00    -0.014 C 
HETATM    2  C   UNK N   1      27.433  18.423   4.708  0.00  0.00     0.004 C 
HETATM    3  C   UNK N   1      27.209  19.576   3.730  0.00  0.00     0.000 C 
HETATM    4  C   UNK N   1      26.433  20.706   4.402  0.00  0.00     0.000 C 
HETATM    5  C   UNK N   1      27.175  21.188   5.644  0.00  0.00     0.000 C 
HETATM    6  C   UNK N   1      27.356  20.030   6.619  0.00  0.00     0.004 C 
ENDROOT
BRANCH   1   7
HETATM    7  C   UNK N   1      28.372  17.733   6.903  0.00  0.00     0.015 C 
BRANCH   7   8
HETATM    8  C   UNK N   1      29.424  18.038   7.966  0.00  0.00     0.110 C 
BRANCH   8   9
HETATM    9  C   UNK N   1      28.837  18.293   9.322  0.00  0.00     0.139 C 
HETATM   10  O   UNK N   1      29.526  18.710  10.239  0.00  0.00    -0.650 OA
BRANCH   9  11
HETATM   11  O   UNK N   1      27.525  18.069   9.524  0.00  0.00    -0.776 OA
HETATM   12  H   UNK N   1      27.134  17.271   9.228  0.00  0.00     0.167 HD
ENDBRANCH   9  11
ENDBRANCH   8   9
ENDBRANCH   7   8
ENDBRANCH   1   7
TORSDOF 4
ENDMDL
MODEL 6
REMARK VINA RESULT:      -4.6      9.986     11.084
REMARK  4 active torsions:
REMARK  status: ('A' for Active; 'I' for Inactive)
REMARK    1  A    between atoms: O_1  and  C_2 
REMARK    2  A    between atoms: C_2  and  C_4 
REMARK    3  A    between atoms: C_4  and  C_5 
REMARK    4  A    between atoms: C_5  and  C_6 
ROOT
HETATM    1  C   UNK N   1      35.676  12.507  16.779  0.00  0.00    -0.014 C 
HETATM    2  C   UNK N   1      34.928  13.239  17.891  0.00  0.00     0.004 C 
HETATM    3  C   UNK N   1      35.398  12.758  19.263  0.00  0.00     0.000 C 
HETATM    4  C   UNK N   1      35.214  11.247  19.394  0.00  0.00     0.000 C 
HETATM    5  C   UNK N   1      35.970  10.527  18.282  0.00  0.00     0.000 C 
HETATM    6  C   UNK N   1      35.462  10.998  16.924  0.00  0.00     0.004 C 
ENDROOT
BRANCH   1   7
HETATM    7  C   UNK N   1      35.184  13.017  15.430  0.00  0.00     0.015 C 
BRANCH   7   8
HETATM    8  C   UNK N   1      36.271  13.787  14.683  0.00  0.00     0.110 C 
BRANCH   8   9
HETATM    9  C   UNK N   1      36.022  13.879  13.207  0.00  0.00     0.139 C 
HETATM   10  O   UNK N   1      34.886  13.920  12.762  0.00  0.00    -0.650 OA
BRANCH   9  11
HETATM   11  O   UNK N   1      37.070  13.933  12.364  0.00  0.00    -0.776 OA
HETATM   12  H   UNK N   1      37.064  14.535  11.647  0.00  0.00     0.167 HD
ENDBRANCH   9  11
ENDBRANCH   8   9
ENDBRANCH   7   8
ENDBRANCH   1   7
TORSDOF 4
ENDMDL
MODEL 7
REMARK VINA RESULT:      -4.6     10.438     11.878
REMARK  4 active torsions:
REMARK  status: ('A' for Active; 'I' for Inactive)
REMARK    1  A    between atoms: O_1  and  C_2 
REMARK    2  A    between atoms: C_2  and  C_4 
REMARK    3  A    between atoms: C_4  and  C_5 
REMARK    4  A    between atoms: C_5  and  C_6 
ROOT
HETATM    1  C   UNK N   1      21.543  13.913   9.785  0.00  0.00    -0.014 C 
HETATM    2  C   UNK N   1      21.087  12.709  10.607  0.00  0.00     0.004 C 
HETATM    3  C   UNK N   1      22.291  11.952  11.168  0.00  0.00     0.000 C 
HETATM    4  C   UNK N   1      23.221  11.513  10.040  0.00  0.00     0.000 C 
HETATM    5  C   UNK N   1      23.675  12.724   9.231  0.00  0.00     0.000 C 
HETATM    6  C   UNK N   1      22.461  13.443   8.653  0.00  0.00     0.004 C 
ENDROOT
BRANCH   1   7
HETATM    7  C   UNK N   1      20.317  14.642   9.249  0.00  0.00     0.015 C 
BRANCH   7   8
HETATM    8  C   UNK N   1      20.689  15.970   8.593  0.00  0.00     0.110 C 
BRANCH   8   9
HETATM    9  C   UNK N   1      19.590  16.989   8.661  0.00  0.00     0.139 C 
HETATM   10  O   UNK N   1      19.827  18.154   8.935  0.00  0.00    -0.650 OA
BRANCH   9  11
HETATM   11  O   UNK N   1      18.324  16.611   8.401  0.00  0.00    -0.776 OA
HETATM   12  H   UNK N   1      17.835  16.136   9.043  0.00  0.00     0.167 HD
ENDBRANCH   9  11
ENDBRANCH   8   9
ENDBRANCH   7   8
ENDBRANCH   1   7
TORSDOF 4
ENDMDL
MODEL 8
REMARK VINA RESULT:      -4.5      7.111      8.518
REMARK  4 active torsions:
REMARK  status: ('A' for Active; 'I' for Inactive)
REMARK    1  A    between atoms: O_1  and  C_2 
REMARK    2  A    between atoms: C_2  and  C_4 
REMARK    3  A    between atoms: C_4  and  C_5 
REMARK    4  A    between atoms: C_5  and  C_6 
ROOT
HETATM    1  C   UNK N   1      35.333  13.605  13.759  0.00  0.00    -0.014 C 
HETATM    2  C   UNK N   1      34.865  12.180  13.470  0.00  0.00     0.004 C 
HETATM    3  C   UNK N   1      34.131  11.599  14.678  0.00  0.00     0.000 C 
HETATM    4  C   UNK N   1      35.025  11.633  15.916  0.00  0.00     0.000 C 
HETATM    5  C   UNK N   1      35.479  13.061  16.197  0.00  0.00     0.000 C 
HETATM    6  C   UNK N   1      36.238  13.608  14.993  0.00  0.00     0.004 C 
ENDROOT
BRANCH   1   7
HETATM    7  C   UNK N   1      36.054  14.150  12.532  0.00  0.00     0.015 C 
BRANCH   7   8
HETATM    8  C   UNK N   1      35.202  15.169  11.779  0.00  0.00     0.110 C 
BRANCH   8   9
HETATM    9  C   UNK N   1      36.015  16.123  10.954  0.00  0.00     0.139 C 
HETATM   10  O   UNK N   1      35.536  17.169  10.545  0.00  0.00    -0.650 OA
BRANCH   9  11
HETATM   11  O   UNK N   1      37.297  15.825  10.675  0.00  0.00    -0.776 OA
HETATM   12  H   UNK N   1      37.503  15.282   9.939  0.00  0.00     0.167 HD
ENDBRANCH   9  11
ENDBRANCH   8   9
ENDBRANCH   7   8
ENDBRANCH   1   7
TORSDOF 4
ENDMDL
MODEL 9
REMARK VINA RESULT:      -4.5     15.841     16.974
REMARK  4 active torsions:
REMARK  status: ('A' for Active; 'I' for Inactive)
REMARK    1  A    between atoms: O_1  and  C_2 
REMARK    2  A    between atoms: C_2  and  C_4 
REMARK    3  A    between atoms: C_4  and  C_5 
REMARK    4  A    between atoms: C_5  and  C_6 
ROOT
HETATM    1  C   UNK N   1      25.611  24.866  -5.181  0.00  0.00    -0.014 C 
HETATM    2  C   UNK N   1      26.647  25.357  -4.172  0.00  0.00     0.004 C 
HETATM    3  C   UNK N   1      26.180  26.653  -3.509  0.00  0.00     0.000 C 
HETATM    4  C   UNK N   1      25.902  27.724  -4.562  0.00  0.00     0.000 C 
HETATM    5  C   UNK N   1      24.862  27.224  -5.559  0.00  0.00     0.000 C 
HETATM    6  C   UNK N   1      25.364  25.951  -6.233  0.00  0.00     0.004 C 
ENDROOT
BRANCH   1   7
HETATM    7  C   UNK N   1      26.110  23.573  -5.816  0.00  0.00     0.015 C 
BRANCH   7   8
HETATM    8  C   UNK N   1      25.908  23.568  -7.329  0.00  0.00     0.110 C 
BRANCH   8   9
HETATM    9  C   UNK N   1      25.253  22.316  -7.833  0.00  0.00     0.139 C 
HETATM   10  O   UNK N   1      24.079  22.308  -8.165  0.00  0.00    -0.650 OA
BRANCH   9  11
HETATM   11  O   UNK N   1      25.981  21.188  -7.934  0.00  0.00    -0.776 OA
HETATM   12  H   UNK N   1      26.893  21.235  -8.142  0.00  0.00     0.167 HD
ENDBRANCH   9  11
ENDBRANCH   8   9
ENDBRANCH   7   8
ENDBRANCH   1   7
TORSDOF 4
ENDMDL
