REMARK  2 active torsions:
REMARK  status: ('A' for Active; 'I' for Inactive)
REMARK    1  A    between atoms: N_1  and  C_2 
REMARK    2  A    between atoms: C_2  and  C_4 
REMARK       I    between atoms: C_4  and  N_5 
ROOT
HETATM    1  C   UNK N   1       1.712   1.003   0.000  0.00  0.00     0.084 C 
HETATM    2  C   UNK N   1       3.033   0.823  -0.000  0.00  0.00     0.048 C 
ENDROOT
BRANCH   1   3
HETATM    3  N   UNK N   1       1.195   2.318   0.000  0.00  0.00    -0.395 N 
HETATM    4  H   UNK N   1       1.808   3.088   0.000  0.00  0.00     0.156 HD
HETATM    5  H   UNK N   1       0.221   2.464   0.000  0.00  0.00     0.156 HD
ENDBRANCH   1   3
BRANCH   1   6
HETATM    6  C   UNK N   1       0.788  -0.152   0.000  0.00  0.00     0.264 C 
HETATM    7  N   UNK N   1       1.263  -1.415  -0.000  0.00  0.00    -0.365 N 
HETATM    8  H   UNK N   1       0.639  -2.176  -0.000  0.00  0.00     0.159 HD
HETATM    9  H   UNK N   1       2.234  -1.575  -0.000  0.00  0.00     0.159 HD
HETATM   10  O   UNK N   1      -0.419   0.036   0.000  0.00  0.00    -0.266 OA
ENDBRANCH   1   6
TORSDOF 2
