REMARK  6 active torsions:
REMARK  status: ('A' for Active; 'I' for Inactive)
REMARK    1  A    between atoms: N_1  and  C_2 
REMARK    2  A    between atoms: C_2  and  C_5 
REMARK    3  A    between atoms: C_8  and  C_9 
REMARK    4  A    between atoms: C_9  and  C_10 
REMARK    5  A    between atoms: C_10  and  C_12 
REMARK    6  A    between atoms: C_12  and  O_13 
ROOT
HETATM    1  C   UNK N   1       1.210  -1.300   0.000  0.00  0.00     0.007 A 
HETATM    2  C   UNK N   1      -0.025  -0.645  -0.000  0.00  0.00     0.016 A 
HETATM    3  C   UNK N   1      -0.082   0.743  -0.000  0.00  0.00     0.008 A 
HETATM    4  C   UNK N   1       1.091   1.508  -0.000  0.00  0.00    -0.051 A 
HETATM    5  C   UNK N   1       2.330   0.856   0.000  0.00  0.00     0.008 A 
HETATM    6  C   UNK N   1       2.391  -0.542   0.000  0.00  0.00     0.016 A 
ENDROOT
BRANCH   1   7
HETATM    7  C   UNK N   1       1.260  -2.775   0.000  0.00  0.00     0.102 C 
HETATM    8  N   UNK N   1       0.174  -3.459  -0.000  0.00  0.00    -0.385 N 
HETATM    9  H   UNK N   1      -0.697  -2.999  -0.000  0.00  0.00     0.157 HD
ATOM     10  HN  UNK N   1       0.213  -4.478  -0.000  1.00  0.00     0.157 HD
BRANCH   7  11
HETATM   11  N   UNK N   1       2.502  -3.447   0.000  0.00  0.00    -0.385 N 
HETATM   12  H   UNK N   1       2.530  -4.431   0.000  0.00  0.00     0.157 HD
HETATM   13  H   UNK N   1       3.341  -2.931   0.000  0.00  0.00     0.157 HD
ENDBRANCH   7  11
ENDBRANCH   1   7
BRANCH   4  14
HETATM   14  C   UNK N   1       1.066   3.015  -0.000  0.00  0.00     0.129 C 
BRANCH  14  15
HETATM   15  C   UNK N   1      -0.280   3.716  -0.000  0.00  0.00     0.226 C 
HETATM   16  O   UNK N   1      -1.328   3.089   0.000  0.00  0.00    -0.286 OA
BRANCH  15  17
HETATM   17  C   UNK N   1      -0.329   5.185   0.000  0.00  0.00     0.213 C 
HETATM   18  O   UNK N   1       0.700   5.838  -0.000  0.00  0.00    -0.644 OA
BRANCH  17  19
HETATM   19  O   UNK N   1      -1.520   5.817   0.000  0.00  0.00    -0.771 OA
HETATM   20  H   UNK N   1      -1.554   6.753   0.000  0.00  0.00     0.167 HD
ENDBRANCH  17  19
ENDBRANCH  15  17
ENDBRANCH  14  15
ENDBRANCH   4  14
TORSDOF 6
