REMARK  17 active torsions:
REMARK  status: ('A' for Active; 'I' for Inactive)
REMARK       I    between atoms: C_2  and  N_4 
REMARK    1  A    between atoms: C_5  and  N_4 
REMARK    2  A    between atoms: C_6  and  O_7 
REMARK    3  A    between atoms: C_8  and  O_9 
REMARK    4  A    between atoms: C_10  and  C_11 
REMARK    5  A    between atoms: C_11  and  O_12 
REMARK    6  A    between atoms: C_14  and  O_15 
REMARK    7  A    between atoms: P_16  and  O_15 
REMARK    8  A    between atoms: P_16  and  O_17 
REMARK    9  A    between atoms: P_16  and  O_19 
REMARK   10  A    between atoms: P_20  and  O_19 
REMARK   11  A    between atoms: P_20  and  O_21 
REMARK   12  A    between atoms: P_20  and  O_23 
REMARK   13  A    between atoms: O_23  and  C_24 
REMARK   14  A    between atoms: C_25  and  C_24 
REMARK   15  A    between atoms: C_27  and  N_32 
REMARK   16  A    between atoms: C_28  and  O_29 
REMARK   17  A    between atoms: C_30  and  O_31 
ROOT
HETATM    1  O   UNK N   1      -0.885   1.910  -0.704  0.00  0.00    -0.195 OA
ENDROOT
BRANCH   1   2
HETATM    2  P   UNK N   1      -2.021   0.597  -0.641  0.00  0.00     0.404 P 
HETATM    3  O   UNK N   1      -3.171   0.985  -1.602  0.00  0.00    -0.631 OA
BRANCH   2   4
HETATM    4  O   UNK N   1      -2.611   0.337   0.990  0.00  0.00    -0.263 OA
BRANCH   4   5
HETATM    5  C   UNK N   1      -3.931   0.797   1.140  0.00  0.00     0.297 C 
HETATM    6  O   UNK N   1      -4.087   2.177   1.385  0.00  0.00    -0.348 OA
HETATM    7  C   UNK N   1      -4.431   2.786   0.164  0.00  0.00     0.179 C 
HETATM    8  C   UNK N   1      -5.831   2.351  -0.277  0.00  0.00     0.180 C 
HETATM    9  C   UNK N   1      -5.752   0.856  -0.603  0.00  0.00     0.177 C 
HETATM   10  C   UNK N   1      -5.110   0.022   0.513  0.00  0.00     0.171 C 
BRANCH   7  11
HETATM   11  C   UNK N   1      -4.275   4.292   0.248  0.00  0.00     0.198 C 
BRANCH  11  12
HETATM   12  O   UNK N   1      -2.920   4.609   0.361  0.00  0.00    -0.398 OA
HETATM   13  H   UNK N   1      -2.258   3.905   0.439  0.00  0.00     0.209 HD
ENDBRANCH  11  12
ENDBRANCH   7  11
BRANCH   8  14
HETATM   14  O   UNK N   1      -6.762   2.597   0.736  0.00  0.00    -0.390 OA
HETATM   15  H   UNK N   1      -6.937   3.241   1.440  0.00  0.00     0.210 HD
ENDBRANCH   8  14
BRANCH   9  16
HETATM   16  O   UNK N   1      -6.997   0.341  -0.962  0.00  0.00    -0.391 OA
HETATM   17  H   UNK N   1      -7.740   0.912  -1.212  0.00  0.00     0.210 HD
ENDBRANCH   9  16
BRANCH  10  18
HETATM   18  N   UNK N   1      -4.616  -1.216  -0.050  0.00  0.00    -0.349 N 
HETATM   19  C   UNK N   1      -5.006  -2.439   0.371  0.00  0.00     0.214 C 
HETATM   20  C   UNK N   1      -4.405  -3.650  -0.254  0.00  0.00     0.117 C 
HETATM   21  O   UNK N   1      -5.834  -2.561   1.259  0.00  0.00    -0.274 OA
HETATM   22  H   UNK N   1      -3.959  -1.164  -0.781  0.00  0.00     0.163 HD
ENDBRANCH  10  18
ENDBRANCH   4   5
ENDBRANCH   2   4
BRANCH   2  23
HETATM   23  O   UNK N   1      -1.389  -0.881  -1.296  0.00  0.00    -0.307 OA
HETATM   24  H   UNK N   1      -1.927  -1.599  -1.663  0.00  0.00     0.222 HD
ENDBRANCH   2  23
ENDBRANCH   1   2
BRANCH   1  25
HETATM   25  P   UNK N   1       0.577   1.280  -0.026  0.00  0.00     0.401 P 
HETATM   26  O   UNK N   1       1.660   2.386  -0.162  0.00  0.00    -0.631 OA
BRANCH  25  27
HETATM   27  O   UNK N   1       0.412   0.952   1.670  0.00  0.00    -0.307 OA
HETATM   28  H   UNK N   1       0.208   0.940   2.618  0.00  0.00     0.222 HD
ENDBRANCH  25  27
BRANCH  25  29
HETATM   29  O   UNK N   1       1.086  -0.157  -0.868  0.00  0.00    -0.294 OA
BRANCH  29  30
HETATM   30  C   UNK N   1       1.893   0.232  -1.935  0.00  0.00     0.215 C 
BRANCH  30  31
HETATM   31  C   UNK N   1       3.342  -0.101  -1.608  0.00  0.00     0.180 C 
HETATM   32  O   UNK N   1       3.761   0.740  -0.547  0.00  0.00    -0.353 OA
HETATM   33  C   UNK N   1       4.306  -0.090   0.449  0.00  0.00     0.263 C 
HETATM   34  C   UNK N   1       3.612  -1.430   0.296  0.00  0.00     0.198 C 
HETATM   35  C   UNK N   1       3.559  -1.561  -1.185  0.00  0.00     0.182 C 
BRANCH  33  36
HETATM   36  N   UNK N   1       5.776   0.012   0.349  0.00  0.00    -0.280 N 
HETATM   37  C   UNK N   1       6.296   1.181   0.818  0.00  0.00     0.104 A 
HETATM   38  C   UNK N   1       7.652   1.465   0.714  0.00  0.00     0.092 A 
HETATM   39  C   UNK N   1       8.481   0.536   0.106  0.00  0.00     0.250 A 
HETATM   40  O   UNK N   1       9.669   0.770  -0.018  0.00  0.00    -0.268 OA
HETATM   41  N   UNK N   1       7.962  -0.636  -0.362  0.00  0.00    -0.275 N 
HETATM   42  C   UNK N   1       6.625  -0.913  -0.251  0.00  0.00     0.331 A 
HETATM   43  H   UNK N   1       8.559  -1.295  -0.786  0.00  0.00     0.173 HD
HETATM   44  O   UNK N   1       6.206  -1.955  -0.713  0.00  0.00    -0.246 OA
ENDBRANCH  33  36
BRANCH  34  45
HETATM   45  O   UNK N   1       4.246  -2.488   0.948  0.00  0.00    -0.388 OA
HETATM   46  H   UNK N   1       3.829  -3.238   1.402  0.00  0.00     0.210 HD
ENDBRANCH  34  45
BRANCH  35  47
HETATM   47  O   UNK N   1       2.541  -2.430  -1.590  0.00  0.00    -0.390 OA
HETATM   48  H   UNK N   1       1.666  -2.120  -1.872  0.00  0.00     0.210 HD
ENDBRANCH  35  47
ENDBRANCH  30  31
ENDBRANCH  29  30
ENDBRANCH  25  29
ENDBRANCH   1  25
TORSDOF 17
