MODEL 1
REMARK VINA RESULT:      -7.3      0.000      0.000
REMARK  28 active torsions:
REMARK  status: ('A' for Active; 'I' for Inactive)
REMARK    1  A    between atoms: C_1  and  O_7 
REMARK    2  A    between atoms: C_2  and  O_8 
REMARK    3  A    between atoms: C_4  and  O_9 
REMARK    4  A    between atoms: C_5  and  C_11 
REMARK    5  A    between atoms: C_6  and  O_10 
REMARK    6  A    between atoms: C_18  and  O_7 
REMARK    7  A    between atoms: O_12  and  C_11 
REMARK    8  A    between atoms: C_13  and  O_19 
REMARK    9  A    between atoms: C_14  and  O_20 
REMARK   10  A    between atoms: C_16  and  O_21 
REMARK   11  A    between atoms: C_17  and  C_22 
REMARK   12  A    between atoms: C_29  and  O_19 
REMARK   13  A    between atoms: O_23  and  C_22 
REMARK   14  A    between atoms: C_24  and  O_30 
REMARK   15  A    between atoms: C_25  and  O_31 
REMARK   16  A    between atoms: C_27  and  O_32 
REMARK   17  A    between atoms: C_28  and  C_33 
REMARK   18  A    between atoms: C_37  and  O_30 
REMARK   19  A    between atoms: O_34  and  C_33 
REMARK   20  A    between atoms: C_36  and  C_35 
REMARK   21  A    between atoms: C_40  and  C_35 
REMARK   22  A    between atoms: C_35  and  O_45 
REMARK   23  A    between atoms: C_37  and  C_36 
REMARK   24  A    between atoms: C_36  and  O_41 
REMARK   25  A    between atoms: C_38  and  C_37 
REMARK   26  A    between atoms: C_39  and  C_38 
REMARK   27  A    between atoms: C_38  and  O_42 
REMARK   28  A    between atoms: O_43  and  C_39 
ROOT
HETATM    1  O   UNK N   1      27.502  16.374   6.008  0.00  0.00    -0.348 OA
ENDROOT
BRANCH   1   2
HETATM    2  C   UNK N   1      27.970  17.400   6.841  0.00  0.00     0.292 C 
HETATM    3  C   UNK N   1      28.159  16.984   8.305  0.00  0.00     0.204 C 
HETATM    4  C   UNK N   1      29.521  17.386   8.831  0.00  0.00     0.183 C 
HETATM    5  C   UNK N   1      30.531  16.934   7.793  0.00  0.00     0.187 C 
HETATM    6  C   UNK N   1      30.304  17.740   6.505  0.00  0.00     0.180 C 
HETATM    7  O   UNK N   1      28.981  18.199   6.251  0.00  0.00    -0.348 OA
BRANCH   3   8
HETATM    8  O   UNK N   1      27.156  17.547   9.094  0.00  0.00    -0.388 OA
HETATM    9  H   UNK N   1      27.083  17.776  10.033  0.00  0.00     0.210 HD
ENDBRANCH   3   8
BRANCH   4  10
HETATM   10  O   UNK N   1      29.746  16.745  10.051  0.00  0.00    -0.390 OA
HETATM   11  H   UNK N   1      29.141  16.063  10.382  0.00  0.00     0.210 HD
ENDBRANCH   4  10
BRANCH   5  12
HETATM   12  O   UNK N   1      31.839  17.143   8.245  0.00  0.00    -0.348 OA
BRANCH  12  13
HETATM   13  C   UNK N   1      32.508  15.932   8.017  0.00  0.00     0.292 C 
HETATM   14  C   UNK N   1      32.603  15.105   9.309  0.00  0.00     0.204 C 
HETATM   15  C   UNK N   1      33.936  15.322  10.026  0.00  0.00     0.183 C 
HETATM   16  C   UNK N   1      34.412  16.743   9.785  0.00  0.00     0.180 C 
HETATM   17  C   UNK N   1      34.630  16.931   8.267  0.00  0.00     0.179 C 
HETATM   18  O   UNK N   1      33.777  16.152   7.428  0.00  0.00    -0.348 OA
BRANCH  14  19
HETATM   19  O   UNK N   1      32.448  13.747   9.030  0.00  0.00    -0.388 OA
HETATM   20  H   UNK N   1      31.767  13.142   8.698  0.00  0.00     0.210 HD
ENDBRANCH  14  19
BRANCH  15  21
HETATM   21  O   UNK N   1      33.785  15.065  11.389  0.00  0.00    -0.390 OA
HETATM   22  H   UNK N   1      33.589  15.646  12.141  0.00  0.00     0.210 HD
ENDBRANCH  15  21
BRANCH  16  23
HETATM   23  O   UNK N   1      35.605  16.985  10.468  0.00  0.00    -0.390 OA
HETATM   24  H   UNK N   1      35.610  17.525  11.274  0.00  0.00     0.210 HD
ENDBRANCH  16  23
BRANCH  17  25
HETATM   25  C   UNK N   1      34.601  18.398   7.856  0.00  0.00     0.198 C 
BRANCH  25  26
HETATM   26  O   UNK N   1      35.413  19.160   8.696  0.00  0.00    -0.398 OA
HETATM   27  H   UNK N   1      35.191  20.050   9.012  0.00  0.00     0.209 HD
ENDBRANCH  25  26
ENDBRANCH  17  25
ENDBRANCH  12  13
ENDBRANCH   5  12
BRANCH   6  28
HETATM   28  C   UNK N   1      30.925  17.081   5.287  0.00  0.00     0.198 C 
BRANCH  28  29
HETATM   29  O   UNK N   1      32.228  17.551   5.114  0.00  0.00    -0.398 OA
HETATM   30  H   UNK N   1      32.995  17.012   4.867  0.00  0.00     0.209 HD
ENDBRANCH  28  29
ENDBRANCH   6  28
ENDBRANCH   1   2
BRANCH   1  31
HETATM   31  C   UNK N   1      26.161  16.728   5.821  0.00  0.00     0.187 C 
HETATM   32  C   UNK N   1      25.204  15.627   6.245  0.00  0.00     0.183 C 
HETATM   33  C   UNK N   1      23.780  16.170   6.135  0.00  0.00     0.204 C 
HETATM   34  C   UNK N   1      23.523  16.844   4.762  0.00  0.00     0.292 C 
HETATM   35  O   UNK N   1      24.558  17.753   4.437  0.00  0.00    -0.348 OA
HETATM   36  C   UNK N   1      25.792  17.080   4.382  0.00  0.00     0.180 C 
BRANCH  32  37
HETATM   37  O   UNK N   1      25.455  15.231   7.560  0.00  0.00    -0.390 OA
HETATM   38  H   UNK N   1      25.889  15.842   8.177  0.00  0.00     0.210 HD
ENDBRANCH  32  37
BRANCH  33  39
HETATM   39  O   UNK N   1      22.880  15.122   6.334  0.00  0.00    -0.388 OA
HETATM   40  H   UNK N   1      22.728  14.266   5.906  0.00  0.00     0.210 HD
ENDBRANCH  33  39
BRANCH  34  41
HETATM   41  O   UNK N   1      22.333  17.596   4.835  0.00  0.00    -0.348 OA
BRANCH  41  42
HETATM   42  C   UNK N   1      21.947  17.952   3.535  0.00  0.00     0.187 C 
BRANCH  42  43
HETATM   43  C   UNK N   1      21.376  19.395   3.509  0.00  0.00     0.185 C 
BRANCH  43  44
HETATM   44  C   UNK N   1      21.883  20.268   2.346  0.00  0.00     0.210 C 
BRANCH  44  45
HETATM   45  C   UNK N   1      21.027  20.123   1.125  0.00  0.00     0.265 C 
HETATM   46  O   UNK N   1      21.188  20.854   0.155  0.00  0.00    -0.304 OA
ENDBRANCH  44  45
BRANCH  44  47
HETATM   47  O   UNK N   1      21.853  21.613   2.711  0.00  0.00    -0.386 OA
HETATM   48  H   UNK N   1      22.468  22.363   2.721  0.00  0.00     0.210 HD
ENDBRANCH  44  47
ENDBRANCH  43  44
BRANCH  43  49
HETATM   49  O   UNK N   1      19.979  19.336   3.467  0.00  0.00    -0.390 OA
HETATM   50  H   UNK N   1      19.310  19.820   2.959  0.00  0.00     0.210 HD
ENDBRANCH  43  49
ENDBRANCH  42  43
BRANCH  42  51
HETATM   51  C   UNK N   1      20.852  16.969   3.052  0.00  0.00     0.173 C 
BRANCH  51  52
HETATM   52  C   UNK N   1      20.173  16.187   4.168  0.00  0.00     0.198 C 
BRANCH  52  53
HETATM   53  O   UNK N   1      18.859  16.621   4.343  0.00  0.00    -0.398 OA
HETATM   54  H   UNK N   1      18.300  17.364   4.617  0.00  0.00     0.209 HD
ENDBRANCH  52  53
ENDBRANCH  51  52
BRANCH  51  55
HETATM   55  O   UNK N   1      21.381  16.055   2.141  0.00  0.00    -0.391 OA
HETATM   56  H   UNK N   1      21.859  15.215   2.227  0.00  0.00     0.210 HD
ENDBRANCH  51  55
ENDBRANCH  42  51
ENDBRANCH  41  42
ENDBRANCH  34  41
BRANCH  36  57
HETATM   57  C   UNK N   1      26.813  17.993   3.719  0.00  0.00     0.198 C 
BRANCH  57  58
HETATM   58  O   UNK N   1      26.878  19.212   4.395  0.00  0.00    -0.398 OA
HETATM   59  H   UNK N   1      27.583  19.678   4.872  0.00  0.00     0.209 HD
ENDBRANCH  57  58
ENDBRANCH  36  57
ENDBRANCH   1  31
TORSDOF 28
ENDMDL
MODEL 2
REMARK VINA RESULT:      -7.0      3.095      5.640
REMARK  28 active torsions:
REMARK  status: ('A' for Active; 'I' for Inactive)
REMARK    1  A    between atoms: C_1  and  O_7 
REMARK    2  A    between atoms: C_2  and  O_8 
REMARK    3  A    between atoms: C_4  and  O_9 
REMARK    4  A    between atoms: C_5  and  C_11 
REMARK    5  A    between atoms: C_6  and  O_10 
REMARK    6  A    between atoms: C_18  and  O_7 
REMARK    7  A    between atoms: O_12  and  C_11 
REMARK    8  A    between atoms: C_13  and  O_19 
REMARK    9  A    between atoms: C_14  and  O_20 
REMARK   10  A    between atoms: C_16  and  O_21 
REMARK   11  A    between atoms: C_17  and  C_22 
REMARK   12  A    between atoms: C_29  and  O_19 
REMARK   13  A    between atoms: O_23  and  C_22 
REMARK   14  A    between atoms: C_24  and  O_30 
REMARK   15  A    between atoms: C_25  and  O_31 
REMARK   16  A    between atoms: C_27  and  O_32 
REMARK   17  A    between atoms: C_28  and  C_33 
REMARK   18  A    between atoms: C_37  and  O_30 
REMARK   19  A    between atoms: O_34  and  C_33 
REMARK   20  A    between atoms: C_36  and  C_35 
REMARK   21  A    between atoms: C_40  and  C_35 
REMARK   22  A    between atoms: C_35  and  O_45 
REMARK   23  A    between atoms: C_37  and  C_36 
REMARK   24  A    between atoms: C_36  and  O_41 
REMARK   25  A    between atoms: C_38  and  C_37 
REMARK   26  A    between atoms: C_39  and  C_38 
REMARK   27  A    between atoms: C_38  and  O_42 
REMARK   28  A    between atoms: O_43  and  C_39 
ROOT
HETATM    1  O   UNK N   1      31.519  15.681   7.904  0.00  0.00    -0.348 OA
ENDROOT
BRANCH   1   2
HETATM    2  C   UNK N   1      32.801  16.216   7.712  0.00  0.00     0.292 C 
HETATM    3  C   UNK N   1      33.540  16.559   9.011  0.00  0.00     0.204 C 
HETATM    4  C   UNK N   1      34.942  15.986   9.027  0.00  0.00     0.183 C 
HETATM    5  C   UNK N   1      34.816  14.535   8.603  0.00  0.00     0.187 C 
HETATM    6  C   UNK N   1      34.341  14.489   7.144  0.00  0.00     0.180 C 
HETATM    7  O   UNK N   1      33.540  15.574   6.687  0.00  0.00    -0.348 OA
BRANCH   3   8
HETATM    8  O   UNK N   1      33.586  17.942   9.183  0.00  0.00    -0.388 OA
HETATM    9  H   UNK N   1      34.274  18.567   9.457  0.00  0.00     0.210 HD
ENDBRANCH   3   8
BRANCH   4  10
HETATM   10  O   UNK N   1      35.458  16.081  10.320  0.00  0.00    -0.390 OA
HETATM   11  H   UNK N   1      35.247  16.833  10.895  0.00  0.00     0.210 HD
ENDBRANCH   4  10
BRANCH   5  12
HETATM   12  O   UNK N   1      36.045  13.875   8.711  0.00  0.00    -0.348 OA
BRANCH  12  13
HETATM   13  C   UNK N   1      35.743  12.611   9.236  0.00  0.00     0.292 C 
HETATM   14  C   UNK N   1      34.685  12.716  10.348  0.00  0.00     0.204 C 
HETATM   15  C   UNK N   1      35.324  12.773  11.736  0.00  0.00     0.183 C 
HETATM   16  C   UNK N   1      36.663  13.482  11.646  0.00  0.00     0.180 C 
HETATM   17  C   UNK N   1      37.582  12.665  10.712  0.00  0.00     0.179 C 
HETATM   18  O   UNK N   1      36.915  11.946   9.675  0.00  0.00    -0.348 OA
BRANCH  14  19
HETATM   19  O   UNK N   1      33.810  11.633  10.290  0.00  0.00    -0.388 OA
HETATM   20  H   UNK N   1      33.101  11.236  10.820  0.00  0.00     0.210 HD
ENDBRANCH  14  19
BRANCH  15  21
HETATM   21  O   UNK N   1      34.466  13.427  12.622  0.00  0.00    -0.390 OA
HETATM   22  H   UNK N   1      33.532  13.679  12.553  0.00  0.00     0.210 HD
ENDBRANCH  15  21
BRANCH  16  23
HETATM   23  O   UNK N   1      37.247  13.591  12.909  0.00  0.00    -0.390 OA
HETATM   24  H   UNK N   1      38.016  14.165  13.048  0.00  0.00     0.210 HD
ENDBRANCH  16  23
BRANCH  17  25
HETATM   25  C   UNK N   1      38.721  13.502  10.144  0.00  0.00     0.198 C 
BRANCH  25  26
HETATM   26  O   UNK N   1      38.381  14.854  10.139  0.00  0.00    -0.398 OA
HETATM   27  H   UNK N   1      37.711  15.248   9.559  0.00  0.00     0.209 HD
ENDBRANCH  25  26
ENDBRANCH  17  25
ENDBRANCH  12  13
ENDBRANCH   5  12
BRANCH   6  28
HETATM   28  C   UNK N   1      33.753  13.143   6.762  0.00  0.00     0.198 C 
BRANCH  28  29
HETATM   29  O   UNK N   1      32.661  12.860   7.584  0.00  0.00    -0.398 OA
HETATM   30  H   UNK N   1      32.452  11.994   7.969  0.00  0.00     0.209 HD
ENDBRANCH  28  29
ENDBRANCH   6  28
ENDBRANCH   1   2
BRANCH   1  31
HETATM   31  C   UNK N   1      30.693  16.701   7.418  0.00  0.00     0.187 C 
HETATM   32  C   UNK N   1      29.759  17.252   8.483  0.00  0.00     0.183 C 
HETATM   33  C   UNK N   1      29.014  18.444   7.887  0.00  0.00     0.204 C 
HETATM   34  C   UNK N   1      28.394  18.108   6.506  0.00  0.00     0.292 C 
HETATM   35  O   UNK N   1      29.343  17.485   5.658  0.00  0.00    -0.348 OA
HETATM   36  C   UNK N   1      29.805  16.293   6.245  0.00  0.00     0.180 C 
BRANCH  32  37
HETATM   37  O   UNK N   1      30.477  17.660   9.608  0.00  0.00    -0.390 OA
HETATM   38  H   UNK N   1      30.434  17.142  10.427  0.00  0.00     0.210 HD
ENDBRANCH  32  37
BRANCH  33  39
HETATM   39  O   UNK N   1      28.017  18.845   8.778  0.00  0.00    -0.388 OA
HETATM   40  H   UNK N   1      27.052  18.918   8.730  0.00  0.00     0.210 HD
ENDBRANCH  33  39
BRANCH  34  41
HETATM   41  O   UNK N   1      28.010  19.306   5.871  0.00  0.00    -0.348 OA
BRANCH  41  42
HETATM   42  C   UNK N   1      26.710  19.150   5.368  0.00  0.00     0.187 C 
BRANCH  42  43
HETATM   43  C   UNK N   1      26.739  18.909   3.836  0.00  0.00     0.185 C 
BRANCH  43  44
HETATM   44  C   UNK N   1      25.944  17.678   3.362  0.00  0.00     0.210 C 
BRANCH  44  45
HETATM   45  C   UNK N   1      26.782  16.436   3.366  0.00  0.00     0.265 C 
HETATM   46  O   UNK N   1      26.816  15.704   4.347  0.00  0.00    -0.304 OA
ENDBRANCH  44  45
BRANCH  44  47
HETATM   47  O   UNK N   1      24.866  17.448   4.217  0.00  0.00    -0.386 OA
HETATM   48  H   UNK N   1      24.507  17.835   5.030  0.00  0.00     0.210 HD
ENDBRANCH  44  47
ENDBRANCH  43  44
BRANCH  43  49
HETATM   49  O   UNK N   1      26.261  20.049   3.181  0.00  0.00    -0.390 OA
HETATM   50  H   UNK N   1      25.398  20.285   2.807  0.00  0.00     0.210 HD
ENDBRANCH  43  49
ENDBRANCH  42  43
BRANCH  42  51
HETATM   51  C   UNK N   1      25.905  20.441   5.658  0.00  0.00     0.173 C 
BRANCH  51  52
HETATM   52  C   UNK N   1      26.462  21.286   6.795  0.00  0.00     0.198 C 
BRANCH  52  53
HETATM   53  O   UNK N   1      26.037  20.791   8.029  0.00  0.00    -0.398 OA
HETATM   54  H   UNK N   1      25.961  20.985   8.976  0.00  0.00     0.209 HD
ENDBRANCH  52  53
ENDBRANCH  51  52
BRANCH  51  55
HETATM   55  O   UNK N   1      24.577  20.135   5.955  0.00  0.00    -0.391 OA
HETATM   56  H   UNK N   1      23.875  19.652   5.490  0.00  0.00     0.210 HD
ENDBRANCH  51  55
ENDBRANCH  42  51
ENDBRANCH  41  42
ENDBRANCH  34  41
BRANCH  36  57
HETATM   57  C   UNK N   1      30.554  15.493   5.190  0.00  0.00     0.198 C 
BRANCH  57  58
HETATM   58  O   UNK N   1      31.589  16.258   4.651  0.00  0.00    -0.398 OA
HETATM   59  H   UNK N   1      32.100  17.018   4.974  0.00  0.00     0.209 HD
ENDBRANCH  57  58
ENDBRANCH  36  57
ENDBRANCH   1  31
TORSDOF 28
ENDMDL
MODEL 3
REMARK VINA RESULT:      -7.0      1.146      3.120
REMARK  28 active torsions:
REMARK  status: ('A' for Active; 'I' for Inactive)
REMARK    1  A    between atoms: C_1  and  O_7 
REMARK    2  A    between atoms: C_2  and  O_8 
REMARK    3  A    between atoms: C_4  and  O_9 
REMARK    4  A    between atoms: C_5  and  C_11 
REMARK    5  A    between atoms: C_6  and  O_10 
REMARK    6  A    between atoms: C_18  and  O_7 
REMARK    7  A    between atoms: O_12  and  C_11 
REMARK    8  A    between atoms: C_13  and  O_19 
REMARK    9  A    between atoms: C_14  and  O_20 
REMARK   10  A    between atoms: C_16  and  O_21 
REMARK   11  A    between atoms: C_17  and  C_22 
REMARK   12  A    between atoms: C_29  and  O_19 
REMARK   13  A    between atoms: O_23  and  C_22 
REMARK   14  A    between atoms: C_24  and  O_30 
REMARK   15  A    between atoms: C_25  and  O_31 
REMARK   16  A    between atoms: C_27  and  O_32 
REMARK   17  A    between atoms: C_28  and  C_33 
REMARK   18  A    between atoms: C_37  and  O_30 
REMARK   19  A    between atoms: O_34  and  C_33 
REMARK   20  A    between atoms: C_36  and  C_35 
REMARK   21  A    between atoms: C_40  and  C_35 
REMARK   22  A    between atoms: C_35  and  O_45 
REMARK   23  A    between atoms: C_37  and  C_36 
REMARK   24  A    between atoms: C_36  and  O_41 
REMARK   25  A    between atoms: C_38  and  C_37 
REMARK   26  A    between atoms: C_39  and  C_38 
REMARK   27  A    between atoms: C_38  and  O_42 
REMARK   28  A    between atoms: O_43  and  C_39 
ROOT
HETATM    1  O   UNK N   1      28.048  16.382   5.112  0.00  0.00    -0.348 OA
ENDROOT
BRANCH   1   2
HETATM    2  C   UNK N   1      28.375  17.399   6.019  0.00  0.00     0.292 C 
HETATM    3  C   UNK N   1      28.248  16.992   7.492  0.00  0.00     0.204 C 
HETATM    4  C   UNK N   1      29.489  17.349   8.283  0.00  0.00     0.183 C 
HETATM    5  C   UNK N   1      30.670  16.851   7.473  0.00  0.00     0.187 C 
HETATM    6  C   UNK N   1      30.739  17.650   6.163  0.00  0.00     0.180 C 
HETATM    7  O   UNK N   1      29.514  18.154   5.644  0.00  0.00    -0.348 OA
BRANCH   3   8
HETATM    8  O   UNK N   1      27.127  17.598   8.059  0.00  0.00    -0.388 OA
HETATM    9  H   UNK N   1      26.186  17.368   8.109  0.00  0.00     0.210 HD
ENDBRANCH   3   8
BRANCH   4  10
HETATM   10  O   UNK N   1      29.437  16.714   9.525  0.00  0.00    -0.390 OA
HETATM   11  H   UNK N   1      30.191  16.735  10.135  0.00  0.00     0.210 HD
ENDBRANCH   4  10
BRANCH   5  12
HETATM   12  O   UNK N   1      31.866  17.017   8.180  0.00  0.00    -0.348 OA
BRANCH  12  13
HETATM   13  C   UNK N   1      32.575  15.822   7.995  0.00  0.00     0.292 C 
HETATM   14  C   UNK N   1      32.648  15.017   9.304  0.00  0.00     0.204 C 
HETATM   15  C   UNK N   1      33.949  15.284  10.062  0.00  0.00     0.183 C 
HETATM   16  C   UNK N   1      34.393  16.713   9.815  0.00  0.00     0.180 C 
HETATM   17  C   UNK N   1      34.659  16.883   8.303  0.00  0.00     0.179 C 
HETATM   18  O   UNK N   1      33.858  16.068   7.447  0.00  0.00    -0.348 OA
BRANCH  14  19
HETATM   19  O   UNK N   1      32.540  13.652   9.042  0.00  0.00    -0.388 OA
HETATM   20  H   UNK N   1      31.961  13.044   8.557  0.00  0.00     0.210 HD
ENDBRANCH  14  19
BRANCH  15  21
HETATM   21  O   UNK N   1      33.757  15.044  11.424  0.00  0.00    -0.390 OA
HETATM   22  H   UNK N   1      33.985  14.288  11.988  0.00  0.00     0.210 HD
ENDBRANCH  15  21
BRANCH  16  23
HETATM   23  O   UNK N   1      35.554  16.998  10.535  0.00  0.00    -0.390 OA
HETATM   24  H   UNK N   1      36.286  16.362  10.562  0.00  0.00     0.210 HD
ENDBRANCH  16  23
BRANCH  17  25
HETATM   25  C   UNK N   1      34.605  18.342   7.866  0.00  0.00     0.198 C 
BRANCH  25  26
HETATM   26  O   UNK N   1      35.434  19.126   8.668  0.00  0.00    -0.398 OA
HETATM   27  H   UNK N   1      35.919  18.796   9.441  0.00  0.00     0.209 HD
ENDBRANCH  25  26
ENDBRANCH  17  25
ENDBRANCH  12  13
ENDBRANCH   5  12
BRANCH   6  28
HETATM   28  C   UNK N   1      31.569  16.957   5.098  0.00  0.00     0.198 C 
BRANCH  28  29
HETATM   29  O   UNK N   1      30.974  15.741   4.759  0.00  0.00    -0.398 OA
HETATM   30  H   UNK N   1      30.034  15.524   4.861  0.00  0.00     0.209 HD
ENDBRANCH  28  29
ENDBRANCH   6  28
ENDBRANCH   1   2
BRANCH   1  31
HETATM   31  C   UNK N   1      26.824  16.822   4.595  0.00  0.00     0.187 C 
HETATM   32  C   UNK N   1      26.781  18.328   4.401  0.00  0.00     0.183 C 
HETATM   33  C   UNK N   1      25.468  18.678   3.704  0.00  0.00     0.204 C 
HETATM   34  C   UNK N   1      24.250  18.018   4.399  0.00  0.00     0.292 C 
HETATM   35  O   UNK N   1      24.478  16.640   4.631  0.00  0.00    -0.348 OA
HETATM   36  C   UNK N   1      25.609  16.469   5.450  0.00  0.00     0.180 C 
BRANCH  32  37
HETATM   37  O   UNK N   1      27.857  18.758   3.622  0.00  0.00    -0.390 OA
HETATM   38  H   UNK N   1      28.099  19.698   3.605  0.00  0.00     0.210 HD
ENDBRANCH  32  37
BRANCH  33  39
HETATM   39  O   UNK N   1      25.321  20.066   3.688  0.00  0.00    -0.388 OA
HETATM   40  H   UNK N   1      25.046  20.728   4.341  0.00  0.00     0.210 HD
ENDBRANCH  33  39
BRANCH  34  41
HETATM   41  O   UNK N   1      23.131  18.104   3.546  0.00  0.00    -0.348 OA
BRANCH  41  42
HETATM   42  C   UNK N   1      22.039  18.583   4.284  0.00  0.00     0.187 C 
BRANCH  42  43
HETATM   43  C   UNK N   1      21.167  17.408   4.798  0.00  0.00     0.185 C 
BRANCH  43  44
HETATM   44  C   UNK N   1      20.767  17.504   6.282  0.00  0.00     0.210 C 
BRANCH  44  45
HETATM   45  C   UNK N   1      21.293  16.348   7.078  0.00  0.00     0.265 C 
HETATM   46  O   UNK N   1      22.442  15.952   6.926  0.00  0.00    -0.304 OA
ENDBRANCH  44  45
BRANCH  44  47
HETATM   47  O   UNK N   1      21.297  18.664   6.846  0.00  0.00    -0.386 OA
HETATM   48  H   UNK N   1      21.452  19.018   7.736  0.00  0.00     0.210 HD
ENDBRANCH  44  47
ENDBRANCH  43  44
BRANCH  43  49
HETATM   49  O   UNK N   1      20.012  17.314   4.014  0.00  0.00    -0.390 OA
HETATM   50  H   UNK N   1      19.192  17.831   3.977  0.00  0.00     0.210 HD
ENDBRANCH  43  49
ENDBRANCH  42  43
BRANCH  42  51
HETATM   51  C   UNK N   1      21.177  19.487   3.369  0.00  0.00     0.173 C 
BRANCH  51  52
HETATM   52  C   UNK N   1      21.972  20.293   2.352  0.00  0.00     0.198 C 
BRANCH  52  53
HETATM   53  O   UNK N   1      22.843  21.173   2.995  0.00  0.00    -0.398 OA
HETATM   54  H   UNK N   1      23.011  21.662   3.816  0.00  0.00     0.209 HD
ENDBRANCH  52  53
ENDBRANCH  51  52
BRANCH  51  55
HETATM   55  O   UNK N   1      20.419  20.376   4.131  0.00  0.00    -0.391 OA
HETATM   56  H   UNK N   1      19.495  20.671   4.104  0.00  0.00     0.210 HD
ENDBRANCH  51  55
ENDBRANCH  42  51
ENDBRANCH  41  42
ENDBRANCH  34  41
BRANCH  36  57
HETATM   57  C   UNK N   1      25.636  15.031   5.945  0.00  0.00     0.198 C 
BRANCH  57  58
HETATM   58  O   UNK N   1      25.385  14.991   7.318  0.00  0.00    -0.398 OA
HETATM   59  H   UNK N   1      25.079  14.298   7.924  0.00  0.00     0.209 HD
ENDBRANCH  57  58
ENDBRANCH  36  57
ENDBRANCH   1  31
TORSDOF 28
ENDMDL
MODEL 4
REMARK VINA RESULT:      -6.9      1.468     11.332
REMARK  28 active torsions:
REMARK  status: ('A' for Active; 'I' for Inactive)
REMARK    1  A    between atoms: C_1  and  O_7 
REMARK    2  A    between atoms: C_2  and  O_8 
REMARK    3  A    between atoms: C_4  and  O_9 
REMARK    4  A    between atoms: C_5  and  C_11 
REMARK    5  A    between atoms: C_6  and  O_10 
REMARK    6  A    between atoms: C_18  and  O_7 
REMARK    7  A    between atoms: O_12  and  C_11 
REMARK    8  A    between atoms: C_13  and  O_19 
REMARK    9  A    between atoms: C_14  and  O_20 
REMARK   10  A    between atoms: C_16  and  O_21 
REMARK   11  A    between atoms: C_17  and  C_22 
REMARK   12  A    between atoms: C_29  and  O_19 
REMARK   13  A    between atoms: O_23  and  C_22 
REMARK   14  A    between atoms: C_24  and  O_30 
REMARK   15  A    between atoms: C_25  and  O_31 
REMARK   16  A    between atoms: C_27  and  O_32 
REMARK   17  A    between atoms: C_28  and  C_33 
REMARK   18  A    between atoms: C_37  and  O_30 
REMARK   19  A    between atoms: O_34  and  C_33 
REMARK   20  A    between atoms: C_36  and  C_35 
REMARK   21  A    between atoms: C_40  and  C_35 
REMARK   22  A    between atoms: C_35  and  O_45 
REMARK   23  A    between atoms: C_37  and  C_36 
REMARK   24  A    between atoms: C_36  and  O_41 
REMARK   25  A    between atoms: C_38  and  C_37 
REMARK   26  A    between atoms: C_39  and  C_38 
REMARK   27  A    between atoms: C_38  and  O_42 
REMARK   28  A    between atoms: O_43  and  C_39 
ROOT
HETATM    1  O   UNK N   1      27.519  18.411   6.010  0.00  0.00    -0.348 OA
ENDROOT
BRANCH   1   2
HETATM    2  C   UNK N   1      26.966  17.380   5.238  0.00  0.00     0.292 C 
HETATM    3  C   UNK N   1      25.907  16.546   5.969  0.00  0.00     0.204 C 
HETATM    4  C   UNK N   1      24.645  16.396   5.147  0.00  0.00     0.183 C 
HETATM    5  C   UNK N   1      24.288  17.786   4.655  0.00  0.00     0.187 C 
HETATM    6  C   UNK N   1      25.384  18.262   3.691  0.00  0.00     0.180 C 
HETATM    7  O   UNK N   1      26.697  17.751   3.897  0.00  0.00    -0.348 OA
BRANCH   3   8
HETATM    8  O   UNK N   1      26.425  15.290   6.286  0.00  0.00    -0.388 OA
HETATM    9  H   UNK N   1      26.983  14.949   7.002  0.00  0.00     0.210 HD
ENDBRANCH   3   8
BRANCH   4  10
HETATM   10  O   UNK N   1      23.631  15.883   5.958  0.00  0.00    -0.390 OA
HETATM   11  H   UNK N   1      22.695  16.019   5.743  0.00  0.00     0.210 HD
ENDBRANCH   4  10
BRANCH   5  12
HETATM   12  O   UNK N   1      23.057  17.779   3.989  0.00  0.00    -0.348 OA
BRANCH  12  13
HETATM   13  C   UNK N   1      22.101  18.068   4.972  0.00  0.00     0.292 C 
HETATM   14  C   UNK N   1      21.033  16.964   5.042  0.00  0.00     0.204 C 
HETATM   15  C   UNK N   1      19.799  17.315   4.211  0.00  0.00     0.183 C 
HETATM   16  C   UNK N   1      20.218  18.138   3.007  0.00  0.00     0.180 C 
HETATM   17  C   UNK N   1      20.860  19.447   3.515  0.00  0.00     0.179 C 
HETATM   18  O   UNK N   1      21.532  19.350   4.771  0.00  0.00    -0.348 OA
BRANCH  14  19
HETATM   19  O   UNK N   1      20.649  16.742   6.364  0.00  0.00    -0.388 OA
HETATM   20  H   UNK N   1      20.989  16.893   7.260  0.00  0.00     0.210 HD
ENDBRANCH  14  19
BRANCH  15  21
HETATM   21  O   UNK N   1      19.147  16.144   3.820  0.00  0.00    -0.390 OA
HETATM   22  H   UNK N   1      18.369  15.990   3.260  0.00  0.00     0.210 HD
ENDBRANCH  15  21
BRANCH  16  23
HETATM   23  O   UNK N   1      19.115  18.431   2.204  0.00  0.00    -0.390 OA
HETATM   24  H   UNK N   1      18.417  17.772   2.065  0.00  0.00     0.210 HD
ENDBRANCH  16  23
BRANCH  17  25
HETATM   25  C   UNK N   1      21.759  20.095   2.469  0.00  0.00     0.198 C 
BRANCH  25  26
HETATM   26  O   UNK N   1      22.104  21.391   2.853  0.00  0.00    -0.398 OA
HETATM   27  H   UNK N   1      21.562  21.955   3.426  0.00  0.00     0.209 HD
ENDBRANCH  25  26
ENDBRANCH  17  25
ENDBRANCH  12  13
ENDBRANCH   5  12
BRANCH   6  28
HETATM   28  C   UNK N   1      25.380  19.767   3.497  0.00  0.00     0.198 C 
BRANCH  28  29
HETATM   29  O   UNK N   1      24.578  20.362   4.472  0.00  0.00    -0.398 OA
HETATM   30  H   UNK N   1      23.644  20.600   4.368  0.00  0.00     0.209 HD
ENDBRANCH  28  29
ENDBRANCH   6  28
ENDBRANCH   1   2
BRANCH   1  31
HETATM   31  C   UNK N   1      28.501  17.740   6.749  0.00  0.00     0.187 C 
HETATM   32  C   UNK N   1      28.636  18.279   8.163  0.00  0.00     0.183 C 
HETATM   33  C   UNK N   1      29.622  17.388   8.916  0.00  0.00     0.204 C 
HETATM   34  C   UNK N   1      30.930  17.165   8.114  0.00  0.00     0.292 C 
HETATM   35  O   UNK N   1      30.652  16.788   6.777  0.00  0.00    -0.348 OA
HETATM   36  C   UNK N   1      29.900  17.790   6.139  0.00  0.00     0.180 C 
BRANCH  32  37
HETATM   37  O   UNK N   1      27.402  18.272   8.816  0.00  0.00    -0.390 OA
HETATM   38  H   UNK N   1      26.618  18.636   8.376  0.00  0.00     0.210 HD
ENDBRANCH  32  37
BRANCH  33  39
HETATM   39  O   UNK N   1      29.907  17.973  10.150  0.00  0.00    -0.388 OA
HETATM   40  H   UNK N   1      30.448  17.720  10.914  0.00  0.00     0.210 HD
ENDBRANCH  33  39
BRANCH  34  41
HETATM   41  O   UNK N   1      31.649  16.100   8.693  0.00  0.00    -0.348 OA
BRANCH  41  42
HETATM   42  C   UNK N   1      32.988  16.188   8.286  0.00  0.00     0.187 C 
BRANCH  42  43
HETATM   43  C   UNK N   1      33.800  14.973   8.806  0.00  0.00     0.185 C 
BRANCH  43  44
HETATM   44  C   UNK N   1      33.193  13.599   8.466  0.00  0.00     0.210 C 
BRANCH  44  45
HETATM   45  C   UNK N   1      34.197  12.495   8.605  0.00  0.00     0.265 C 
HETATM   46  O   UNK N   1      34.894  12.157   7.656  0.00  0.00    -0.304 OA
ENDBRANCH  44  45
BRANCH  44  47
HETATM   47  O   UNK N   1      32.144  13.312   9.339  0.00  0.00    -0.386 OA
HETATM   48  H   UNK N   1      31.906  12.604   9.959  0.00  0.00     0.210 HD
ENDBRANCH  44  47
ENDBRANCH  43  44
BRANCH  43  49
HETATM   49  O   UNK N   1      35.103  15.040   8.300  0.00  0.00    -0.390 OA
HETATM   50  H   UNK N   1      35.598  14.495   7.669  0.00  0.00     0.210 HD
ENDBRANCH  43  49
ENDBRANCH  42  43
BRANCH  42  51
HETATM   51  C   UNK N   1      33.601  17.487   8.864  0.00  0.00     0.173 C 
BRANCH  51  52
HETATM   52  C   UNK N   1      34.422  18.292   7.866  0.00  0.00     0.198 C 
BRANCH  52  53
HETATM   53  O   UNK N   1      35.257  19.191   8.529  0.00  0.00    -0.398 OA
HETATM   54  H   UNK N   1      35.658  20.073   8.493  0.00  0.00     0.209 HD
ENDBRANCH  52  53
ENDBRANCH  51  52
BRANCH  51  55
HETATM   55  O   UNK N   1      34.413  17.200   9.962  0.00  0.00    -0.391 OA
HETATM   56  H   UNK N   1      35.019  16.475  10.183  0.00  0.00     0.210 HD
ENDBRANCH  51  55
ENDBRANCH  42  51
ENDBRANCH  41  42
ENDBRANCH  34  41
BRANCH  36  57
HETATM   57  C   UNK N   1      29.900  17.518   4.643  0.00  0.00     0.198 C 
BRANCH  57  58
HETATM   58  O   UNK N   1      31.095  17.962   4.073  0.00  0.00    -0.398 OA
HETATM   59  H   UNK N   1      31.897  18.374   4.432  0.00  0.00     0.209 HD
ENDBRANCH  57  58
ENDBRANCH  36  57
ENDBRANCH   1  31
TORSDOF 28
ENDMDL
MODEL 5
REMARK VINA RESULT:      -6.9      1.577     11.455
REMARK  28 active torsions:
REMARK  status: ('A' for Active; 'I' for Inactive)
REMARK    1  A    between atoms: C_1  and  O_7 
REMARK    2  A    between atoms: C_2  and  O_8 
REMARK    3  A    between atoms: C_4  and  O_9 
REMARK    4  A    between atoms: C_5  and  C_11 
REMARK    5  A    between atoms: C_6  and  O_10 
REMARK    6  A    between atoms: C_18  and  O_7 
REMARK    7  A    between atoms: O_12  and  C_11 
REMARK    8  A    between atoms: C_13  and  O_19 
REMARK    9  A    between atoms: C_14  and  O_20 
REMARK   10  A    between atoms: C_16  and  O_21 
REMARK   11  A    between atoms: C_17  and  C_22 
REMARK   12  A    between atoms: C_29  and  O_19 
REMARK   13  A    between atoms: O_23  and  C_22 
REMARK   14  A    between atoms: C_24  and  O_30 
REMARK   15  A    between atoms: C_25  and  O_31 
REMARK   16  A    between atoms: C_27  and  O_32 
REMARK   17  A    between atoms: C_28  and  C_33 
REMARK   18  A    between atoms: C_37  and  O_30 
REMARK   19  A    between atoms: O_34  and  C_33 
REMARK   20  A    between atoms: C_36  and  C_35 
REMARK   21  A    between atoms: C_40  and  C_35 
REMARK   22  A    between atoms: C_35  and  O_45 
REMARK   23  A    between atoms: C_37  and  C_36 
REMARK   24  A    between atoms: C_36  and  O_41 
REMARK   25  A    between atoms: C_38  and  C_37 
REMARK   26  A    between atoms: C_39  and  C_38 
REMARK   27  A    between atoms: C_38  and  O_42 
REMARK   28  A    between atoms: O_43  and  C_39 
ROOT
HETATM    1  O   UNK N   1      26.970  18.732   6.034  0.00  0.00    -0.348 OA
ENDROOT
BRANCH   1   2
HETATM    2  C   UNK N   1      26.609  17.955   4.925  0.00  0.00     0.292 C 
HETATM    3  C   UNK N   1      25.641  16.811   5.247  0.00  0.00     0.204 C 
HETATM    4  C   UNK N   1      24.456  16.794   4.305  0.00  0.00     0.183 C 
HETATM    5  C   UNK N   1      23.933  18.217   4.250  0.00  0.00     0.187 C 
HETATM    6  C   UNK N   1      25.001  19.108   3.597  0.00  0.00     0.180 C 
HETATM    7  O   UNK N   1      26.359  18.714   3.753  0.00  0.00    -0.348 OA
BRANCH   3   8
HETATM    8  O   UNK N   1      26.313  15.589   5.194  0.00  0.00    -0.388 OA
HETATM    9  H   UNK N   1      26.788  15.050   5.845  0.00  0.00     0.210 HD
ENDBRANCH   3   8
BRANCH   4  10
HETATM   10  O   UNK N   1      23.484  15.929   4.809  0.00  0.00    -0.390 OA
HETATM   11  H   UNK N   1      23.656  14.980   4.910  0.00  0.00     0.210 HD
ENDBRANCH   4  10
BRANCH   5  12
HETATM   12  O   UNK N   1      22.752  18.287   3.503  0.00  0.00    -0.348 OA
BRANCH  12  13
HETATM   13  C   UNK N   1      21.753  18.638   4.421  0.00  0.00     0.292 C 
HETATM   14  C   UNK N   1      20.848  17.435   4.736  0.00  0.00     0.204 C 
HETATM   15  C   UNK N   1      19.588  17.430   3.871  0.00  0.00     0.183 C 
HETATM   16  C   UNK N   1      19.904  18.036   2.516  0.00  0.00     0.180 C 
HETATM   17  C   UNK N   1      20.350  19.499   2.731  0.00  0.00     0.179 C 
HETATM   18  O   UNK N   1      21.013  19.758   3.969  0.00  0.00    -0.348 OA
BRANCH  14  19
HETATM   19  O   UNK N   1      20.482  17.440   6.081  0.00  0.00    -0.388 OA
HETATM   20  H   UNK N   1      19.684  17.550   6.622  0.00  0.00     0.210 HD
ENDBRANCH  14  19
BRANCH  15  21
HETATM   21  O   UNK N   1      19.111  16.125   3.741  0.00  0.00    -0.390 OA
HETATM   22  H   UNK N   1      19.004  15.547   2.969  0.00  0.00     0.210 HD
ENDBRANCH  15  21
BRANCH  16  23
HETATM   23  O   UNK N   1      18.781  18.001   1.688  0.00  0.00    -0.390 OA
HETATM   24  H   UNK N   1      18.748  17.399   0.928  0.00  0.00     0.210 HD
ENDBRANCH  16  23
BRANCH  17  25
HETATM   25  C   UNK N   1      21.163  20.034   1.559  0.00  0.00     0.198 C 
BRANCH  25  26
HETATM   26  O   UNK N   1      20.597  19.639   0.348  0.00  0.00    -0.398 OA
HETATM   27  H   UNK N   1      19.675  19.359   0.240  0.00  0.00     0.209 HD
ENDBRANCH  25  26
ENDBRANCH  17  25
ENDBRANCH  12  13
ENDBRANCH   5  12
BRANCH   6  28
HETATM   28  C   UNK N   1      24.794  20.582   3.895  0.00  0.00     0.198 C 
BRANCH  28  29
HETATM   29  O   UNK N   1      23.778  21.085   3.082  0.00  0.00    -0.398 OA
HETATM   30  H   UNK N   1      23.421  20.653   2.290  0.00  0.00     0.209 HD
ENDBRANCH  28  29
ENDBRANCH   6  28
ENDBRANCH   1   2
BRANCH   1  31
HETATM   31  C   UNK N   1      28.313  18.382   6.221  0.00  0.00     0.187 C 
HETATM   32  C   UNK N   1      29.031  18.106   4.912  0.00  0.00     0.183 C 
HETATM   33  C   UNK N   1      30.509  17.879   5.222  0.00  0.00     0.204 C 
HETATM   34  C   UNK N   1      30.709  16.856   6.370  0.00  0.00     0.292 C 
HETATM   35  O   UNK N   1      29.885  17.166   7.479  0.00  0.00    -0.348 OA
HETATM   36  C   UNK N   1      28.532  17.149   7.095  0.00  0.00     0.180 C 
BRANCH  32  37
HETATM   37  O   UNK N   1      28.894  19.183   4.035  0.00  0.00    -0.390 OA
HETATM   38  H   UNK N   1      29.491  19.270   3.275  0.00  0.00     0.210 HD
ENDBRANCH  32  37
BRANCH  33  39
HETATM   39  O   UNK N   1      31.151  17.436   4.064  0.00  0.00    -0.388 OA
HETATM   40  H   UNK N   1      31.390  16.566   3.709  0.00  0.00     0.210 HD
ENDBRANCH  33  39
BRANCH  34  41
HETATM   41  O   UNK N   1      32.041  16.929   6.824  0.00  0.00    -0.348 OA
BRANCH  41  42
HETATM   42  C   UNK N   1      32.292  15.832   7.660  0.00  0.00     0.187 C 
BRANCH  42  43
HETATM   43  C   UNK N   1      32.739  16.306   9.068  0.00  0.00     0.185 C 
BRANCH  43  44
HETATM   44  C   UNK N   1      33.791  15.409   9.746  0.00  0.00     0.210 C 
BRANCH  44  45
HETATM   45  C   UNK N   1      35.067  16.149  10.012  0.00  0.00     0.265 C 
HETATM   46  O   UNK N   1      35.150  16.945  10.939  0.00  0.00    -0.304 OA
ENDBRANCH  44  45
BRANCH  44  47
HETATM   47  O   UNK N   1      33.314  14.960  10.977  0.00  0.00    -0.386 OA
HETATM   48  H   UNK N   1      33.545  14.275  11.625  0.00  0.00     0.210 HD
ENDBRANCH  44  47
ENDBRANCH  43  44
BRANCH  43  49
HETATM   49  O   UNK N   1      33.232  17.611   8.979  0.00  0.00    -0.390 OA
HETATM   50  H   UNK N   1      33.430  18.195   8.230  0.00  0.00     0.210 HD
ENDBRANCH  43  49
ENDBRANCH  42  43
BRANCH  42  51
HETATM   51  C   UNK N   1      33.422  14.976   7.035  0.00  0.00     0.173 C 
BRANCH  51  52
HETATM   52  C   UNK N   1      34.197  15.673   5.926  0.00  0.00     0.198 C 
BRANCH  52  53
HETATM   53  O   UNK N   1      34.837  16.812   6.413  0.00  0.00    -0.398 OA
HETATM   54  H   UNK N   1      35.180  17.688   6.180  0.00  0.00     0.209 HD
ENDBRANCH  52  53
ENDBRANCH  51  52
BRANCH  51  55
HETATM   55  O   UNK N   1      32.908  13.784   6.524  0.00  0.00    -0.391 OA
HETATM   56  H   UNK N   1      32.263  13.567   5.832  0.00  0.00     0.210 HD
ENDBRANCH  51  55
ENDBRANCH  42  51
ENDBRANCH  41  42
ENDBRANCH  34  41
BRANCH  36  57
HETATM   57  C   UNK N   1      27.672  17.156   8.349  0.00  0.00     0.198 C 
BRANCH  57  58
HETATM   58  O   UNK N   1      27.574  18.452   8.858  0.00  0.00    -0.398 OA
HETATM   59  H   UNK N   1      27.828  18.863   9.700  0.00  0.00     0.209 HD
ENDBRANCH  57  58
ENDBRANCH  36  57
ENDBRANCH   1  31
TORSDOF 28
ENDMDL
MODEL 6
REMARK VINA RESULT:      -6.9      2.063      3.534
REMARK  28 active torsions:
REMARK  status: ('A' for Active; 'I' for Inactive)
REMARK    1  A    between atoms: C_1  and  O_7 
REMARK    2  A    between atoms: C_2  and  O_8 
REMARK    3  A    between atoms: C_4  and  O_9 
REMARK    4  A    between atoms: C_5  and  C_11 
REMARK    5  A    between atoms: C_6  and  O_10 
REMARK    6  A    between atoms: C_18  and  O_7 
REMARK    7  A    between atoms: O_12  and  C_11 
REMARK    8  A    between atoms: C_13  and  O_19 
REMARK    9  A    between atoms: C_14  and  O_20 
REMARK   10  A    between atoms: C_16  and  O_21 
REMARK   11  A    between atoms: C_17  and  C_22 
REMARK   12  A    between atoms: C_29  and  O_19 
REMARK   13  A    between atoms: O_23  and  C_22 
REMARK   14  A    between atoms: C_24  and  O_30 
REMARK   15  A    between atoms: C_25  and  O_31 
REMARK   16  A    between atoms: C_27  and  O_32 
REMARK   17  A    between atoms: C_28  and  C_33 
REMARK   18  A    between atoms: C_37  and  O_30 
REMARK   19  A    between atoms: O_34  and  C_33 
REMARK   20  A    between atoms: C_36  and  C_35 
REMARK   21  A    between atoms: C_40  and  C_35 
REMARK   22  A    between atoms: C_35  and  O_45 
REMARK   23  A    between atoms: C_37  and  C_36 
REMARK   24  A    between atoms: C_36  and  O_41 
REMARK   25  A    between atoms: C_38  and  C_37 
REMARK   26  A    between atoms: C_39  and  C_38 
REMARK   27  A    between atoms: C_38  and  O_42 
REMARK   28  A    between atoms: O_43  and  C_39 
ROOT
HETATM    1  O   UNK N   1      25.367  15.628   4.548  0.00  0.00    -0.348 OA
ENDROOT
BRANCH   1   2
HETATM    2  C   UNK N   1      25.949  16.885   4.334  0.00  0.00     0.292 C 
HETATM    3  C   UNK N   1      26.132  17.718   5.608  0.00  0.00     0.204 C 
HETATM    4  C   UNK N   1      27.538  18.269   5.722  0.00  0.00     0.183 C 
HETATM    5  C   UNK N   1      28.476  17.108   5.451  0.00  0.00     0.187 C 
HETATM    6  C   UNK N   1      28.296  16.662   3.992  0.00  0.00     0.180 C 
HETATM    7  O   UNK N   1      27.017  16.869   3.402  0.00  0.00    -0.348 OA
BRANCH   3   8
HETATM    8  O   UNK N   1      25.205  18.759   5.634  0.00  0.00    -0.388 OA
HETATM    9  H   UNK N   1      24.413  18.973   5.116  0.00  0.00     0.210 HD
ENDBRANCH   3   8
BRANCH   4  10
HETATM   10  O   UNK N   1      27.729  18.769   7.011  0.00  0.00    -0.390 OA
HETATM   11  H   UNK N   1      28.163  19.622   7.162  0.00  0.00     0.210 HD
ENDBRANCH   4  10
BRANCH   5  12
HETATM   12  O   UNK N   1      29.807  17.482   5.660  0.00  0.00    -0.348 OA
BRANCH  12  13
HETATM   13  C   UNK N   1      30.293  16.599   6.633  0.00  0.00     0.292 C 
HETATM   14  C   UNK N   1      30.986  17.364   7.773  0.00  0.00     0.204 C 
HETATM   15  C   UNK N   1      32.499  17.443   7.567  0.00  0.00     0.183 C 
HETATM   16  C   UNK N   1      32.803  17.497   6.081  0.00  0.00     0.180 C 
HETATM   17  C   UNK N   1      32.282  16.195   5.432  0.00  0.00     0.179 C 
HETATM   18  O   UNK N   1      31.137  15.617   6.058  0.00  0.00    -0.348 OA
BRANCH  14  19
HETATM   19  O   UNK N   1      30.721  16.755   8.999  0.00  0.00    -0.388 OA
HETATM   20  H   UNK N   1      30.671  15.864   9.378  0.00  0.00     0.210 HD
ENDBRANCH  14  19
BRANCH  15  21
HETATM   21  O   UNK N   1      33.006  18.563   8.227  0.00  0.00    -0.390 OA
HETATM   22  H   UNK N   1      33.895  18.777   8.552  0.00  0.00     0.210 HD
ENDBRANCH  15  21
BRANCH  16  23
HETATM   23  O   UNK N   1      34.177  17.617   5.864  0.00  0.00    -0.390 OA
HETATM   24  H   UNK N   1      34.627  17.042   5.226  0.00  0.00     0.210 HD
ENDBRANCH  16  23
BRANCH  17  25
HETATM   25  C   UNK N   1      32.061  16.345   3.932  0.00  0.00     0.198 C 
BRANCH  25  26
HETATM   26  O   UNK N   1      31.886  17.687   3.593  0.00  0.00    -0.398 OA
HETATM   27  H   UNK N   1      31.043  18.162   3.654  0.00  0.00     0.209 HD
ENDBRANCH  25  26
ENDBRANCH  17  25
ENDBRANCH  12  13
ENDBRANCH   5  12
BRANCH   6  28
HETATM   28  C   UNK N   1      28.823  15.261   3.740  0.00  0.00     0.198 C 
BRANCH  28  29
HETATM   29  O   UNK N   1      28.410  14.414   4.768  0.00  0.00    -0.398 OA
HETATM   30  H   UNK N   1      28.268  13.457   4.691  0.00  0.00     0.209 HD
ENDBRANCH  28  29
ENDBRANCH   6  28
ENDBRANCH   1   2
BRANCH   1  31
HETATM   31  C   UNK N   1      24.019  15.867   4.256  0.00  0.00     0.187 C 
HETATM   32  C   UNK N   1      23.103  15.546   5.424  0.00  0.00     0.183 C 
HETATM   33  C   UNK N   1      21.687  15.977   5.049  0.00  0.00     0.204 C 
HETATM   34  C   UNK N   1      21.271  15.443   3.654  0.00  0.00     0.292 C 
HETATM   35  O   UNK N   1      22.273  15.702   2.687  0.00  0.00    -0.348 OA
HETATM   36  C   UNK N   1      23.477  15.082   3.063  0.00  0.00     0.180 C 
BRANCH  32  37
HETATM   37  O   UNK N   1      23.512  16.222   6.575  0.00  0.00    -0.390 OA
HETATM   38  H   UNK N   1      23.925  15.734   7.305  0.00  0.00     0.210 HD
ENDBRANCH  32  37
BRANCH  33  39
HETATM   39  O   UNK N   1      20.801  15.519   6.025  0.00  0.00    -0.388 OA
HETATM   40  H   UNK N   1      20.881  14.940   6.798  0.00  0.00     0.210 HD
ENDBRANCH  33  39
BRANCH  34  41
HETATM   41  O   UNK N   1      20.113  16.125   3.228  0.00  0.00    -0.348 OA
BRANCH  41  42
HETATM   42  C   UNK N   1      20.499  17.201   2.416  0.00  0.00     0.187 C 
BRANCH  42  43
HETATM   43  C   UNK N   1      20.103  18.551   3.069  0.00  0.00     0.185 C 
BRANCH  43  44
HETATM   44  C   UNK N   1      21.197  19.634   3.025  0.00  0.00     0.210 C 
BRANCH  44  45
HETATM   45  C   UNK N   1      22.526  19.103   3.469  0.00  0.00     0.265 C 
HETATM   46  O   UNK N   1      23.521  19.818   3.466  0.00  0.00    -0.304 OA
ENDBRANCH  44  45
BRANCH  44  47
HETATM   47  O   UNK N   1      21.357  20.099   1.720  0.00  0.00    -0.386 OA
HETATM   48  H   UNK N   1      21.294  19.737   0.822  0.00  0.00     0.210 HD
ENDBRANCH  44  47
ENDBRANCH  43  44
BRANCH  43  49
HETATM   49  O   UNK N   1      18.946  19.039   2.454  0.00  0.00    -0.390 OA
HETATM   50  H   UNK N   1      18.054  18.674   2.336  0.00  0.00     0.210 HD
ENDBRANCH  43  49
ENDBRANCH  42  43
BRANCH  42  51
HETATM   51  C   UNK N   1      19.784  17.076   1.048  0.00  0.00     0.173 C 
BRANCH  51  52
HETATM   52  C   UNK N   1      19.653  15.649   0.536  0.00  0.00     0.198 C 
BRANCH  52  53
HETATM   53  O   UNK N   1      20.907  15.047   0.432  0.00  0.00    -0.398 OA
HETATM   54  H   UNK N   1      21.489  14.523  -0.140  0.00  0.00     0.209 HD
ENDBRANCH  52  53
ENDBRANCH  51  52
BRANCH  51  55
HETATM   55  O   UNK N   1      20.447  17.827   0.076  0.00  0.00    -0.391 OA
HETATM   56  H   UNK N   1      20.158  18.447  -0.612  0.00  0.00     0.210 HD
ENDBRANCH  51  55
ENDBRANCH  42  51
ENDBRANCH  41  42
ENDBRANCH  34  41
BRANCH  36  57
HETATM   57  C   UNK N   1      24.423  15.096   1.872  0.00  0.00     0.198 C 
BRANCH  57  58
HETATM   58  O   UNK N   1      25.554  14.327   2.146  0.00  0.00    -0.398 OA
HETATM   59  H   UNK N   1      26.119  13.748   1.609  0.00  0.00     0.209 HD
ENDBRANCH  57  58
ENDBRANCH  36  57
ENDBRANCH   1  31
TORSDOF 28
ENDMDL
MODEL 7
REMARK VINA RESULT:      -6.8      3.427     12.111
REMARK  28 active torsions:
REMARK  status: ('A' for Active; 'I' for Inactive)
REMARK    1  A    between atoms: C_1  and  O_7 
REMARK    2  A    between atoms: C_2  and  O_8 
REMARK    3  A    between atoms: C_4  and  O_9 
REMARK    4  A    between atoms: C_5  and  C_11 
REMARK    5  A    between atoms: C_6  and  O_10 
REMARK    6  A    between atoms: C_18  and  O_7 
REMARK    7  A    between atoms: O_12  and  C_11 
REMARK    8  A    between atoms: C_13  and  O_19 
REMARK    9  A    between atoms: C_14  and  O_20 
REMARK   10  A    between atoms: C_16  and  O_21 
REMARK   11  A    between atoms: C_17  and  C_22 
REMARK   12  A    between atoms: C_29  and  O_19 
REMARK   13  A    between atoms: O_23  and  C_22 
REMARK   14  A    between atoms: C_24  and  O_30 
REMARK   15  A    between atoms: C_25  and  O_31 
REMARK   16  A    between atoms: C_27  and  O_32 
REMARK   17  A    between atoms: C_28  and  C_33 
REMARK   18  A    between atoms: C_37  and  O_30 
REMARK   19  A    between atoms: O_34  and  C_33 
REMARK   20  A    between atoms: C_36  and  C_35 
REMARK   21  A    between atoms: C_40  and  C_35 
REMARK   22  A    between atoms: C_35  and  O_45 
REMARK   23  A    between atoms: C_37  and  C_36 
REMARK   24  A    between atoms: C_36  and  O_41 
REMARK   25  A    between atoms: C_38  and  C_37 
REMARK   26  A    between atoms: C_39  and  C_38 
REMARK   27  A    between atoms: C_38  and  O_42 
REMARK   28  A    between atoms: O_43  and  C_39 
ROOT
HETATM    1  O   UNK N   1      33.416  16.102   7.311  0.00  0.00    -0.348 OA
ENDROOT
BRANCH   1   2
HETATM    2  C   UNK N   1      32.145  15.820   7.829  0.00  0.00     0.292 C 
HETATM    3  C   UNK N   1      31.272  17.059   8.060  0.00  0.00     0.204 C 
HETATM    4  C   UNK N   1      29.893  16.896   7.456  0.00  0.00     0.183 C 
HETATM    5  C   UNK N   1      30.103  16.387   6.042  0.00  0.00     0.187 C 
HETATM    6  C   UNK N   1      30.720  14.982   6.113  0.00  0.00     0.180 C 
HETATM    7  O   UNK N   1      31.529  14.685   7.245  0.00  0.00    -0.348 OA
BRANCH   3   8
HETATM    8  O   UNK N   1      31.168  17.321   9.426  0.00  0.00    -0.388 OA
HETATM    9  H   UNK N   1      31.680  17.056  10.206  0.00  0.00     0.210 HD
ENDBRANCH   3   8
BRANCH   4  10
HETATM   10  O   UNK N   1      29.250  18.135   7.445  0.00  0.00    -0.390 OA
HETATM   11  H   UNK N   1      29.748  18.963   7.519  0.00  0.00     0.210 HD
ENDBRANCH   4  10
BRANCH   5  12
HETATM   12  O   UNK N   1      28.890  16.325   5.348  0.00  0.00    -0.348 OA
BRANCH  12  13
HETATM   13  C   UNK N   1      29.006  17.262   4.312  0.00  0.00     0.292 C 
HETATM   14  C   UNK N   1      27.868  18.295   4.375  0.00  0.00     0.204 C 
HETATM   15  C   UNK N   1      26.708  17.917   3.454  0.00  0.00     0.183 C 
HETATM   16  C   UNK N   1      26.598  16.406   3.375  0.00  0.00     0.180 C 
HETATM   17  C   UNK N   1      27.909  15.856   2.769  0.00  0.00     0.179 C 
HETATM   18  O   UNK N   1      29.079  16.623   3.050  0.00  0.00    -0.348 OA
BRANCH  14  19
HETATM   19  O   UNK N   1      28.339  19.560   4.024  0.00  0.00    -0.388 OA
HETATM   20  H   UNK N   1      28.841  19.981   3.309  0.00  0.00     0.210 HD
ENDBRANCH  14  19
BRANCH  15  21
HETATM   21  O   UNK N   1      25.525  18.484   3.931  0.00  0.00    -0.390 OA
HETATM   22  H   UNK N   1      25.356  19.261   4.487  0.00  0.00     0.210 HD
ENDBRANCH  15  21
BRANCH  16  23
HETATM   23  O   UNK N   1      25.515  16.032   2.577  0.00  0.00    -0.390 OA
HETATM   24  H   UNK N   1      25.564  16.110   1.612  0.00  0.00     0.210 HD
ENDBRANCH  16  23
BRANCH  17  25
HETATM   25  C   UNK N   1      28.131  14.387   3.107  0.00  0.00     0.198 C 
BRANCH  25  26
HETATM   26  O   UNK N   1      27.360  14.014   4.208  0.00  0.00    -0.398 OA
HETATM   27  H   UNK N   1      26.428  13.751   4.159  0.00  0.00     0.209 HD
ENDBRANCH  25  26
ENDBRANCH  17  25
ENDBRANCH  12  13
ENDBRANCH   5  12
BRANCH   6  28
HETATM   28  C   UNK N   1      31.383  14.569   4.811  0.00  0.00     0.198 C 
BRANCH  28  29
HETATM   29  O   UNK N   1      32.330  15.525   4.445  0.00  0.00    -0.398 OA
HETATM   30  H   UNK N   1      32.155  16.468   4.299  0.00  0.00     0.209 HD
ENDBRANCH  28  29
ENDBRANCH   6  28
ENDBRANCH   1   2
BRANCH   1  31
HETATM   31  C   UNK N   1      34.259  15.414   8.193  0.00  0.00     0.187 C 
HETATM   32  C   UNK N   1      35.043  16.348   9.098  0.00  0.00     0.183 C 
HETATM   33  C   UNK N   1      35.811  15.496  10.106  0.00  0.00     0.204 C 
HETATM   34  C   UNK N   1      36.597  14.351   9.416  0.00  0.00     0.292 C 
HETATM   35  O   UNK N   1      35.775  13.643   8.507  0.00  0.00    -0.348 OA
HETATM   36  C   UNK N   1      35.289  14.514   7.515  0.00  0.00     0.180 C 
BRANCH  32  37
HETATM   37  O   UNK N   1      34.187  17.219   9.774  0.00  0.00    -0.390 OA
HETATM   38  H   UNK N   1      34.531  17.790  10.478  0.00  0.00     0.210 HD
ENDBRANCH  32  37
BRANCH  33  39
HETATM   39  O   UNK N   1      36.684  16.318  10.820  0.00  0.00    -0.388 OA
HETATM   40  H   UNK N   1      37.616  16.258  11.080  0.00  0.00     0.210 HD
ENDBRANCH  33  39
BRANCH  34  41
HETATM   41  O   UNK N   1      37.011  13.424  10.393  0.00  0.00    -0.348 OA
BRANCH  41  42
HETATM   42  C   UNK N   1      35.943  12.561  10.674  0.00  0.00     0.187 C 
BRANCH  42  43
HETATM   43  C   UNK N   1      35.493  12.707  12.152  0.00  0.00     0.185 C 
BRANCH  43  44
HETATM   44  C   UNK N   1      36.479  13.473  13.053  0.00  0.00     0.210 C 
BRANCH  44  45
HETATM   45  C   UNK N   1      35.876  13.807  14.384  0.00  0.00     0.265 C 
HETATM   46  O   UNK N   1      34.905  13.190  14.805  0.00  0.00    -0.304 OA
ENDBRANCH  44  45
BRANCH  44  47
HETATM   47  O   UNK N   1      37.607  12.691  13.299  0.00  0.00    -0.386 OA
HETATM   48  H   UNK N   1      38.109  12.387  14.071  0.00  0.00     0.210 HD
ENDBRANCH  44  47
ENDBRANCH  43  44
BRANCH  43  49
HETATM   49  O   UNK N   1      34.245  13.338  12.192  0.00  0.00    -0.390 OA
HETATM   50  H   UNK N   1      33.935  14.171  12.580  0.00  0.00     0.210 HD
ENDBRANCH  43  49
ENDBRANCH  42  43
BRANCH  42  51
HETATM   51  C   UNK N   1      36.402  11.102  10.431  0.00  0.00     0.173 C 
BRANCH  51  52
HETATM   52  C   UNK N   1      35.440  10.272   9.594  0.00  0.00     0.198 C 
BRANCH  52  53
HETATM   53  O   UNK N   1      35.327  10.799   8.307  0.00  0.00    -0.398 OA
HETATM   54  H   UNK N   1      35.784  11.301   7.614  0.00  0.00     0.209 HD
ENDBRANCH  52  53
ENDBRANCH  51  52
BRANCH  51  55
HETATM   55  O   UNK N   1      36.603  10.442  11.644  0.00  0.00    -0.391 OA
HETATM   56  H   UNK N   1      36.641  10.728  12.571  0.00  0.00     0.210 HD
ENDBRANCH  51  55
ENDBRANCH  42  51
ENDBRANCH  41  42
ENDBRANCH  34  41
BRANCH  36  57
HETATM   57  C   UNK N   1      34.695  13.683   6.389  0.00  0.00     0.198 C 
BRANCH  57  58
HETATM   58  O   UNK N   1      33.692  12.849   6.884  0.00  0.00    -0.398 OA
HETATM   59  H   UNK N   1      32.982  12.966   7.536  0.00  0.00     0.209 HD
ENDBRANCH  57  58
ENDBRANCH  36  57
ENDBRANCH   1  31
TORSDOF 28
ENDMDL
MODEL 8
REMARK VINA RESULT:      -6.8      4.297     12.436
REMARK  28 active torsions:
REMARK  status: ('A' for Active; 'I' for Inactive)
REMARK    1  A    between atoms: C_1  and  O_7 
REMARK    2  A    between atoms: C_2  and  O_8 
REMARK    3  A    between atoms: C_4  and  O_9 
REMARK    4  A    between atoms: C_5  and  C_11 
REMARK    5  A    between atoms: C_6  and  O_10 
REMARK    6  A    between atoms: C_18  and  O_7 
REMARK    7  A    between atoms: O_12  and  C_11 
REMARK    8  A    between atoms: C_13  and  O_19 
REMARK    9  A    between atoms: C_14  and  O_20 
REMARK   10  A    between atoms: C_16  and  O_21 
REMARK   11  A    between atoms: C_17  and  C_22 
REMARK   12  A    between atoms: C_29  and  O_19 
REMARK   13  A    between atoms: O_23  and  C_22 
REMARK   14  A    between atoms: C_24  and  O_30 
REMARK   15  A    between atoms: C_25  and  O_31 
REMARK   16  A    between atoms: C_27  and  O_32 
REMARK   17  A    between atoms: C_28  and  C_33 
REMARK   18  A    between atoms: C_37  and  O_30 
REMARK   19  A    between atoms: O_34  and  C_33 
REMARK   20  A    between atoms: C_36  and  C_35 
REMARK   21  A    between atoms: C_40  and  C_35 
REMARK   22  A    between atoms: C_35  and  O_45 
REMARK   23  A    between atoms: C_37  and  C_36 
REMARK   24  A    between atoms: C_36  and  O_41 
REMARK   25  A    between atoms: C_38  and  C_37 
REMARK   26  A    between atoms: C_39  and  C_38 
REMARK   27  A    between atoms: C_38  and  O_42 
REMARK   28  A    between atoms: O_43  and  C_39 
ROOT
HETATM    1  O   UNK N   1      34.726  15.809   8.576  0.00  0.00    -0.348 OA
ENDROOT
BRANCH   1   2
HETATM    2  C   UNK N   1      33.427  15.344   8.327  0.00  0.00     0.292 C 
HETATM    3  C   UNK N   1      32.376  15.854   9.321  0.00  0.00     0.204 C 
HETATM    4  C   UNK N   1      31.164  16.423   8.613  0.00  0.00     0.183 C 
HETATM    5  C   UNK N   1      31.692  17.359   7.544  0.00  0.00     0.187 C 
HETATM    6  C   UNK N   1      32.459  16.532   6.502  0.00  0.00     0.180 C 
HETATM    7  O   UNK N   1      33.078  15.332   6.953  0.00  0.00    -0.348 OA
BRANCH   3   8
HETATM    8  O   UNK N   1      31.992  14.823  10.178  0.00  0.00    -0.388 OA
HETATM    9  H   UNK N   1      32.088  13.859  10.162  0.00  0.00     0.210 HD
ENDBRANCH   3   8
BRANCH   4  10
HETATM   10  O   UNK N   1      30.381  17.118   9.537  0.00  0.00    -0.390 OA
HETATM   11  H   UNK N   1      30.530  18.059   9.718  0.00  0.00     0.210 HD
ENDBRANCH   4  10
BRANCH   5  12
HETATM   12  O   UNK N   1      30.645  18.040   6.914  0.00  0.00    -0.348 OA
BRANCH  12  13
HETATM   13  C   UNK N   1      29.872  17.045   6.300  0.00  0.00     0.292 C 
HETATM   14  C   UNK N   1      29.553  17.418   4.842  0.00  0.00     0.204 C 
HETATM   15  C   UNK N   1      28.187  18.092   4.714  0.00  0.00     0.183 C 
HETATM   16  C   UNK N   1      27.900  18.893   5.970  0.00  0.00     0.180 C 
HETATM   17  C   UNK N   1      27.860  17.919   7.168  0.00  0.00     0.179 C 
HETATM   18  O   UNK N   1      28.701  16.771   7.049  0.00  0.00    -0.348 OA
BRANCH  14  19
HETATM   19  O   UNK N   1      29.583  16.283   4.032  0.00  0.00    -0.388 OA
HETATM   20  H   UNK N   1      29.681  16.056   3.094  0.00  0.00     0.210 HD
ENDBRANCH  14  19
BRANCH  15  21
HETATM   21  O   UNK N   1      28.169  18.907   3.581  0.00  0.00    -0.390 OA
HETATM   22  H   UNK N   1      28.028  18.710   2.642  0.00  0.00     0.210 HD
ENDBRANCH  15  21
BRANCH  16  23
HETATM   23  O   UNK N   1      26.678  19.559   5.861  0.00  0.00    -0.390 OA
HETATM   24  H   UNK N   1      26.322  20.062   6.610  0.00  0.00     0.210 HD
ENDBRANCH  16  23
BRANCH  17  25
HETATM   25  C   UNK N   1      28.094  18.626   8.497  0.00  0.00     0.198 C 
BRANCH  25  26
HETATM   26  O   UNK N   1      27.448  17.950   9.533  0.00  0.00    -0.398 OA
HETATM   27  H   UNK N   1      27.669  18.048  10.472  0.00  0.00     0.209 HD
ENDBRANCH  25  26
ENDBRANCH  17  25
ENDBRANCH  12  13
ENDBRANCH   5  12
BRANCH   6  28
HETATM   28  C   UNK N   1      33.397  17.377   5.659  0.00  0.00     0.198 C 
BRANCH  28  29
HETATM   29  O   UNK N   1      34.304  18.037   6.488  0.00  0.00    -0.398 OA
HETATM   30  H   UNK N   1      35.096  17.643   6.887  0.00  0.00     0.209 HD
ENDBRANCH  28  29
ENDBRANCH   6  28
ENDBRANCH   1   2
BRANCH   1  31
HETATM   31  C   UNK N   1      35.137  14.996   9.639  0.00  0.00     0.187 C 
HETATM   32  C   UNK N   1      35.699  15.796  10.801  0.00  0.00     0.183 C 
HETATM   33  C   UNK N   1      35.978  14.830  11.950  0.00  0.00     0.204 C 
HETATM   34  C   UNK N   1      36.789  13.593  11.482  0.00  0.00     0.292 C 
HETATM   35  O   UNK N   1      36.222  13.022  10.317  0.00  0.00    -0.348 OA
HETATM   36  C   UNK N   1      36.205  13.967   9.276  0.00  0.00     0.180 C 
BRANCH  32  37
HETATM   37  O   UNK N   1      34.791  16.772  11.216  0.00  0.00    -0.390 OA
HETATM   38  H   UNK N   1      35.056  17.705  11.239  0.00  0.00     0.210 HD
ENDBRANCH  32  37
BRANCH  33  39
HETATM   39  O   UNK N   1      36.670  15.509  12.954  0.00  0.00    -0.388 OA
HETATM   40  H   UNK N   1      37.177  16.334  12.991  0.00  0.00     0.210 HD
ENDBRANCH  33  39
BRANCH  34  41
HETATM   41  O   UNK N   1      36.736  12.604  12.484  0.00  0.00    -0.348 OA
BRANCH  41  42
HETATM   42  C   UNK N   1      35.404  12.451  12.896  0.00  0.00     0.187 C 
BRANCH  42  43
HETATM   43  C   UNK N   1      35.321  12.299  14.437  0.00  0.00     0.185 C 
BRANCH  43  44
HETATM   44  C   UNK N   1      35.943  13.460  15.235  0.00  0.00     0.210 C 
BRANCH  44  45
HETATM   45  C   UNK N   1      35.690  13.325  16.706  0.00  0.00     0.265 C 
HETATM   46  O   UNK N   1      34.555  13.412  17.159  0.00  0.00    -0.304 OA
ENDBRANCH  44  45
BRANCH  44  47
HETATM   47  O   UNK N   1      37.326  13.474  15.056  0.00  0.00    -0.386 OA
HETATM   48  H   UNK N   1      38.016  12.851  14.779  0.00  0.00     0.210 HD
ENDBRANCH  44  47
ENDBRANCH  43  44
BRANCH  43  49
HETATM   49  O   UNK N   1      33.982  12.146  14.812  0.00  0.00    -0.390 OA
HETATM   50  H   UNK N   1      33.508  11.467  15.317  0.00  0.00     0.210 HD
ENDBRANCH  43  49
ENDBRANCH  42  43
BRANCH  42  51
HETATM   51  C   UNK N   1      34.819  11.181  12.232  0.00  0.00     0.173 C 
BRANCH  51  52
HETATM   52  C   UNK N   1      35.863  10.160  11.800  0.00  0.00     0.198 C 
BRANCH  52  53
HETATM   53  O   UNK N   1      36.399   9.505  12.909  0.00  0.00    -0.398 OA
HETATM   54  H   UNK N   1      36.800   9.628  13.783  0.00  0.00     0.209 HD
ENDBRANCH  52  53
ENDBRANCH  51  52
BRANCH  51  55
HETATM   55  O   UNK N   1      34.054  11.518  11.116  0.00  0.00    -0.391 OA
HETATM   56  H   UNK N   1      33.163  11.282  10.811  0.00  0.00     0.210 HD
ENDBRANCH  51  55
ENDBRANCH  42  51
ENDBRANCH  41  42
ENDBRANCH  34  41
BRANCH  36  57
HETATM   57  C   UNK N   1      35.906  13.244   7.971  0.00  0.00     0.198 C 
BRANCH  57  58
HETATM   58  O   UNK N   1      35.032  12.181   8.199  0.00  0.00    -0.398 OA
HETATM   59  H   UNK N   1      34.205  11.890   7.782  0.00  0.00     0.209 HD
ENDBRANCH  57  58
ENDBRANCH  36  57
ENDBRANCH   1  31
TORSDOF 28
ENDMDL
MODEL 9
REMARK VINA RESULT:      -6.7      1.792     10.858
REMARK  28 active torsions:
REMARK  status: ('A' for Active; 'I' for Inactive)
REMARK    1  A    between atoms: C_1  and  O_7 
REMARK    2  A    between atoms: C_2  and  O_8 
REMARK    3  A    between atoms: C_4  and  O_9 
REMARK    4  A    between atoms: C_5  and  C_11 
REMARK    5  A    between atoms: C_6  and  O_10 
REMARK    6  A    between atoms: C_18  and  O_7 
REMARK    7  A    between atoms: O_12  and  C_11 
REMARK    8  A    between atoms: C_13  and  O_19 
REMARK    9  A    between atoms: C_14  and  O_20 
REMARK   10  A    between atoms: C_16  and  O_21 
REMARK   11  A    between atoms: C_17  and  C_22 
REMARK   12  A    between atoms: C_29  and  O_19 
REMARK   13  A    between atoms: O_23  and  C_22 
REMARK   14  A    between atoms: C_24  and  O_30 
REMARK   15  A    between atoms: C_25  and  O_31 
REMARK   16  A    between atoms: C_27  and  O_32 
REMARK   17  A    between atoms: C_28  and  C_33 
REMARK   18  A    between atoms: C_37  and  O_30 
REMARK   19  A    between atoms: O_34  and  C_33 
REMARK   20  A    between atoms: C_36  and  C_35 
REMARK   21  A    between atoms: C_40  and  C_35 
REMARK   22  A    between atoms: C_35  and  O_45 
REMARK   23  A    between atoms: C_37  and  C_36 
REMARK   24  A    between atoms: C_36  and  O_41 
REMARK   25  A    between atoms: C_38  and  C_37 
REMARK   26  A    between atoms: C_39  and  C_38 
REMARK   27  A    between atoms: C_38  and  O_42 
REMARK   28  A    between atoms: O_43  and  C_39 
ROOT
HETATM    1  O   UNK N   1      27.237  17.377   6.235  0.00  0.00    -0.348 OA
ENDROOT
BRANCH   1   2
HETATM    2  C   UNK N   1      26.773  16.075   6.006  0.00  0.00     0.292 C 
HETATM    3  C   UNK N   1      25.555  15.683   6.852  0.00  0.00     0.204 C 
HETATM    4  C   UNK N   1      24.452  15.084   6.005  0.00  0.00     0.183 C 
HETATM    5  C   UNK N   1      24.267  16.015   4.822  0.00  0.00     0.187 C 
HETATM    6  C   UNK N   1      25.543  15.982   3.968  0.00  0.00     0.180 C 
HETATM    7  O   UNK N   1      26.767  15.703   4.638  0.00  0.00    -0.348 OA
BRANCH   3   8
HETATM    8  O   UNK N   1      25.936  14.785   7.849  0.00  0.00    -0.388 OA
HETATM    9  H   UNK N   1      25.578  13.945   8.176  0.00  0.00     0.210 HD
ENDBRANCH   3   8
BRANCH   4  10
HETATM   10  O   UNK N   1      23.283  15.011   6.765  0.00  0.00    -0.390 OA
HETATM   11  H   UNK N   1      22.861  14.160   6.961  0.00  0.00     0.210 HD
ENDBRANCH   4  10
BRANCH   5  12
HETATM   12  O   UNK N   1      23.176  15.619   4.041  0.00  0.00    -0.348 OA
BRANCH  12  13
HETATM   13  C   UNK N   1      22.570  16.810   3.619  0.00  0.00     0.292 C 
HETATM   14  C   UNK N   1      22.556  17.851   4.751  0.00  0.00     0.204 C 
HETATM   15  C   UNK N   1      21.233  17.838   5.517  0.00  0.00     0.183 C 
HETATM   16  C   UNK N   1      20.673  16.428   5.533  0.00  0.00     0.180 C 
HETATM   17  C   UNK N   1      20.403  15.997   4.075  0.00  0.00     0.179 C 
HETATM   18  O   UNK N   1      21.275  16.569   3.099  0.00  0.00    -0.348 OA
BRANCH  14  19
HETATM   19  O   UNK N   1      22.778  19.129   4.240  0.00  0.00    -0.388 OA
HETATM   20  H   UNK N   1      22.716  20.053   4.528  0.00  0.00     0.210 HD
ENDBRANCH  14  19
BRANCH  15  21
HETATM   21  O   UNK N   1      21.435  18.315   6.813  0.00  0.00    -0.390 OA
HETATM   22  H   UNK N   1      20.827  18.696   7.467  0.00  0.00     0.210 HD
ENDBRANCH  15  21
BRANCH  16  23
HETATM   23  O   UNK N   1      19.487  16.378   6.268  0.00  0.00    -0.390 OA
HETATM   24  H   UNK N   1      19.325  15.654   6.893  0.00  0.00     0.210 HD
ENDBRANCH  16  23
BRANCH  17  25
HETATM   25  C   UNK N   1      20.339  14.482   3.921  0.00  0.00     0.198 C 
BRANCH  25  26
HETATM   26  O   UNK N   1      20.982  13.853   4.988  0.00  0.00    -0.398 OA
HETATM   27  H   UNK N   1      20.713  13.000   5.363  0.00  0.00     0.209 HD
ENDBRANCH  25  26
ENDBRANCH  17  25
ENDBRANCH  12  13
ENDBRANCH   5  12
BRANCH   6  28
HETATM   28  C   UNK N   1      25.658  17.179   3.041  0.00  0.00     0.198 C 
BRANCH  28  29
HETATM   29  O   UNK N   1      25.765  18.346   3.798  0.00  0.00    -0.398 OA
HETATM   30  H   UNK N   1      25.159  18.620   4.505  0.00  0.00     0.209 HD
ENDBRANCH  28  29
ENDBRANCH   6  28
ENDBRANCH   1   2
BRANCH   1  31
HETATM   31  C   UNK N   1      28.465  17.152   6.867  0.00  0.00     0.187 C 
HETATM   32  C   UNK N   1      28.505  17.706   8.281  0.00  0.00     0.183 C 
HETATM   33  C   UNK N   1      29.825  17.279   8.919  0.00  0.00     0.204 C 
HETATM   34  C   UNK N   1      31.037  17.588   8.003  0.00  0.00     0.292 C 
HETATM   35  O   UNK N   1      30.811  17.127   6.683  0.00  0.00    -0.348 OA
HETATM   36  C   UNK N   1      29.671  17.748   6.143  0.00  0.00     0.180 C 
BRANCH  32  37
HETATM   37  O   UNK N   1      27.438  17.215   9.035  0.00  0.00    -0.390 OA
HETATM   38  H   UNK N   1      26.859  17.828   9.515  0.00  0.00     0.210 HD
ENDBRANCH  32  37
BRANCH  33  39
HETATM   39  O   UNK N   1      29.967  17.934  10.143  0.00  0.00    -0.388 OA
HETATM   40  H   UNK N   1      29.946  18.862  10.425  0.00  0.00     0.210 HD
ENDBRANCH  33  39
BRANCH  34  41
HETATM   41  O   UNK N   1      32.166  16.896   8.485  0.00  0.00    -0.348 OA
BRANCH  41  42
HETATM   42  C   UNK N   1      32.893  16.404   7.391  0.00  0.00     0.187 C 
BRANCH  42  43
HETATM   43  C   UNK N   1      33.270  14.915   7.608  0.00  0.00     0.185 C 
BRANCH  43  44
HETATM   44  C   UNK N   1      32.877  14.344   8.983  0.00  0.00     0.210 C 
BRANCH  44  45
HETATM   45  C   UNK N   1      33.324  12.923   9.146  0.00  0.00     0.265 C 
HETATM   46  O   UNK N   1      32.687  12.003   8.647  0.00  0.00    -0.304 OA
ENDBRANCH  44  45
BRANCH  44  47
HETATM   47  O   UNK N   1      33.483  15.084   9.998  0.00  0.00    -0.386 OA
HETATM   48  H   UNK N   1      34.382  15.237  10.328  0.00  0.00     0.210 HD
ENDBRANCH  44  47
ENDBRANCH  43  44
BRANCH  43  49
HETATM   49  O   UNK N   1      32.684  14.141   6.601  0.00  0.00    -0.390 OA
HETATM   50  H   UNK N   1      32.085  14.351   5.867  0.00  0.00     0.210 HD
ENDBRANCH  43  49
ENDBRANCH  42  43
BRANCH  42  51
HETATM   51  C   UNK N   1      34.190  17.235   7.239  0.00  0.00     0.173 C 
BRANCH  51  52
HETATM   52  C   UNK N   1      34.435  18.229   8.365  0.00  0.00     0.198 C 
BRANCH  52  53
HETATM   53  O   UNK N   1      34.748  17.563   9.550  0.00  0.00    -0.398 OA
HETATM   54  H   UNK N   1      34.488  17.427  10.474  0.00  0.00     0.209 HD
ENDBRANCH  52  53
ENDBRANCH  51  52
BRANCH  51  55
HETATM   55  O   UNK N   1      34.186  17.937   6.034  0.00  0.00    -0.391 OA
HETATM   56  H   UNK N   1      34.871  18.182   5.392  0.00  0.00     0.210 HD
ENDBRANCH  51  55
ENDBRANCH  42  51
ENDBRANCH  41  42
ENDBRANCH  34  41
BRANCH  36  57
HETATM   57  C   UNK N   1      29.643  17.492   4.644  0.00  0.00     0.198 C 
BRANCH  57  58
HETATM   58  O   UNK N   1      28.661  18.279   4.040  0.00  0.00    -0.398 OA
HETATM   59  H   UNK N   1      28.684  19.097   3.518  0.00  0.00     0.209 HD
ENDBRANCH  57  58
ENDBRANCH  36  57
ENDBRANCH   1  31
TORSDOF 28
ENDMDL
