REMARK  2 active torsions:
REMARK  status: ('A' for Active; 'I' for Inactive)
REMARK    1  A    between atoms: O_1  and  C_2 
REMARK    2  A    between atoms: C_2  and  C_4 
ROOT
HETATM    1  C   UNK N   1       1.637  -0.217  -0.000  0.00  0.00     0.115 A 
HETATM    2  C   UNK N   1       0.439  -0.932  -0.000  0.00  0.00     0.111 A 
HETATM    3  C   UNK N   1      -0.764  -0.236   0.000  0.00  0.00     0.251 A 
HETATM    4  O   UNK N   1      -1.817  -0.844   0.000  0.00  0.00    -0.268 OA
HETATM    5  N   UNK N   1      -0.761   1.133  -0.000  0.00  0.00    -0.275 N 
HETATM    6  C   UNK N   1       0.423   1.825  -0.000  0.00  0.00     0.327 A 
HETATM    7  O   UNK N   1       0.416   3.042  -0.000  0.00  0.00    -0.247 OA
HETATM    8  N   UNK N   1       1.613   1.144  -0.000  0.00  0.00    -0.303 N 
HETATM    9  H   UNK N   1      -1.614   1.624   0.000  0.00  0.00     0.173 HD
HETATM   10  H   UNK N   1       2.460   1.646  -0.000  0.00  0.00     0.171 HD
ENDROOT
BRANCH   1  11
HETATM   11  C   UNK N   1       2.921  -0.935  -0.000  0.00  0.00     0.193 C 
HETATM   12  O   UNK N   1       2.944  -2.156  -0.000  0.00  0.00    -0.645 OA
BRANCH  11  13
HETATM   13  O   UNK N   1       4.080  -0.249   0.000  0.00  0.00    -0.772 OA
HETATM   14  H   UNK N   1       4.896  -0.708   0.000  0.00  0.00     0.167 HD
ENDBRANCH  11  13
ENDBRANCH   1  11
TORSDOF 2
