REMARK  6 active torsions:
REMARK  status: ('A' for Active; 'I' for Inactive)
REMARK       I    between atoms: C_2  and  N_4 
REMARK    1  A    between atoms: N_4  and  C_6 
REMARK    2  A    between atoms: C_6  and  C_7 
REMARK    3  A    between atoms: C_7  and  O_8 
REMARK    4  A    between atoms: O_8  and  P_9 
REMARK    5  A    between atoms: P_9  and  O_10 
REMARK    6  A    between atoms: P_9  and  O_11 
ROOT
HETATM    1  C   UNK N   1       3.922  -1.915   0.316  0.00  0.00     0.201 C 
ENDROOT
BRANCH   1   2
HETATM    2  C   UNK N   1       2.991  -1.184  -0.642  0.00  0.00     0.166 C 
BRANCH   2   3
HETATM    3  N   UNK N   1       1.630  -1.155  -0.157  0.00  0.00    -0.282 N 
HETATM    4  C   UNK N   1       0.899  -2.299  -0.024  0.00  0.00     0.225 C 
HETATM    5  C   UNK N   1      -0.525  -2.253   0.422  0.00  0.00     0.118 C 
HETATM    6  O   UNK N   1       1.400  -3.386  -0.280  0.00  0.00    -0.273 OA
HETATM    7 Br   UNK N   1       0.863   0.530   0.201  0.00  0.00     0.052 Br
ENDBRANCH   2   3
ENDBRANCH   1   2
BRANCH   1   8
HETATM    8  O   UNK N   1       5.195  -1.980  -0.264  0.00  0.00    -0.295 OA
BRANCH   8   9
HETATM    9  P   UNK N   1       6.218  -0.964   0.714  0.00  0.00     0.390 P 
HETATM   10  O   UNK N   1       5.798   0.041  -0.394  0.00  0.00    -0.632 OA
BRANCH   9  11
HETATM   11  O   UNK N   1       7.743  -0.383   0.125  0.00  0.00    -0.307 OA
HETATM   12  H   UNK N   1       8.451  -0.958  -0.204  0.00  0.00     0.222 HD
ENDBRANCH   9  11
BRANCH   9  13
HETATM   13  O   UNK N   1       7.145  -2.239  -0.015  0.00  0.00    -0.307 OA
HETATM   14  H   UNK N   1       6.786  -3.043  -0.423  0.00  0.00     0.222 HD
ENDBRANCH   9  13
ENDBRANCH   8   9
ENDBRANCH   1   8
TORSDOF 6
