MODEL 1
REMARK VINA RESULT:      -6.6      0.000      0.000
REMARK  16 active torsions:
REMARK  status: ('A' for Active; 'I' for Inactive)
REMARK    1  A    between atoms: C_14  and  C_13 
REMARK    2  A    between atoms: C_20  and  C_13 
REMARK    3  A    between atoms: C_23  and  C_14 
REMARK    4  A    between atoms: C_21  and  C_16 
REMARK    5  A    between atoms: C_24  and  C_16 
REMARK    6  A    between atoms: C_25  and  C_18 
REMARK    7  A    between atoms: O_34  and  C_18 
REMARK    8  A    between atoms: C_22  and  C_19 
REMARK    9  A    between atoms: O_38  and  C_19 
REMARK   10  A    between atoms: C_25  and  C_23 
REMARK   11  A    between atoms: C_23  and  N_30 
REMARK   12  A    between atoms: C_26  and  C_24 
REMARK   13  A    between atoms: C_24  and  N_32 
REMARK   14  A    between atoms: C_26  and  O_36 
REMARK   15  A    between atoms: C_27  and  O_37 
REMARK   16  A    between atoms: O_38  and  C_27 
ROOT
HETATM    1  C   UNK N   1      23.961  17.664   4.586  0.00  0.00     0.164 C 
ENDROOT
BRANCH   1   2
HETATM    2  C   UNK N   1      23.996  16.198   5.077  0.00  0.00     0.072 C 
BRANCH   2   3
HETATM    3  C   UNK N   1      23.542  15.038   4.222  0.00  0.00    -0.056 A 
HETATM    4  C   UNK N   1      23.602  15.190   2.830  0.00  0.00     0.007 A 
HETATM    5  C   UNK N   1      23.251  14.136   1.982  0.00  0.00     0.001 A 
HETATM    6  C   UNK N   1      22.847  12.912   2.520  0.00  0.00     0.000 A 
HETATM    7  C   UNK N   1      22.786  12.747   3.906  0.00  0.00     0.001 A 
HETATM    8  C   UNK N   1      23.133  13.807   4.752  0.00  0.00     0.007 A 
ENDBRANCH   2   3
ENDBRANCH   1   2
BRANCH   1   9
HETATM    9  C   UNK N   1      22.579  18.283   4.525  0.00  0.00     0.135 C 
HETATM   10  N   UNK N   1      22.176  18.771   3.396  0.00  0.00    -0.361 N 
ATOM     11  HN  UNK N   1      22.780  18.635   2.585  1.00  0.00     0.162 HD
BRANCH  10  12
HETATM   12  C   UNK N   1      20.937  19.495   3.190  0.00  0.00     0.155 C 
BRANCH  12  13
HETATM   13  C   UNK N   1      19.844  18.627   2.527  0.00  0.00     0.037 C 
BRANCH  13  14
HETATM   14  C   UNK N   1      20.376  17.559   1.577  0.00  0.00     0.041 C 
BRANCH  14  15
HETATM   15  C   UNK N   1      20.037  16.182   2.032  0.00  0.00    -0.058 A 
HETATM   16  C   UNK N   1      19.922  15.899   3.398  0.00  0.00     0.007 A 
HETATM   17  C   UNK N   1      19.551  14.617   3.819  0.00  0.00     0.001 A 
HETATM   18  C   UNK N   1      19.282  13.622   2.875  0.00  0.00     0.000 A 
HETATM   19  C   UNK N   1      19.391  13.906   1.510  0.00  0.00     0.001 A 
HETATM   20  C   UNK N   1      19.768  15.184   1.089  0.00  0.00     0.007 A 
ENDBRANCH  14  15
ENDBRANCH  13  14
ENDBRANCH  12  13
BRANCH  12  21
HETATM   21  C   UNK N   1      21.256  20.747   2.385  0.00  0.00     0.172 C 
HETATM   22  O   UNK N   1      22.224  21.426   2.695  0.00  0.00    -0.293 OA
BRANCH  21  23
HETATM   23  C   UNK N   1      20.404  21.227   1.243  0.00  0.00     0.244 C 
BRANCH  23  24
HETATM   24  O   UNK N   1      20.878  20.803   0.002  0.00  0.00    -0.394 OA
HETATM   25  H   UNK N   1      20.822  20.156  -0.718  0.00  0.00     0.209 HD
ENDBRANCH  23  24
ENDBRANCH  21  23
ENDBRANCH  12  21
ENDBRANCH  10  12
BRANCH   9  26
HETATM   26  O   UNK N   1      21.811  18.365   5.633  0.00  0.00    -0.348 OA
HETATM   27  H   UNK N   1      21.086  18.760   6.075  0.00  0.00     0.219 HD
ENDBRANCH   9  26
ENDBRANCH   1   9
BRANCH   1  28
HETATM   28  N   UNK N   1      24.958  18.517   5.240  0.00  0.00    -0.338 N 
HETATM   29  C   UNK N   1      25.412  19.650   4.798  0.00  0.00     0.259 C 
ATOM     30  HN  UNK N   1      25.331  18.188   6.130  1.00  0.00     0.164 HD
BRANCH  29  31
HETATM   31  O   UNK N   1      24.925  20.211   3.666  0.00  0.00    -0.327 OA
HETATM   32  H   UNK N   1      24.950  20.604   2.816  0.00  0.00     0.221 HD
ENDBRANCH  29  31
BRANCH  29  33
HETATM   33  O   UNK N   1      26.386  20.292   5.489  0.00  0.00    -0.312 OA
BRANCH  33  34
HETATM   34  C   UNK N   1      27.699  19.867   5.452  0.00  0.00     0.219 C 
BRANCH  34  35
HETATM   35  C   UNK N   1      28.063  19.049   6.662  0.00  0.00    -0.019 A 
HETATM   36  C   UNK N   1      28.908  17.946   6.519  0.00  0.00     0.012 A 
HETATM   37  C   UNK N   1      29.251  17.183   7.637  0.00  0.00     0.018 A 
HETATM   38  C   UNK N   1      28.747  17.538   8.890  0.00  0.00     0.087 A 
HETATM   39  N   UNK N   1      27.927  18.616   9.015  0.00  0.00    -0.375 N 
HETATM   40  C   UNK N   1      27.577  19.369   7.938  0.00  0.00     0.096 A 
ATOM     41  HN  UNK N   1      27.568  18.865   9.937  1.00  0.00     0.164 HD
ENDBRANCH  34  35
ENDBRANCH  33  34
ENDBRANCH  29  33
ENDBRANCH   1  28
TORSDOF 16
ENDMDL
MODEL 2
REMARK VINA RESULT:      -6.4     11.681     14.011
REMARK  16 active torsions:
REMARK  status: ('A' for Active; 'I' for Inactive)
REMARK    1  A    between atoms: C_14  and  C_13 
REMARK    2  A    between atoms: C_20  and  C_13 
REMARK    3  A    between atoms: C_23  and  C_14 
REMARK    4  A    between atoms: C_21  and  C_16 
REMARK    5  A    between atoms: C_24  and  C_16 
REMARK    6  A    between atoms: C_25  and  C_18 
REMARK    7  A    between atoms: O_34  and  C_18 
REMARK    8  A    between atoms: C_22  and  C_19 
REMARK    9  A    between atoms: O_38  and  C_19 
REMARK   10  A    between atoms: C_25  and  C_23 
REMARK   11  A    between atoms: C_23  and  N_30 
REMARK   12  A    between atoms: C_26  and  C_24 
REMARK   13  A    between atoms: C_24  and  N_32 
REMARK   14  A    between atoms: C_26  and  O_36 
REMARK   15  A    between atoms: C_27  and  O_37 
REMARK   16  A    between atoms: O_38  and  C_27 
ROOT
HETATM    1  C   UNK N   1      25.790  24.899  -5.389  0.00  0.00     0.164 C 
ENDROOT
BRANCH   1   2
HETATM    2  C   UNK N   1      25.207  26.323  -5.545  0.00  0.00     0.072 C 
BRANCH   2   3
HETATM    3  C   UNK N   1      25.988  27.569  -5.202  0.00  0.00    -0.056 A 
HETATM    4  C   UNK N   1      26.943  28.016  -6.126  0.00  0.00     0.007 A 
HETATM    5  C   UNK N   1      27.660  29.194  -5.896  0.00  0.00     0.001 A 
HETATM    6  C   UNK N   1      27.420  29.943  -4.743  0.00  0.00     0.000 A 
HETATM    7  C   UNK N   1      26.469  29.510  -3.817  0.00  0.00     0.001 A 
HETATM    8  C   UNK N   1      25.757  28.327  -4.047  0.00  0.00     0.007 A 
ENDBRANCH   2   3
ENDBRANCH   1   2
BRANCH   1   9
HETATM    9  C   UNK N   1      25.621  24.005  -6.601  0.00  0.00     0.135 C 
HETATM   10  N   UNK N   1      26.034  24.442  -7.747  0.00  0.00    -0.361 N 
ATOM     11  HN  UNK N   1      26.529  25.334  -7.757  1.00  0.00     0.162 HD
BRANCH  10  12
HETATM   12  C   UNK N   1      25.850  23.768  -9.018  0.00  0.00     0.155 C 
BRANCH  12  13
HETATM   13  C   UNK N   1      27.064  22.898  -9.411  0.00  0.00     0.037 C 
BRANCH  13  14
HETATM   14  C   UNK N   1      26.967  21.441  -8.966  0.00  0.00     0.041 C 
BRANCH  14  15
HETATM   15  C   UNK N   1      28.085  21.054  -8.061  0.00  0.00    -0.058 A 
HETATM   16  C   UNK N   1      28.735  19.826  -8.230  0.00  0.00     0.007 A 
HETATM   17  C   UNK N   1      29.819  19.490  -7.412  0.00  0.00     0.001 A 
HETATM   18  C   UNK N   1      30.261  20.385  -6.434  0.00  0.00     0.000 A 
HETATM   19  C   UNK N   1      29.615  21.614  -6.268  0.00  0.00     0.001 A 
HETATM   20  C   UNK N   1      28.528  21.948  -7.081  0.00  0.00     0.007 A 
ENDBRANCH  14  15
ENDBRANCH  13  14
ENDBRANCH  12  13
BRANCH  12  21
HETATM   21  C   UNK N   1      25.526  24.826 -10.064  0.00  0.00     0.172 C 
HETATM   22  O   UNK N   1      24.443  24.795 -10.629  0.00  0.00    -0.293 OA
BRANCH  21  23
HETATM   23  C   UNK N   1      26.501  25.892 -10.480  0.00  0.00     0.244 C 
BRANCH  23  24
HETATM   24  O   UNK N   1      27.101  26.527  -9.393  0.00  0.00    -0.394 OA
HETATM   25  H   UNK N   1      27.151  27.317  -8.833  0.00  0.00     0.209 HD
ENDBRANCH  23  24
ENDBRANCH  21  23
ENDBRANCH  12  21
ENDBRANCH  10  12
BRANCH   9  26
HETATM   26  O   UNK N   1      25.012  22.804  -6.492  0.00  0.00    -0.348 OA
HETATM   27  H   UNK N   1      24.291  22.250  -6.717  0.00  0.00     0.219 HD
ENDBRANCH   9  26
ENDBRANCH   1   9
BRANCH   1  28
HETATM   28  N   UNK N   1      27.147  24.886  -4.835  0.00  0.00    -0.338 N 
HETATM   29  C   UNK N   1      27.504  24.423  -3.677  0.00  0.00     0.259 C 
ATOM     30  HN  UNK N   1      27.885  25.281  -5.419  1.00  0.00     0.164 HD
BRANCH  29  31
HETATM   31  O   UNK N   1      26.614  23.809  -2.859  0.00  0.00    -0.327 OA
HETATM   32  H   UNK N   1      25.898  23.253  -2.623  0.00  0.00     0.221 HD
ENDBRANCH  29  31
BRANCH  29  33
HETATM   33  O   UNK N   1      28.793  24.543  -3.279  0.00  0.00    -0.312 OA
BRANCH  33  34
HETATM   34  C   UNK N   1      29.425  23.547  -2.562  0.00  0.00     0.219 C 
BRANCH  34  35
HETATM   35  C   UNK N   1      30.716  23.117  -3.206  0.00  0.00    -0.019 A 
HETATM   36  C   UNK N   1      31.248  21.860  -2.911  0.00  0.00     0.012 A 
HETATM   37  C   UNK N   1      32.444  21.454  -3.506  0.00  0.00     0.018 A 
HETATM   38  C   UNK N   1      33.093  22.312  -4.397  0.00  0.00     0.087 A 
HETATM   39  N   UNK N   1      32.562  23.532  -4.677  0.00  0.00    -0.375 N 
HETATM   40  C   UNK N   1      31.401  23.949  -4.104  0.00  0.00     0.096 A 
ATOM     41  HN  UNK N   1      33.046  24.148  -5.331  1.00  0.00     0.164 HD
ENDBRANCH  34  35
ENDBRANCH  33  34
ENDBRANCH  29  33
ENDBRANCH   1  28
TORSDOF 16
ENDMDL
MODEL 3
REMARK VINA RESULT:      -6.3      4.364     10.059
REMARK  16 active torsions:
REMARK  status: ('A' for Active; 'I' for Inactive)
REMARK    1  A    between atoms: C_14  and  C_13 
REMARK    2  A    between atoms: C_20  and  C_13 
REMARK    3  A    between atoms: C_23  and  C_14 
REMARK    4  A    between atoms: C_21  and  C_16 
REMARK    5  A    between atoms: C_24  and  C_16 
REMARK    6  A    between atoms: C_25  and  C_18 
REMARK    7  A    between atoms: O_34  and  C_18 
REMARK    8  A    between atoms: C_22  and  C_19 
REMARK    9  A    between atoms: O_38  and  C_19 
REMARK   10  A    between atoms: C_25  and  C_23 
REMARK   11  A    between atoms: C_23  and  N_30 
REMARK   12  A    between atoms: C_26  and  C_24 
REMARK   13  A    between atoms: C_24  and  N_32 
REMARK   14  A    between atoms: C_26  and  O_36 
REMARK   15  A    between atoms: C_27  and  O_37 
REMARK   16  A    between atoms: O_38  and  C_27 
ROOT
HETATM    1  C   UNK N   1      29.336  17.098   7.356  0.00  0.00     0.164 C 
ENDROOT
BRANCH   1   2
HETATM    2  C   UNK N   1      29.346  16.075   6.196  0.00  0.00     0.072 C 
BRANCH   2   3
HETATM    3  C   UNK N   1      28.261  16.018   5.147  0.00  0.00    -0.056 A 
HETATM    4  C   UNK N   1      27.067  15.362   5.478  0.00  0.00     0.007 A 
HETATM    5  C   UNK N   1      26.002  15.323   4.573  0.00  0.00     0.001 A 
HETATM    6  C   UNK N   1      26.117  15.950   3.331  0.00  0.00     0.000 A 
HETATM    7  C   UNK N   1      27.301  16.609   2.992  0.00  0.00     0.001 A 
HETATM    8  C   UNK N   1      28.367  16.642   3.897  0.00  0.00     0.007 A 
ENDBRANCH   2   3
ENDBRANCH   1   2
BRANCH   1   9
HETATM    9  C   UNK N   1      30.617  17.159   8.162  0.00  0.00     0.135 C 
HETATM   10  N   UNK N   1      31.599  16.390   7.813  0.00  0.00    -0.361 N 
ATOM     11  HN  UNK N   1      31.485  15.845   6.959  1.00  0.00     0.162 HD
BRANCH  10  12
HETATM   12  C   UNK N   1      32.847  16.242   8.537  0.00  0.00     0.155 C 
BRANCH  12  13
HETATM   13  C   UNK N   1      34.067  16.733   7.727  0.00  0.00     0.037 C 
BRANCH  13  14
HETATM   14  C   UNK N   1      33.734  17.748   6.637  0.00  0.00     0.041 C 
BRANCH  14  15
HETATM   15  C   UNK N   1      33.461  17.097   5.325  0.00  0.00    -0.058 A 
HETATM   16  C   UNK N   1      34.029  15.853   5.024  0.00  0.00     0.007 A 
HETATM   17  C   UNK N   1      33.727  15.221   3.814  0.00  0.00     0.001 A 
HETATM   18  C   UNK N   1      32.848  15.825   2.909  0.00  0.00     0.000 A 
HETATM   19  C   UNK N   1      32.276  17.064   3.213  0.00  0.00     0.001 A 
HETATM   20  C   UNK N   1      32.583  17.699   4.419  0.00  0.00     0.007 A 
ENDBRANCH  14  15
ENDBRANCH  13  14
ENDBRANCH  12  13
BRANCH  12  21
HETATM   21  C   UNK N   1      32.972  14.784   8.955  0.00  0.00     0.172 C 
HETATM   22  O   UNK N   1      32.308  13.936   8.375  0.00  0.00    -0.293 OA
BRANCH  21  23
HETATM   23  C   UNK N   1      33.844  14.329  10.093  0.00  0.00     0.244 C 
BRANCH  23  24
HETATM   24  O   UNK N   1      33.543  14.973  11.293  0.00  0.00    -0.394 OA
HETATM   25  H   UNK N   1      33.869  15.336  12.131  0.00  0.00     0.209 HD
ENDBRANCH  23  24
ENDBRANCH  21  23
ENDBRANCH  12  21
ENDBRANCH  10  12
BRANCH   9  26
HETATM   26  O   UNK N   1      30.713  17.960   9.246  0.00  0.00    -0.348 OA
HETATM   27  H   UNK N   1      31.118  18.694   9.664  0.00  0.00     0.219 HD
ENDBRANCH   9  26
ENDBRANCH   1   9
BRANCH   1  28
HETATM   28  N   UNK N   1      28.827  18.415   6.963  0.00  0.00    -0.338 N 
HETATM   29  C   UNK N   1      28.000  19.155   7.637  0.00  0.00     0.259 C 
ATOM     30  HN  UNK N   1      29.155  18.787   6.072  1.00  0.00     0.164 HD
BRANCH  29  31
HETATM   31  O   UNK N   1      27.566  18.787   8.866  0.00  0.00    -0.327 OA
HETATM   32  H   UNK N   1      26.959  18.674   9.570  0.00  0.00     0.221 HD
ENDBRANCH  29  31
BRANCH  29  33
HETATM   33  O   UNK N   1      27.570  20.326   7.106  0.00  0.00    -0.312 OA
BRANCH  33  34
HETATM   34  C   UNK N   1      27.750  20.624   5.770  0.00  0.00     0.219 C 
BRANCH  34  35
HETATM   35  C   UNK N   1      26.589  20.168   4.928  0.00  0.00    -0.019 A 
HETATM   36  C   UNK N   1      26.515  20.555   3.588  0.00  0.00     0.012 A 
HETATM   37  C   UNK N   1      25.442  20.136   2.800  0.00  0.00     0.018 A 
HETATM   38  C   UNK N   1      24.453  19.326   3.363  0.00  0.00     0.087 A 
HETATM   39  N   UNK N   1      24.538  18.954   4.669  0.00  0.00    -0.375 N 
HETATM   40  C   UNK N   1      25.573  19.356   5.454  0.00  0.00     0.096 A 
ATOM     41  HN  UNK N   1      23.810  18.361   5.066  1.00  0.00     0.164 HD
ENDBRANCH  34  35
ENDBRANCH  33  34
ENDBRANCH  29  33
ENDBRANCH   1  28
TORSDOF 16
ENDMDL
MODEL 4
REMARK VINA RESULT:      -6.2      3.525      5.753
REMARK  16 active torsions:
REMARK  status: ('A' for Active; 'I' for Inactive)
REMARK    1  A    between atoms: C_14  and  C_13 
REMARK    2  A    between atoms: C_20  and  C_13 
REMARK    3  A    between atoms: C_23  and  C_14 
REMARK    4  A    between atoms: C_21  and  C_16 
REMARK    5  A    between atoms: C_24  and  C_16 
REMARK    6  A    between atoms: C_25  and  C_18 
REMARK    7  A    between atoms: O_34  and  C_18 
REMARK    8  A    between atoms: C_22  and  C_19 
REMARK    9  A    between atoms: O_38  and  C_19 
REMARK   10  A    between atoms: C_25  and  C_23 
REMARK   11  A    between atoms: C_23  and  N_30 
REMARK   12  A    between atoms: C_26  and  C_24 
REMARK   13  A    between atoms: C_24  and  N_32 
REMARK   14  A    between atoms: C_26  and  O_36 
REMARK   15  A    between atoms: C_27  and  O_37 
REMARK   16  A    between atoms: O_38  and  C_27 
ROOT
HETATM    1  C   UNK N   1      22.024  17.688   4.493  0.00  0.00     0.164 C 
ENDROOT
BRANCH   1   2
HETATM    2  C   UNK N   1      22.335  16.394   3.705  0.00  0.00     0.072 C 
BRANCH   2   3
HETATM    3  C   UNK N   1      23.743  15.942   3.398  0.00  0.00    -0.056 A 
HETATM    4  C   UNK N   1      23.925  15.052   2.330  0.00  0.00     0.007 A 
HETATM    5  C   UNK N   1      25.208  14.639   1.958  0.00  0.00     0.001 A 
HETATM    6  C   UNK N   1      26.324  15.123   2.643  0.00  0.00     0.000 A 
HETATM    7  C   UNK N   1      26.155  16.013   3.707  0.00  0.00     0.001 A 
HETATM    8  C   UNK N   1      24.870  16.420   4.081  0.00  0.00     0.007 A 
ENDBRANCH   2   3
ENDBRANCH   1   2
BRANCH   1   9
HETATM    9  C   UNK N   1      21.709  17.481   5.960  0.00  0.00     0.135 C 
HETATM   10  N   UNK N   1      21.372  16.294   6.352  0.00  0.00    -0.361 N 
ATOM     11  HN  UNK N   1      21.420  15.543   5.665  1.00  0.00     0.162 HD
BRANCH  10  12
HETATM   12  C   UNK N   1      20.933  15.946   7.690  0.00  0.00     0.155 C 
BRANCH  12  13
HETATM   13  C   UNK N   1      21.065  14.436   7.987  0.00  0.00     0.037 C 
BRANCH  13  14
HETATM   14  C   UNK N   1      20.888  14.063   9.455  0.00  0.00     0.041 C 
BRANCH  14  15
HETATM   15  C   UNK N   1      22.053  13.303   9.988  0.00  0.00    -0.058 A 
HETATM   16  C   UNK N   1      23.314  13.438   9.394  0.00  0.00     0.007 A 
HETATM   17  C   UNK N   1      24.416  12.764   9.930  0.00  0.00     0.001 A 
HETATM   18  C   UNK N   1      24.261  11.964  11.067  0.00  0.00     0.000 A 
HETATM   19  C   UNK N   1      23.003  11.833  11.663  0.00  0.00     0.001 A 
HETATM   20  C   UNK N   1      21.900  12.502  11.124  0.00  0.00     0.007 A 
ENDBRANCH  14  15
ENDBRANCH  13  14
ENDBRANCH  12  13
BRANCH  12  21
HETATM   21  C   UNK N   1      19.506  16.451   7.857  0.00  0.00     0.172 C 
HETATM   22  O   UNK N   1      18.650  16.100   7.058  0.00  0.00    -0.293 OA
BRANCH  21  23
HETATM   23  C   UNK N   1      19.099  17.411   8.941  0.00  0.00     0.244 C 
BRANCH  23  24
HETATM   24  O   UNK N   1      19.895  18.556   8.973  0.00  0.00    -0.394 OA
HETATM   25  H   UNK N   1      20.170  19.348   9.461  0.00  0.00     0.209 HD
ENDBRANCH  23  24
ENDBRANCH  21  23
ENDBRANCH  12  21
ENDBRANCH  10  12
BRANCH   9  26
HETATM   26  O   UNK N   1      21.734  18.519   6.824  0.00  0.00    -0.348 OA
HETATM   27  H   UNK N   1      21.318  19.287   7.163  0.00  0.00     0.219 HD
ENDBRANCH   9  26
ENDBRANCH   1   9
BRANCH   1  28
HETATM   28  N   UNK N   1      22.991  18.763   4.247  0.00  0.00    -0.338 N 
HETATM   29  C   UNK N   1      22.850  19.754   3.420  0.00  0.00     0.259 C 
ATOM     30  HN  UNK N   1      23.861  18.728   4.778  1.00  0.00     0.164 HD
BRANCH  29  31
HETATM   31  O   UNK N   1      21.700  19.933   2.726  0.00  0.00    -0.327 OA
HETATM   32  H   UNK N   1      21.086  19.822   2.027  0.00  0.00     0.221 HD
ENDBRANCH  29  31
BRANCH  29  33
HETATM   33  O   UNK N   1      23.866  20.635   3.257  0.00  0.00    -0.312 OA
BRANCH  33  34
HETATM   34  C   UNK N   1      25.122  20.224   2.858  0.00  0.00     0.219 C 
BRANCH  34  35
HETATM   35  C   UNK N   1      26.056  20.047   4.025  0.00  0.00    -0.019 A 
HETATM   36  C   UNK N   1      27.300  19.442   3.827  0.00  0.00     0.012 A 
HETATM   37  C   UNK N   1      28.172  19.275   4.905  0.00  0.00     0.018 A 
HETATM   38  C   UNK N   1      27.790  19.723   6.171  0.00  0.00     0.087 A 
HETATM   39  N   UNK N   1      26.578  20.313   6.349  0.00  0.00    -0.375 N 
HETATM   40  C   UNK N   1      25.712  20.480   5.314  0.00  0.00     0.096 A 
ATOM     41  HN  UNK N   1      26.313  20.637   7.280  1.00  0.00     0.164 HD
ENDBRANCH  34  35
ENDBRANCH  33  34
ENDBRANCH  29  33
ENDBRANCH   1  28
TORSDOF 16
ENDMDL
MODEL 5
REMARK VINA RESULT:      -6.1     10.808     15.114
REMARK  16 active torsions:
REMARK  status: ('A' for Active; 'I' for Inactive)
REMARK    1  A    between atoms: C_14  and  C_13 
REMARK    2  A    between atoms: C_20  and  C_13 
REMARK    3  A    between atoms: C_23  and  C_14 
REMARK    4  A    between atoms: C_21  and  C_16 
REMARK    5  A    between atoms: C_24  and  C_16 
REMARK    6  A    between atoms: C_25  and  C_18 
REMARK    7  A    between atoms: O_34  and  C_18 
REMARK    8  A    between atoms: C_22  and  C_19 
REMARK    9  A    between atoms: O_38  and  C_19 
REMARK   10  A    between atoms: C_25  and  C_23 
REMARK   11  A    between atoms: C_23  and  N_30 
REMARK   12  A    between atoms: C_26  and  C_24 
REMARK   13  A    between atoms: C_24  and  N_32 
REMARK   14  A    between atoms: C_26  and  O_36 
REMARK   15  A    between atoms: C_27  and  O_37 
REMARK   16  A    between atoms: O_38  and  C_27 
ROOT
HETATM    1  C   UNK N   1      35.480  13.979   9.832  0.00  0.00     0.164 C 
ENDROOT
BRANCH   1   2
HETATM    2  C   UNK N   1      35.854  14.549  11.220  0.00  0.00     0.072 C 
BRANCH   2   3
HETATM    3  C   UNK N   1      36.431  13.697  12.326  0.00  0.00    -0.056 A 
HETATM    4  C   UNK N   1      36.130  14.052  13.648  0.00  0.00     0.007 A 
HETATM    5  C   UNK N   1      36.585  13.272  14.715  0.00  0.00     0.001 A 
HETATM    6  C   UNK N   1      37.337  12.122  14.470  0.00  0.00     0.000 A 
HETATM    7  C   UNK N   1      37.641  11.757  13.156  0.00  0.00     0.001 A 
HETATM    8  C   UNK N   1      37.189  12.542  12.090  0.00  0.00     0.007 A 
ENDBRANCH   2   3
ENDBRANCH   1   2
BRANCH   1   9
HETATM    9  C   UNK N   1      34.240  13.108   9.815  0.00  0.00     0.135 C 
HETATM   10  N   UNK N   1      34.396  11.823   9.781  0.00  0.00    -0.361 N 
ATOM     11  HN  UNK N   1      35.347  11.465   9.854  1.00  0.00     0.162 HD
BRANCH  10  12
HETATM   12  C   UNK N   1      33.326  10.852   9.647  0.00  0.00     0.155 C 
BRANCH  12  13
HETATM   13  C   UNK N   1      33.335   9.798  10.776  0.00  0.00     0.037 C 
BRANCH  13  14
HETATM   14  C   UNK N   1      34.698   9.581  11.427  0.00  0.00     0.041 C 
BRANCH  14  15
HETATM   15  C   UNK N   1      34.660   9.797  12.900  0.00  0.00    -0.058 A 
HETATM   16  C   UNK N   1      33.832  10.785  13.446  0.00  0.00     0.007 A 
HETATM   17  C   UNK N   1      33.759  10.948  14.833  0.00  0.00     0.001 A 
HETATM   18  C   UNK N   1      34.503  10.117  15.676  0.00  0.00     0.000 A 
HETATM   19  C   UNK N   1      35.326   9.127  15.131  0.00  0.00     0.001 A 
HETATM   20  C   UNK N   1      35.404   8.967  13.744  0.00  0.00     0.007 A 
ENDBRANCH  14  15
ENDBRANCH  13  14
ENDBRANCH  12  13
BRANCH  12  21
HETATM   21  C   UNK N   1      33.435  10.227   8.263  0.00  0.00     0.172 C 
HETATM   22  O   UNK N   1      33.517   9.011   8.162  0.00  0.00    -0.293 OA
BRANCH  21  23
HETATM   23  C   UNK N   1      33.497  11.040   7.000  0.00  0.00     0.244 C 
BRANCH  23  24
HETATM   24  O   UNK N   1      32.695  12.180   7.052  0.00  0.00    -0.394 OA
HETATM   25  H   UNK N   1      31.803  12.549   7.136  0.00  0.00     0.209 HD
ENDBRANCH  23  24
ENDBRANCH  21  23
ENDBRANCH  12  21
ENDBRANCH  10  12
BRANCH   9  26
HETATM   26  O   UNK N   1      33.008  13.661   9.786  0.00  0.00    -0.348 OA
HETATM   27  H   UNK N   1      32.229  13.853   9.303  0.00  0.00     0.219 HD
ENDBRANCH   9  26
ENDBRANCH   1   9
BRANCH   1  28
HETATM   28  N   UNK N   1      35.504  14.986   8.767  0.00  0.00    -0.338 N 
HETATM   29  C   UNK N   1      34.785  16.065   8.708  0.00  0.00     0.259 C 
ATOM     30  HN  UNK N   1      36.150  14.822   7.995  1.00  0.00     0.164 HD
BRANCH  29  31
HETATM   31  O   UNK N   1      33.953  16.414   9.720  0.00  0.00    -0.327 OA
HETATM   32  H   UNK N   1      33.198  16.788  10.127  0.00  0.00     0.221 HD
ENDBRANCH  29  31
BRANCH  29  33
HETATM   33  O   UNK N   1      34.875  16.867   7.620  0.00  0.00    -0.312 OA
BRANCH  33  34
HETATM   34  C   UNK N   1      33.751  17.390   7.012  0.00  0.00     0.219 C 
BRANCH  34  35
HETATM   35  C   UNK N   1      33.574  16.873   5.609  0.00  0.00    -0.019 A 
HETATM   36  C   UNK N   1      32.805  17.600   4.698  0.00  0.00     0.012 A 
HETATM   37  C   UNK N   1      32.638  17.128   3.395  0.00  0.00     0.018 A 
HETATM   38  C   UNK N   1      33.248  15.930   3.017  0.00  0.00     0.087 A 
HETATM   39  N   UNK N   1      33.996  15.233   3.914  0.00  0.00    -0.375 N 
HETATM   40  C   UNK N   1      34.168  15.674   5.188  0.00  0.00     0.096 A 
ATOM     41  HN  UNK N   1      34.438  14.361   3.622  1.00  0.00     0.164 HD
ENDBRANCH  34  35
ENDBRANCH  33  34
ENDBRANCH  29  33
ENDBRANCH   1  28
TORSDOF 16
ENDMDL
MODEL 6
REMARK VINA RESULT:      -6.1     11.806     16.738
REMARK  16 active torsions:
REMARK  status: ('A' for Active; 'I' for Inactive)
REMARK    1  A    between atoms: C_14  and  C_13 
REMARK    2  A    between atoms: C_20  and  C_13 
REMARK    3  A    between atoms: C_23  and  C_14 
REMARK    4  A    between atoms: C_21  and  C_16 
REMARK    5  A    between atoms: C_24  and  C_16 
REMARK    6  A    between atoms: C_25  and  C_18 
REMARK    7  A    between atoms: O_34  and  C_18 
REMARK    8  A    between atoms: C_22  and  C_19 
REMARK    9  A    between atoms: O_38  and  C_19 
REMARK   10  A    between atoms: C_25  and  C_23 
REMARK   11  A    between atoms: C_23  and  N_30 
REMARK   12  A    between atoms: C_26  and  C_24 
REMARK   13  A    between atoms: C_24  and  N_32 
REMARK   14  A    between atoms: C_26  and  O_36 
REMARK   15  A    between atoms: C_27  and  O_37 
REMARK   16  A    between atoms: O_38  and  C_27 
ROOT
HETATM    1  C   UNK N   1      36.000  15.228  10.931  0.00  0.00     0.164 C 
ENDROOT
BRANCH   1   2
HETATM    2  C   UNK N   1      35.115  16.483  10.748  0.00  0.00     0.072 C 
BRANCH   2   3
HETATM    3  C   UNK N   1      34.332  16.755   9.486  0.00  0.00    -0.056 A 
HETATM    4  C   UNK N   1      33.220  15.945   9.219  0.00  0.00     0.007 A 
HETATM    5  C   UNK N   1      32.419  16.180   8.098  0.00  0.00     0.001 A 
HETATM    6  C   UNK N   1      32.717  17.238   7.237  0.00  0.00     0.000 A 
HETATM    7  C   UNK N   1      33.821  18.055   7.494  0.00  0.00     0.001 A 
HETATM    8  C   UNK N   1      34.624  17.813   8.614  0.00  0.00     0.007 A 
ENDBRANCH   2   3
ENDBRANCH   1   2
BRANCH   1   9
HETATM    9  C   UNK N   1      35.548  14.283  12.025  0.00  0.00     0.135 C 
HETATM   10  N   UNK N   1      36.442  13.812  12.835  0.00  0.00    -0.361 N 
ATOM     11  HN  UNK N   1      37.392  14.170  12.743  1.00  0.00     0.162 HD
BRANCH  10  12
HETATM   12  C   UNK N   1      36.202  12.815  13.861  0.00  0.00     0.155 C 
BRANCH  12  13
HETATM   13  C   UNK N   1      36.258  13.405  15.288  0.00  0.00     0.037 C 
BRANCH  13  14
HETATM   14  C   UNK N   1      34.983  13.211  16.102  0.00  0.00     0.041 C 
BRANCH  14  15
HETATM   15  C   UNK N   1      35.230  12.465  17.367  0.00  0.00    -0.058 A 
HETATM   16  C   UNK N   1      35.668  11.136  17.328  0.00  0.00     0.007 A 
HETATM   17  C   UNK N   1      35.951  10.458  18.518  0.00  0.00     0.001 A 
HETATM   18  C   UNK N   1      35.808  11.110  19.746  0.00  0.00     0.000 A 
HETATM   19  C   UNK N   1      35.375  12.439  19.785  0.00  0.00     0.001 A 
HETATM   20  C   UNK N   1      35.087  13.116  18.597  0.00  0.00     0.007 A 
ENDBRANCH  14  15
ENDBRANCH  13  14
ENDBRANCH  12  13
BRANCH  12  21
HETATM   21  C   UNK N   1      37.201  11.685  13.656  0.00  0.00     0.172 C 
HETATM   22  O   UNK N   1      37.935  11.361  14.578  0.00  0.00    -0.293 OA
BRANCH  21  23
HETATM   23  C   UNK N   1      37.370  10.969  12.344  0.00  0.00     0.244 C 
BRANCH  23  24
HETATM   24  O   UNK N   1      37.979  11.762  11.372  0.00  0.00    -0.394 OA
HETATM   25  H   UNK N   1      37.884  12.468  10.714  0.00  0.00     0.209 HD
ENDBRANCH  23  24
ENDBRANCH  21  23
ENDBRANCH  12  21
ENDBRANCH  10  12
BRANCH   9  26
HETATM   26  O   UNK N   1      34.254  13.908  12.122  0.00  0.00    -0.348 OA
HETATM   27  H   UNK N   1      33.463  13.649  11.692  0.00  0.00     0.219 HD
ENDBRANCH   9  26
ENDBRANCH   1   9
BRANCH   1  28
HETATM   28  N   UNK N   1      36.316  14.554   9.668  0.00  0.00    -0.338 N 
HETATM   29  C   UNK N   1      37.499  14.241   9.235  0.00  0.00     0.259 C 
ATOM     30  HN  UNK N   1      35.528  14.306   9.069  1.00  0.00     0.164 HD
BRANCH  29  31
HETATM   31  O   UNK N   1      38.605  14.457   9.989  0.00  0.00    -0.327 OA
HETATM   32  H   UNK N   1      39.331  14.931  10.342  0.00  0.00     0.221 HD
ENDBRANCH  29  31
BRANCH  29  33
HETATM   33  O   UNK N   1      37.633  13.676   8.011  0.00  0.00    -0.312 OA
BRANCH  33  34
HETATM   34  C   UNK N   1      36.745  12.723   7.553  0.00  0.00     0.219 C 
BRANCH  34  35
HETATM   35  C   UNK N   1      35.879  13.246   6.439  0.00  0.00    -0.019 A 
HETATM   36  C   UNK N   1      35.657  14.621   6.326  0.00  0.00     0.012 A 
HETATM   37  C   UNK N   1      34.855  15.113   5.294  0.00  0.00     0.018 A 
HETATM   38  C   UNK N   1      34.288  14.221   4.381  0.00  0.00     0.087 A 
HETATM   39  N   UNK N   1      34.514  12.886   4.502  0.00  0.00    -0.375 N 
HETATM   40  C   UNK N   1      35.288  12.386   5.502  0.00  0.00     0.096 A 
ATOM     41  HN  UNK N   1      34.096  12.246   3.826  1.00  0.00     0.164 HD
ENDBRANCH  34  35
ENDBRANCH  33  34
ENDBRANCH  29  33
ENDBRANCH   1  28
TORSDOF 16
ENDMDL
MODEL 7
REMARK VINA RESULT:      -6.0      9.707     15.211
REMARK  16 active torsions:
REMARK  status: ('A' for Active; 'I' for Inactive)
REMARK    1  A    between atoms: C_14  and  C_13 
REMARK    2  A    between atoms: C_20  and  C_13 
REMARK    3  A    between atoms: C_23  and  C_14 
REMARK    4  A    between atoms: C_21  and  C_16 
REMARK    5  A    between atoms: C_24  and  C_16 
REMARK    6  A    between atoms: C_25  and  C_18 
REMARK    7  A    between atoms: O_34  and  C_18 
REMARK    8  A    between atoms: C_22  and  C_19 
REMARK    9  A    between atoms: O_38  and  C_19 
REMARK   10  A    between atoms: C_25  and  C_23 
REMARK   11  A    between atoms: C_23  and  N_30 
REMARK   12  A    between atoms: C_26  and  C_24 
REMARK   13  A    between atoms: C_24  and  N_32 
REMARK   14  A    between atoms: C_26  and  O_36 
REMARK   15  A    between atoms: C_27  and  O_37 
REMARK   16  A    between atoms: O_38  and  C_27 
ROOT
HETATM    1  C   UNK N   1      35.513  13.840  10.182  0.00  0.00     0.164 C 
ENDROOT
BRANCH   1   2
HETATM    2  C   UNK N   1      35.788  14.333  11.621  0.00  0.00     0.072 C 
BRANCH   2   3
HETATM    3  C   UNK N   1      36.386  13.448  12.689  0.00  0.00    -0.056 A 
HETATM    4  C   UNK N   1      37.134  12.338  12.273  0.00  0.00     0.007 A 
HETATM    5  C   UNK N   1      37.762  11.511  13.209  0.00  0.00     0.001 A 
HETATM    6  C   UNK N   1      37.657  11.794  14.572  0.00  0.00     0.000 A 
HETATM    7  C   UNK N   1      36.917  12.900  14.999  0.00  0.00     0.001 A 
HETATM    8  C   UNK N   1      36.286  13.722  14.059  0.00  0.00     0.007 A 
ENDBRANCH   2   3
ENDBRANCH   1   2
BRANCH   1   9
HETATM    9  C   UNK N   1      34.293  12.952  10.034  0.00  0.00     0.135 C 
HETATM   10  N   UNK N   1      34.458  11.670  10.097  0.00  0.00    -0.361 N 
ATOM     11  HN  UNK N   1      35.390  11.328  10.327  1.00  0.00     0.162 HD
BRANCH  10  12
HETATM   12  C   UNK N   1      33.424  10.680   9.865  0.00  0.00     0.155 C 
BRANCH  12  13
HETATM   13  C   UNK N   1      33.341   9.629  10.995  0.00  0.00     0.037 C 
BRANCH  13  14
HETATM   14  C   UNK N   1      34.670   9.344  11.689  0.00  0.00     0.041 C 
BRANCH  14  15
HETATM   15  C   UNK N   1      34.609   9.611  13.153  0.00  0.00    -0.058 A 
HETATM   16  C   UNK N   1      35.386   8.857  14.040  0.00  0.00     0.007 A 
HETATM   17  C   UNK N   1      35.366   9.147  15.408  0.00  0.00     0.001 A 
HETATM   18  C   UNK N   1      34.580  10.199  15.889  0.00  0.00     0.000 A 
HETATM   19  C   UNK N   1      33.808  10.956  15.002  0.00  0.00     0.001 A 
HETATM   20  C   UNK N   1      33.823  10.663  13.636  0.00  0.00     0.007 A 
ENDBRANCH  14  15
ENDBRANCH  13  14
ENDBRANCH  12  13
BRANCH  12  21
HETATM   21  C   UNK N   1      33.677  10.051   8.502  0.00  0.00     0.172 C 
HETATM   22  O   UNK N   1      34.824   9.961   8.089  0.00  0.00    -0.293 OA
BRANCH  21  23
HETATM   23  C   UNK N   1      32.571   9.574   7.601  0.00  0.00     0.244 C 
BRANCH  23  24
HETATM   24  O   UNK N   1      31.334   9.529   8.244  0.00  0.00    -0.394 OA
HETATM   25  H   UNK N   1      30.406   9.808   8.253  0.00  0.00     0.209 HD
ENDBRANCH  23  24
ENDBRANCH  21  23
ENDBRANCH  12  21
ENDBRANCH  10  12
BRANCH   9  26
HETATM   26  O   UNK N   1      33.076  13.487   9.796  0.00  0.00    -0.348 OA
HETATM   27  H   UNK N   1      32.396  14.075  10.059  0.00  0.00     0.219 HD
ENDBRANCH   9  26
ENDBRANCH   1   9
BRANCH   1  28
HETATM   28  N   UNK N   1      35.586  14.907   9.179  0.00  0.00    -0.338 N 
HETATM   29  C   UNK N   1      34.869  15.989   9.150  0.00  0.00     0.259 C 
ATOM     30  HN  UNK N   1      36.268  14.788   8.431  1.00  0.00     0.164 HD
BRANCH  29  31
HETATM   31  O   UNK N   1      33.990  16.278  10.139  0.00  0.00    -0.327 OA
HETATM   32  H   UNK N   1      33.548  16.803  10.777  0.00  0.00     0.221 HD
ENDBRANCH  29  31
BRANCH  29  33
HETATM   33  O   UNK N   1      35.009  16.853   8.116  0.00  0.00    -0.312 OA
BRANCH  33  34
HETATM   34  C   UNK N   1      34.145  17.915   7.939  0.00  0.00     0.219 C 
BRANCH  34  35
HETATM   35  C   UNK N   1      33.040  17.590   6.971  0.00  0.00    -0.019 A 
HETATM   36  C   UNK N   1      31.751  17.346   7.451  0.00  0.00     0.012 A 
HETATM   37  C   UNK N   1      30.721  17.044   6.559  0.00  0.00     0.018 A 
HETATM   38  C   UNK N   1      30.992  16.995   5.190  0.00  0.00     0.087 A 
HETATM   39  N   UNK N   1      32.251  17.237   4.735  0.00  0.00    -0.375 N 
HETATM   40  C   UNK N   1      33.269  17.527   5.588  0.00  0.00     0.096 A 
ATOM     41  HN  UNK N   1      32.434  17.200   3.732  1.00  0.00     0.164 HD
ENDBRANCH  34  35
ENDBRANCH  33  34
ENDBRANCH  29  33
ENDBRANCH   1  28
TORSDOF 16
ENDMDL
MODEL 8
REMARK VINA RESULT:      -6.0      1.958      3.243
REMARK  16 active torsions:
REMARK  status: ('A' for Active; 'I' for Inactive)
REMARK    1  A    between atoms: C_14  and  C_13 
REMARK    2  A    between atoms: C_20  and  C_13 
REMARK    3  A    between atoms: C_23  and  C_14 
REMARK    4  A    between atoms: C_21  and  C_16 
REMARK    5  A    between atoms: C_24  and  C_16 
REMARK    6  A    between atoms: C_25  and  C_18 
REMARK    7  A    between atoms: O_34  and  C_18 
REMARK    8  A    between atoms: C_22  and  C_19 
REMARK    9  A    between atoms: O_38  and  C_19 
REMARK   10  A    between atoms: C_25  and  C_23 
REMARK   11  A    between atoms: C_23  and  N_30 
REMARK   12  A    between atoms: C_26  and  C_24 
REMARK   13  A    between atoms: C_24  and  N_32 
REMARK   14  A    between atoms: C_26  and  O_36 
REMARK   15  A    between atoms: C_27  and  O_37 
REMARK   16  A    between atoms: O_38  and  C_27 
ROOT
HETATM    1  C   UNK N   1      25.375  18.591   4.313  0.00  0.00     0.164 C 
ENDROOT
BRANCH   1   2
HETATM    2  C   UNK N   1      25.977  17.465   3.441  0.00  0.00     0.072 C 
BRANCH   2   3
HETATM    3  C   UNK N   1      27.050  16.528   3.942  0.00  0.00    -0.056 A 
HETATM    4  C   UNK N   1      26.687  15.573   4.902  0.00  0.00     0.007 A 
HETATM    5  C   UNK N   1      27.619  14.640   5.365  0.00  0.00     0.001 A 
HETATM    6  C   UNK N   1      28.921  14.644   4.862  0.00  0.00     0.000 A 
HETATM    7  C   UNK N   1      29.293  15.588   3.902  0.00  0.00     0.001 A 
HETATM    8  C   UNK N   1      28.360  16.525   3.445  0.00  0.00     0.007 A 
ENDBRANCH   2   3
ENDBRANCH   1   2
BRANCH   1   9
HETATM    9  C   UNK N   1      23.896  18.447   4.609  0.00  0.00     0.135 C 
HETATM   10  N   UNK N   1      23.058  18.600   3.634  0.00  0.00    -0.361 N 
ATOM     11  HN  UNK N   1      23.446  18.727   2.699  1.00  0.00     0.162 HD
BRANCH  10  12
HETATM   12  C   UNK N   1      21.614  18.607   3.762  0.00  0.00     0.155 C 
BRANCH  12  13
HETATM   13  C   UNK N   1      20.952  17.371   3.114  0.00  0.00     0.037 C 
BRANCH  13  14
HETATM   14  C   UNK N   1      21.405  16.035   3.695  0.00  0.00     0.041 C 
BRANCH  14  15
HETATM   15  C   UNK N   1      22.285  15.282   2.758  0.00  0.00    -0.058 A 
HETATM   16  C   UNK N   1      23.595  14.957   3.129  0.00  0.00     0.007 A 
HETATM   17  C   UNK N   1      24.400  14.204   2.267  0.00  0.00     0.001 A 
HETATM   18  C   UNK N   1      23.891  13.765   1.041  0.00  0.00     0.000 A 
HETATM   19  C   UNK N   1      22.581  14.085   0.673  0.00  0.00     0.001 A 
HETATM   20  C   UNK N   1      21.778  14.842   1.531  0.00  0.00     0.007 A 
ENDBRANCH  14  15
ENDBRANCH  13  14
ENDBRANCH  12  13
BRANCH  12  21
HETATM   21  C   UNK N   1      21.100  19.917   3.179  0.00  0.00     0.172 C 
HETATM   22  O   UNK N   1      20.311  20.590   3.826  0.00  0.00    -0.293 OA
BRANCH  21  23
HETATM   23  C   UNK N   1      21.480  20.408   1.810  0.00  0.00     0.244 C 
BRANCH  23  24
HETATM   24  O   UNK N   1      20.704  19.840   0.799  0.00  0.00    -0.394 OA
HETATM   25  H   UNK N   1      19.832  19.526   0.517  0.00  0.00     0.209 HD
ENDBRANCH  23  24
ENDBRANCH  21  23
ENDBRANCH  12  21
ENDBRANCH  10  12
BRANCH   9  26
HETATM   26  O   UNK N   1      23.464  18.212   5.867  0.00  0.00    -0.348 OA
HETATM   27  H   UNK N   1      22.788  18.300   6.510  0.00  0.00     0.219 HD
ENDBRANCH   9  26
ENDBRANCH   1   9
BRANCH   1  28
HETATM   28  N   UNK N   1      26.182  18.901   5.497  0.00  0.00    -0.338 N 
HETATM   29  C   UNK N   1      26.946  19.938   5.660  0.00  0.00     0.259 C 
ATOM     30  HN  UNK N   1      26.139  18.236   6.270  1.00  0.00     0.164 HD
BRANCH  29  31
HETATM   31  O   UNK N   1      27.013  20.918   4.727  0.00  0.00    -0.327 OA
HETATM   32  H   UNK N   1      27.254  21.328   3.920  0.00  0.00     0.221 HD
ENDBRANCH  29  31
BRANCH  29  33
HETATM   33  O   UNK N   1      27.683  20.050   6.792  0.00  0.00    -0.312 OA
BRANCH  33  34
HETATM   34  C   UNK N   1      27.632  19.095   7.787  0.00  0.00     0.219 C 
BRANCH  34  35
HETATM   35  C   UNK N   1      28.958  18.411   7.984  0.00  0.00    -0.019 A 
HETATM   36  C   UNK N   1      29.461  17.579   6.980  0.00  0.00     0.012 A 
HETATM   37  C   UNK N   1      30.691  16.943   7.156  0.00  0.00     0.018 A 
HETATM   38  C   UNK N   1      31.409  17.151   8.336  0.00  0.00     0.087 A 
HETATM   39  N   UNK N   1      30.908  17.965   9.304  0.00  0.00    -0.375 N 
HETATM   40  C   UNK N   1      29.710  18.590   9.154  0.00  0.00     0.096 A 
ATOM     41  HN  UNK N   1      31.445  18.109  10.159  1.00  0.00     0.164 HD
ENDBRANCH  34  35
ENDBRANCH  33  34
ENDBRANCH  29  33
ENDBRANCH   1  28
TORSDOF 16
ENDMDL
MODEL 9
REMARK VINA RESULT:      -6.0      8.935     13.881
REMARK  16 active torsions:
REMARK  status: ('A' for Active; 'I' for Inactive)
REMARK    1  A    between atoms: C_14  and  C_13 
REMARK    2  A    between atoms: C_20  and  C_13 
REMARK    3  A    between atoms: C_23  and  C_14 
REMARK    4  A    between atoms: C_21  and  C_16 
REMARK    5  A    between atoms: C_24  and  C_16 
REMARK    6  A    between atoms: C_25  and  C_18 
REMARK    7  A    between atoms: O_34  and  C_18 
REMARK    8  A    between atoms: C_22  and  C_19 
REMARK    9  A    between atoms: O_38  and  C_19 
REMARK   10  A    between atoms: C_25  and  C_23 
REMARK   11  A    between atoms: C_23  and  N_30 
REMARK   12  A    between atoms: C_26  and  C_24 
REMARK   13  A    between atoms: C_24  and  N_32 
REMARK   14  A    between atoms: C_26  and  O_36 
REMARK   15  A    between atoms: C_27  and  O_37 
REMARK   16  A    between atoms: O_38  and  C_27 
ROOT
HETATM    1  C   UNK N   1      35.490  14.691  10.782  0.00  0.00     0.164 C 
ENDROOT
BRANCH   1   2
HETATM    2  C   UNK N   1      35.716  13.623   9.687  0.00  0.00     0.072 C 
BRANCH   2   3
HETATM    3  C   UNK N   1      37.090  13.236   9.194  0.00  0.00    -0.056 A 
HETATM    4  C   UNK N   1      37.378  13.438   7.837  0.00  0.00     0.007 A 
HETATM    5  C   UNK N   1      38.649  13.154   7.328  0.00  0.00     0.001 A 
HETATM    6  C   UNK N   1      39.649  12.676   8.176  0.00  0.00     0.000 A 
HETATM    7  C   UNK N   1      39.376  12.474   9.531  0.00  0.00     0.001 A 
HETATM    8  C   UNK N   1      38.101  12.753  10.036  0.00  0.00     0.007 A 
ENDBRANCH   2   3
ENDBRANCH   1   2
BRANCH   1   9
HETATM    9  C   UNK N   1      34.764  15.937  10.317  0.00  0.00     0.135 C 
HETATM   10  N   UNK N   1      33.936  15.830   9.327  0.00  0.00    -0.361 N 
ATOM     11  HN  UNK N   1      33.753  14.893   8.970  1.00  0.00     0.162 HD
BRANCH  10  12
HETATM   12  C   UNK N   1      33.247  16.934   8.688  0.00  0.00     0.155 C 
BRANCH  12  13
HETATM   13  C   UNK N   1      31.821  16.560   8.227  0.00  0.00     0.037 C 
BRANCH  13  14
HETATM   14  C   UNK N   1      30.816  17.706   8.292  0.00  0.00     0.041 C 
BRANCH  14  15
HETATM   15  C   UNK N   1      29.911  17.728   7.109  0.00  0.00    -0.058 A 
HETATM   16  C   UNK N   1      28.608  18.226   7.228  0.00  0.00     0.007 A 
HETATM   17  C   UNK N   1      27.779  18.294   6.103  0.00  0.00     0.001 A 
HETATM   18  C   UNK N   1      28.257  17.878   4.857  0.00  0.00     0.000 A 
HETATM   19  C   UNK N   1      29.560  17.386   4.737  0.00  0.00     0.001 A 
HETATM   20  C   UNK N   1      30.386  17.312   5.862  0.00  0.00     0.007 A 
ENDBRANCH  14  15
ENDBRANCH  13  14
ENDBRANCH  12  13
BRANCH  12  21
HETATM   21  C   UNK N   1      34.121  17.426   7.541  0.00  0.00     0.172 C 
HETATM   22  O   UNK N   1      34.704  18.495   7.650  0.00  0.00    -0.293 OA
BRANCH  21  23
HETATM   23  C   UNK N   1      34.266  16.680   6.244  0.00  0.00     0.244 C 
BRANCH  23  24
HETATM   24  O   UNK N   1      35.271  15.714   6.288  0.00  0.00    -0.394 OA
HETATM   25  H   UNK N   1      35.915  15.227   6.826  0.00  0.00     0.209 HD
ENDBRANCH  23  24
ENDBRANCH  21  23
ENDBRANCH  12  21
ENDBRANCH  10  12
BRANCH   9  26
HETATM   26  O   UNK N   1      35.014  17.135  10.890  0.00  0.00    -0.348 OA
HETATM   27  H   UNK N   1      34.682  17.941  11.234  0.00  0.00     0.219 HD
ENDBRANCH   9  26
ENDBRANCH   1   9
BRANCH   1  28
HETATM   28  N   UNK N   1      34.961  14.136  12.032  0.00  0.00    -0.338 N 
HETATM   29  C   UNK N   1      35.642  13.852  13.099  0.00  0.00     0.259 C 
ATOM     30  HN  UNK N   1      33.957  13.957  12.066  1.00  0.00     0.164 HD
BRANCH  29  31
HETATM   31  O   UNK N   1      36.966  14.125  13.184  0.00  0.00    -0.327 OA
HETATM   32  H   UNK N   1      37.876  14.063  12.972  0.00  0.00     0.221 HD
ENDBRANCH  29  31
BRANCH  29  33
HETATM   33  O   UNK N   1      35.016  13.281  14.157  0.00  0.00    -0.312 OA
BRANCH  33  34
HETATM   34  C   UNK N   1      35.561  12.203  14.825  0.00  0.00     0.219 C 
BRANCH  34  35
HETATM   35  C   UNK N   1      35.448  12.346  16.319  0.00  0.00    -0.019 A 
HETATM   36  C   UNK N   1      35.315  13.618  16.881  0.00  0.00     0.012 A 
HETATM   37  C   UNK N   1      35.208  13.758  18.266  0.00  0.00     0.018 A 
HETATM   38  C   UNK N   1      35.230  12.619  19.075  0.00  0.00     0.087 A 
HETATM   39  N   UNK N   1      35.357  11.387  18.513  0.00  0.00    -0.375 N 
HETATM   40  C   UNK N   1      35.468  11.229  17.167  0.00  0.00     0.096 A 
ATOM     41  HN  UNK N   1      35.369  10.564  19.116  1.00  0.00     0.164 HD
ENDBRANCH  34  35
ENDBRANCH  33  34
ENDBRANCH  29  33
ENDBRANCH   1  28
TORSDOF 16
ENDMDL
