REMARK  15 active torsions:
REMARK  status: ('A' for Active; 'I' for Inactive)
REMARK    1  A    between atoms: C_1  and  O_2 
REMARK    2  A    between atoms: C_5  and  O_2 
REMARK    3  A    between atoms: C_4  and  O_8 
REMARK    4  A    between atoms: C_6  and  C_12 
REMARK    5  A    between atoms: C_7  and  O_13 
REMARK    6  A    between atoms: C_10  and  O_16 
REMARK    7  A    between atoms: C_11  and  O_17 
REMARK    8  A    between atoms: C_12  and  O_18 
REMARK    9  A    between atoms: C_14  and  C_20 
REMARK   10  A    between atoms: C_15  and  O_21 
REMARK   11  A    between atoms: O_18  and  P_22 
REMARK   12  A    between atoms: C_19  and  O_23 
REMARK   13  A    between atoms: C_20  and  O_24 
REMARK   14  A    between atoms: P_22  and  O_25 
REMARK   15  A    between atoms: P_22  and  O_26 
ROOT
HETATM    1  C   UNK N   1       0.031   0.316  -0.096  0.00  0.00     0.294 C 
HETATM    2  O   UNK N   1       1.197   0.783  -0.750  0.00  0.00    -0.348 OA
HETATM    3  C   UNK N   1       0.210  -1.188   0.250  0.00  0.00     0.204 C 
HETATM    4  C   UNK N   1       2.304   0.724   0.122  0.00  0.00     0.180 C 
HETATM    5  C   UNK N   1       1.496  -1.415   1.030  0.00  0.00     0.183 C 
HETATM    6  C   UNK N   1       2.673  -0.750   0.340  0.00  0.00     0.180 C 
ENDROOT
BRANCH   1   7
HETATM    7  O   UNK N   1      -1.035   0.516  -1.005  0.00  0.00    -0.326 OA
BRANCH   7   8
HETATM    8  C   UNK N   1      -2.269   0.238  -0.391  0.00  0.00     0.294 C 
HETATM    9  O   UNK N   1      -3.071   1.397  -0.383  0.00  0.00    -0.348 OA
HETATM   10  C   UNK N   1      -4.217   1.134   0.405  0.00  0.00     0.179 C 
HETATM   11  C   UNK N   1      -5.100   0.073  -0.286  0.00  0.00     0.180 C 
HETATM   12  C   UNK N   1      -4.280  -1.195  -0.492  0.00  0.00     0.183 C 
HETATM   13  C   UNK N   1      -2.984  -0.849  -1.207  0.00  0.00     0.204 C 
BRANCH  10  14
HETATM   14  C   UNK N   1      -4.980   2.444   0.581  0.00  0.00     0.198 C 
BRANCH  14  15
HETATM   15  O   UNK N   1      -6.027   2.295   1.492  0.00  0.00    -0.398 OA
HETATM   16  H   UNK N   1      -6.481   2.874   2.125  0.00  0.00     0.209 HD
ENDBRANCH  14  15
ENDBRANCH  10  14
BRANCH  11  17
HETATM   17  O   UNK N   1      -6.218  -0.232   0.495  0.00  0.00    -0.390 OA
HETATM   18  H   UNK N   1      -6.789   0.334   1.036  0.00  0.00     0.210 HD
ENDBRANCH  11  17
BRANCH  12  19
HETATM   19  O   UNK N   1      -5.007  -2.125  -1.237  0.00  0.00    -0.390 OA
HETATM   20  H   UNK N   1      -5.819  -2.011  -1.755  0.00  0.00     0.210 HD
ENDBRANCH  12  19
BRANCH  13  21
HETATM   21  O   UNK N   1      -2.194  -1.992  -1.334  0.00  0.00    -0.388 OA
HETATM   22  H   UNK N   1      -2.608  -2.865  -1.421  0.00  0.00     0.210 HD
ENDBRANCH  13  21
ENDBRANCH   7   8
ENDBRANCH   1   7
BRANCH   3  23
HETATM   23  O   UNK N   1      -0.848  -1.641   1.042  0.00  0.00    -0.388 OA
HETATM   24  H   UNK N   1      -1.488  -1.162   1.592  0.00  0.00     0.210 HD
ENDBRANCH   3  23
BRANCH   4  25
HETATM   25  C   UNK N   1       3.447   1.500  -0.533  0.00  0.00     0.215 C 
BRANCH  25  26
HETATM   26  O   UNK N   1       4.561   1.601   0.311  0.00  0.00    -0.294 OA
BRANCH  26  27
HETATM   27  P   UNK N   1       5.929   1.256  -0.711  0.00  0.00     0.390 P 
HETATM   28  O   UNK N   1       6.218   0.325   0.495  0.00  0.00    -0.632 OA
BRANCH  27  29
HETATM   29  O   UNK N   1       7.541   1.718  -0.263  0.00  0.00    -0.307 OA
HETATM   30  H   UNK N   1       8.215   1.067  -0.012  0.00  0.00     0.222 HD
ENDBRANCH  27  29
BRANCH  27  31
HETATM   31  O   UNK N   1       5.998   2.907  -0.174  0.00  0.00    -0.307 OA
HETATM   32  H   UNK N   1       6.815   3.334   0.126  0.00  0.00     0.222 HD
ENDBRANCH  27  31
ENDBRANCH  26  27
ENDBRANCH  25  26
ENDBRANCH   4  25
BRANCH   5  33
HETATM   33  O   UNK N   1       1.732  -2.784   1.167  0.00  0.00    -0.390 OA
HETATM   34  H   UNK N   1       0.990  -3.401   1.262  0.00  0.00     0.210 HD
ENDBRANCH   5  33
BRANCH   6  35
HETATM   35  O   UNK N   1       3.794  -0.875   1.161  0.00  0.00    -0.390 OA
HETATM   36  H   UNK N   1       4.108  -1.594   1.731  0.00  0.00     0.210 HD
ENDBRANCH   6  35
TORSDOF 15
