MODEL 1
REMARK VINA RESULT:      -7.2      0.000      0.000
REMARK  11 active torsions:
REMARK  status: ('A' for Active; 'I' for Inactive)
REMARK    1  A    between atoms: C_2  and  C_4 
REMARK    2  A    between atoms: C_4  and  C_5 
REMARK    3  A    between atoms: C_5  and  N_6 
REMARK    4  A    between atoms: N_6  and  C_7 
REMARK    5  A    between atoms: N_6  and  S_33 
REMARK    6  A    between atoms: C_7  and  C_8 
REMARK    7  A    between atoms: C_8  and  O_9 
REMARK    8  A    between atoms: C_10  and  C_8 
REMARK    9  A    between atoms: C_23  and  C_24 
REMARK   10  A    between atoms: C_24  and  C_25 
REMARK       I    between atoms: C_25  and  N_26 
REMARK   11  A    between atoms: S_33  and  C_36 
ROOT
HETATM    1  C   UNK N   1      28.854  24.191  -3.620  0.00  0.00     0.118 C 
HETATM    2  C   UNK N   1      27.466  24.187  -4.292  0.00  0.00     0.066 C 
HETATM    3  C   UNK N   1      27.469  23.760  -5.738  0.00  0.00    -0.056 A 
HETATM    4  C   UNK N   1      26.352  23.098  -6.255  0.00  0.00     0.010 A 
HETATM    5  C   UNK N   1      26.430  22.459  -7.497  0.00  0.00     0.037 A 
HETATM    6  C   UNK N   1      27.637  22.449  -8.202  0.00  0.00     0.068 A 
HETATM    7  O   UNK N   1      27.771  21.655  -9.287  0.00  0.00    -0.351 OA
HETATM    8  C   UNK N   1      29.020  21.247  -9.711  0.00  0.00     0.176 C 
HETATM    9  C   UNK N   1      29.390  19.888  -9.104  0.00  0.00     0.036 C 
HETATM   10  C   UNK N   1      29.173  19.776  -7.586  0.00  0.00     0.105 C 
HETATM   11  C   UNK N   1      30.364  20.136  -6.731  0.00  0.00     0.218 C 
HETATM   12  O   UNK N   1      31.465  19.687  -7.007  0.00  0.00    -0.274 OA
HETATM   13  N   UNK N   1      30.161  20.860  -5.592  0.00  0.00    -0.347 N 
HETATM   14  C   UNK N   1      31.134  21.203  -4.548  0.00  0.00     0.185 C 
HETATM   15  C   UNK N   1      30.741  22.486  -3.844  0.00  0.00     0.241 C 
HETATM   16  O   UNK N   1      31.513  23.051  -3.078  0.00  0.00    -0.271 OA
HETATM   17  N   UNK N   1      29.507  22.975  -4.073  0.00  0.00    -0.352 N 
HETATM   18  C   UNK N   1      28.732  23.177  -7.716  0.00  0.00     0.037 A 
HETATM   19  C   UNK N   1      28.643  23.833  -6.502  0.00  0.00     0.010 A 
HETATM   20  H   UNK N   1      29.245  21.197  -5.455  0.00  0.00     0.163 HD
HETATM   21  H   UNK N   1      28.946  22.407  -4.649  0.00  0.00     0.163 HD
ENDROOT
BRANCH   1  22
HETATM   22  C   UNK N   1      29.624  25.461  -4.040  0.00  0.00     0.155 C 
BRANCH  22  23
HETATM   23  C   UNK N   1      28.768  26.727  -4.285  0.00  0.00     0.141 C 
BRANCH  23  24
HETATM   24  N   UNK N   1      29.447  27.945  -4.770  0.00  0.00    -0.204 NA
BRANCH  24  25
HETATM   25  C   UNK N   1      29.150  29.181  -4.051  0.00  0.00     0.108 C 
BRANCH  25  26
HETATM   26  C   UNK N   1      28.110  28.888  -2.979  0.00  0.00     0.019 C 
BRANCH  26  27
HETATM   27  C   UNK N   1      26.782  29.570  -3.263  0.00  0.00    -0.022 C 
HETATM   28  C   UNK N   1      26.925  30.571  -4.394  0.00  0.00     0.009 C 
HETATM   29  C   UNK N   1      25.775  28.518  -3.678  0.00  0.00     0.009 C 
ENDBRANCH  26  27
ENDBRANCH  25  26
ENDBRANCH  24  25
BRANCH  24  30
HETATM   30  S   UNK N   1      29.369  28.118  -6.548  0.00  0.00     0.243 S 
HETATM   31  O   UNK N   1      30.745  27.737  -7.117  0.00  0.00    -0.206 OA
HETATM   32  O   UNK N   1      29.311  29.632  -6.817  0.00  0.00    -0.206 OA
BRANCH  30  33
HETATM   33  C   UNK N   1      28.009  27.333  -7.385  0.00  0.00     0.074 A 
HETATM   34  C   UNK N   1      28.197  26.775  -8.651  0.00  0.00     0.025 A 
HETATM   35  C   UNK N   1      27.139  26.123  -9.289  0.00  0.00     0.002 A 
HETATM   36  C   UNK N   1      25.895  26.025  -8.658  0.00  0.00     0.000 A 
HETATM   37  C   UNK N   1      25.706  26.583  -7.390  0.00  0.00     0.002 A 
HETATM   38  C   UNK N   1      26.765  27.235  -6.752  0.00  0.00     0.025 A 
ENDBRANCH  30  33
ENDBRANCH  24  30
ENDBRANCH  23  24
ENDBRANCH  22  23
BRANCH  22  39
HETATM   39  O   UNK N   1      30.657  25.751  -3.152  0.00  0.00    -0.392 OA
HETATM   40  H   UNK N   1      30.568  26.440  -2.476  0.00  0.00     0.210 HD
ENDBRANCH  22  39
ENDBRANCH   1  22
BRANCH  14  41
HETATM   41  C   UNK N   1      32.604  21.083  -4.938  0.00  0.00     0.137 C 
BRANCH  41  42
HETATM   42  C   UNK N   1      33.318  20.245  -3.922  0.00  0.00     0.217 C 
HETATM   43  N   UNK N   1      33.449  20.692  -2.659  0.00  0.00    -0.370 N 
HETATM   44  H   UNK N   1      33.893  20.217  -1.920  0.00  0.00     0.159 HD
HETATM   45  H   UNK N   1      33.064  21.576  -2.456  0.00  0.00     0.159 HD
HETATM   46  O   UNK N   1      33.804  19.170  -4.238  0.00  0.00    -0.274 OA
ENDBRANCH  41  42
ENDBRANCH  14  41
TORSDOF 11
ENDMDL
MODEL 2
REMARK VINA RESULT:      -7.2     14.603     17.110
REMARK  11 active torsions:
REMARK  status: ('A' for Active; 'I' for Inactive)
REMARK    1  A    between atoms: C_2  and  C_4 
REMARK    2  A    between atoms: C_4  and  C_5 
REMARK    3  A    between atoms: C_5  and  N_6 
REMARK    4  A    between atoms: N_6  and  C_7 
REMARK    5  A    between atoms: N_6  and  S_33 
REMARK    6  A    between atoms: C_7  and  C_8 
REMARK    7  A    between atoms: C_8  and  O_9 
REMARK    8  A    between atoms: C_10  and  C_8 
REMARK    9  A    between atoms: C_23  and  C_24 
REMARK   10  A    between atoms: C_24  and  C_25 
REMARK       I    between atoms: C_25  and  N_26 
REMARK   11  A    between atoms: S_33  and  C_36 
ROOT
HETATM    1  C   UNK N   1      23.229  16.217   4.488  0.00  0.00     0.118 C 
HETATM    2  C   UNK N   1      23.913  14.879   4.139  0.00  0.00     0.066 C 
HETATM    3  C   UNK N   1      24.300  14.041   5.331  0.00  0.00    -0.056 A 
HETATM    4  C   UNK N   1      24.296  12.648   5.214  0.00  0.00     0.010 A 
HETATM    5  C   UNK N   1      24.387  11.850   6.359  0.00  0.00     0.037 A 
HETATM    6  C   UNK N   1      24.441  12.447   7.623  0.00  0.00     0.068 A 
HETATM    7  O   UNK N   1      24.311  11.682   8.729  0.00  0.00    -0.351 OA
HETATM    8  C   UNK N   1      23.883  12.234   9.921  0.00  0.00     0.176 C 
HETATM    9  C   UNK N   1      22.363  12.101  10.073  0.00  0.00     0.036 C 
HETATM   10  C   UNK N   1      21.547  12.543   8.847  0.00  0.00     0.105 C 
HETATM   11  C   UNK N   1      21.112  13.988   8.841  0.00  0.00     0.218 C 
HETATM   12  O   UNK N   1      20.612  14.473   9.844  0.00  0.00    -0.274 OA
HETATM   13  N   UNK N   1      21.175  14.689   7.673  0.00  0.00    -0.347 N 
HETATM   14  C   UNK N   1      20.681  16.044   7.398  0.00  0.00     0.185 C 
HETATM   15  C   UNK N   1      21.474  16.692   6.281  0.00  0.00     0.241 C 
HETATM   16  O   UNK N   1      21.356  17.885   6.028  0.00  0.00    -0.271 OA
HETATM   17  N   UNK N   1      22.299  15.907   5.560  0.00  0.00    -0.352 N 
HETATM   18  C   UNK N   1      24.521  13.841   7.730  0.00  0.00     0.037 A 
HETATM   19  C   UNK N   1      24.461  14.628   6.595  0.00  0.00     0.010 A 
HETATM   20  H   UNK N   1      21.608  14.228   6.918  0.00  0.00     0.163 HD
HETATM   21  H   UNK N   1      22.265  14.953   5.802  0.00  0.00     0.163 HD
ENDROOT
BRANCH   1  22
HETATM   22  C   UNK N   1      24.298  17.243   4.917  0.00  0.00     0.155 C 
BRANCH  22  23
HETATM   23  C   UNK N   1      25.662  17.149   4.194  0.00  0.00     0.141 C 
BRANCH  23  24
HETATM   24  N   UNK N   1      26.803  17.900   4.754  0.00  0.00    -0.204 NA
BRANCH  24  25
HETATM   25  C   UNK N   1      27.299  19.016   3.953  0.00  0.00     0.108 C 
BRANCH  25  26
HETATM   26  C   UNK N   1      27.885  20.068   4.884  0.00  0.00     0.019 C 
BRANCH  26  27
HETATM   27  C   UNK N   1      26.941  20.421   6.020  0.00  0.00    -0.022 C 
HETATM   28  C   UNK N   1      27.671  20.400   7.350  0.00  0.00     0.009 C 
HETATM   29  C   UNK N   1      26.405  21.819   5.790  0.00  0.00     0.009 C 
ENDBRANCH  26  27
ENDBRANCH  25  26
ENDBRANCH  24  25
BRANCH  24  30
HETATM   30  S   UNK N   1      28.099  16.833   5.368  0.00  0.00     0.243 S 
HETATM   31  O   UNK N   1      29.236  16.833   4.333  0.00  0.00    -0.206 OA
HETATM   32  O   UNK N   1      27.550  15.400   5.250  0.00  0.00    -0.206 OA
BRANCH  30  33
HETATM   33  C   UNK N   1      28.654  17.100   7.037  0.00  0.00     0.074 A 
HETATM   34  C   UNK N   1      29.987  17.434   7.285  0.00  0.00     0.025 A 
HETATM   35  C   UNK N   1      30.411  17.684   8.593  0.00  0.00     0.002 A 
HETATM   36  C   UNK N   1      29.501  17.603   9.651  0.00  0.00     0.000 A 
HETATM   37  C   UNK N   1      28.166  17.269   9.403  0.00  0.00     0.002 A 
HETATM   38  C   UNK N   1      27.742  17.020   8.096  0.00  0.00     0.025 A 
ENDBRANCH  30  33
ENDBRANCH  24  30
ENDBRANCH  23  24
ENDBRANCH  22  23
BRANCH  22  39
HETATM   39  O   UNK N   1      23.814  18.547   4.850  0.00  0.00    -0.392 OA
HETATM   40  H   UNK N   1      22.910  18.767   5.122  0.00  0.00     0.210 HD
ENDBRANCH  22  39
ENDBRANCH   1  22
BRANCH  14  41
HETATM   41  C   UNK N   1      20.419  16.920   8.620  0.00  0.00     0.137 C 
BRANCH  41  42
HETATM   42  C   UNK N   1      18.952  17.206   8.717  0.00  0.00     0.217 C 
HETATM   43  N   UNK N   1      18.518  18.223   9.485  0.00  0.00    -0.370 N 
HETATM   44  H   UNK N   1      17.579  18.495   9.610  0.00  0.00     0.159 HD
HETATM   45  H   UNK N   1      19.202  18.743   9.967  0.00  0.00     0.159 HD
HETATM   46  O   UNK N   1      18.145  16.508   8.124  0.00  0.00    -0.274 OA
ENDBRANCH  41  42
ENDBRANCH  14  41
TORSDOF 11
ENDMDL
MODEL 3
REMARK VINA RESULT:      -7.0     14.304     16.762
REMARK  11 active torsions:
REMARK  status: ('A' for Active; 'I' for Inactive)
REMARK    1  A    between atoms: C_2  and  C_4 
REMARK    2  A    between atoms: C_4  and  C_5 
REMARK    3  A    between atoms: C_5  and  N_6 
REMARK    4  A    between atoms: N_6  and  C_7 
REMARK    5  A    between atoms: N_6  and  S_33 
REMARK    6  A    between atoms: C_7  and  C_8 
REMARK    7  A    between atoms: C_8  and  O_9 
REMARK    8  A    between atoms: C_10  and  C_8 
REMARK    9  A    between atoms: C_23  and  C_24 
REMARK   10  A    between atoms: C_24  and  C_25 
REMARK       I    between atoms: C_25  and  N_26 
REMARK   11  A    between atoms: S_33  and  C_36 
ROOT
HETATM    1  C   UNK N   1      23.107  16.338   4.372  0.00  0.00     0.118 C 
HETATM    2  C   UNK N   1      23.758  15.005   3.951  0.00  0.00     0.066 C 
HETATM    3  C   UNK N   1      24.189  14.125   5.098  0.00  0.00    -0.056 A 
HETATM    4  C   UNK N   1      24.163  12.737   4.938  0.00  0.00     0.010 A 
HETATM    5  C   UNK N   1      24.295  11.902   6.052  0.00  0.00     0.037 A 
HETATM    6  C   UNK N   1      24.413  12.458   7.331  0.00  0.00     0.068 A 
HETATM    7  O   UNK N   1      24.322  11.660   8.417  0.00  0.00    -0.351 OA
HETATM    8  C   UNK N   1      23.955  12.179   9.643  0.00  0.00     0.176 C 
HETATM    9  C   UNK N   1      22.442  12.058   9.860  0.00  0.00     0.036 C 
HETATM   10  C   UNK N   1      21.577  12.546   8.686  0.00  0.00     0.105 C 
HETATM   11  C   UNK N   1      21.160  13.995   8.745  0.00  0.00     0.218 C 
HETATM   12  O   UNK N   1      20.711  14.454   9.783  0.00  0.00    -0.274 OA
HETATM   13  N   UNK N   1      21.180  14.733   7.597  0.00  0.00    -0.347 N 
HETATM   14  C   UNK N   1      20.690  16.101   7.387  0.00  0.00     0.185 C 
HETATM   15  C   UNK N   1      21.440  16.775   6.256  0.00  0.00     0.241 C 
HETATM   16  O   UNK N   1      21.326  17.977   6.046  0.00  0.00    -0.271 OA
HETATM   17  N   UNK N   1      22.223  16.004   5.474  0.00  0.00    -0.352 N 
HETATM   18  C   UNK N   1      24.514  13.848   7.477  0.00  0.00     0.037 A 
HETATM   19  C   UNK N   1      24.413  14.670   6.371  0.00  0.00     0.010 A 
HETATM   20  H   UNK N   1      21.573  14.291   6.810  0.00  0.00     0.163 HD
HETATM   21  H   UNK N   1      22.188  15.044   5.688  0.00  0.00     0.163 HD
ENDROOT
BRANCH   1  22
HETATM   22  C   UNK N   1      24.207  17.339   4.784  0.00  0.00     0.155 C 
BRANCH  22  23
HETATM   23  C   UNK N   1      25.483  17.348   3.909  0.00  0.00     0.141 C 
BRANCH  23  24
HETATM   24  N   UNK N   1      26.718  17.920   4.482  0.00  0.00    -0.204 NA
BRANCH  24  25
HETATM   25  C   UNK N   1      27.193  19.164   3.881  0.00  0.00     0.108 C 
BRANCH  25  26
HETATM   26  C   UNK N   1      27.839  20.017   4.963  0.00  0.00     0.019 C 
BRANCH  26  27
HETATM   27  C   UNK N   1      26.973  20.122   6.207  0.00  0.00    -0.022 C 
HETATM   28  C   UNK N   1      27.760  19.726   7.442  0.00  0.00     0.009 C 
HETATM   29  C   UNK N   1      26.522  21.559   6.365  0.00  0.00     0.009 C 
ENDBRANCH  26  27
ENDBRANCH  25  26
ENDBRANCH  24  25
BRANCH  24  30
HETATM   30  S   UNK N   1      28.005  16.700   4.707  0.00  0.00     0.243 S 
HETATM   31  O   UNK N   1      28.422  16.726   6.187  0.00  0.00    -0.206 OA
HETATM   32  O   UNK N   1      29.250  17.272   4.006  0.00  0.00    -0.206 OA
BRANCH  30  33
HETATM   33  C   UNK N   1      27.696  15.063   4.083  0.00  0.00     0.074 A 
HETATM   34  C   UNK N   1      27.342  14.881   2.744  0.00  0.00     0.025 A 
HETATM   35  C   UNK N   1      27.140  13.592   2.246  0.00  0.00     0.002 A 
HETATM   36  C   UNK N   1      27.296  12.484   3.085  0.00  0.00     0.000 A 
HETATM   37  C   UNK N   1      27.650  12.666   4.425  0.00  0.00     0.002 A 
HETATM   38  C   UNK N   1      27.853  13.955   4.924  0.00  0.00     0.025 A 
ENDBRANCH  30  33
ENDBRANCH  24  30
ENDBRANCH  23  24
ENDBRANCH  22  23
BRANCH  22  39
HETATM   39  O   UNK N   1      23.705  18.631   4.906  0.00  0.00    -0.392 OA
HETATM   40  H   UNK N   1      22.762  18.798   5.059  0.00  0.00     0.210 HD
ENDBRANCH  22  39
ENDBRANCH   1  22
BRANCH  14  41
HETATM   41  C   UNK N   1      20.494  16.941   8.646  0.00  0.00     0.137 C 
BRANCH  41  42
HETATM   42  C   UNK N   1      19.039  17.258   8.806  0.00  0.00     0.217 C 
HETATM   43  N   UNK N   1      18.663  18.330   9.529  0.00  0.00    -0.370 N 
HETATM   44  H   UNK N   1      17.737  18.626   9.688  0.00  0.00     0.159 HD
HETATM   45  H   UNK N   1      19.381  18.867   9.938  0.00  0.00     0.159 HD
HETATM   46  O   UNK N   1      18.190  16.539   8.303  0.00  0.00    -0.274 OA
ENDBRANCH  41  42
ENDBRANCH  14  41
TORSDOF 11
ENDMDL
MODEL 4
REMARK VINA RESULT:      -7.0     18.161     23.138
REMARK  11 active torsions:
REMARK  status: ('A' for Active; 'I' for Inactive)
REMARK    1  A    between atoms: C_2  and  C_4 
REMARK    2  A    between atoms: C_4  and  C_5 
REMARK    3  A    between atoms: C_5  and  N_6 
REMARK    4  A    between atoms: N_6  and  C_7 
REMARK    5  A    between atoms: N_6  and  S_33 
REMARK    6  A    between atoms: C_7  and  C_8 
REMARK    7  A    between atoms: C_8  and  O_9 
REMARK    8  A    between atoms: C_10  and  C_8 
REMARK    9  A    between atoms: C_23  and  C_24 
REMARK   10  A    between atoms: C_24  and  C_25 
REMARK       I    between atoms: C_25  and  N_26 
REMARK   11  A    between atoms: S_33  and  C_36 
ROOT
HETATM    1  C   UNK N   1      37.390  13.758  11.224  0.00  0.00     0.118 C 
HETATM    2  C   UNK N   1      37.868  12.330  10.892  0.00  0.00     0.066 C 
HETATM    3  C   UNK N   1      36.850  11.476  10.178  0.00  0.00    -0.056 A 
HETATM    4  C   UNK N   1      37.290  10.502   9.277  0.00  0.00     0.010 A 
HETATM    5  C   UNK N   1      36.379   9.889   8.410  0.00  0.00     0.037 A 
HETATM    6  C   UNK N   1      35.036  10.279   8.418  0.00  0.00     0.068 A 
HETATM    7  O   UNK N   1      34.209   9.847   7.442  0.00  0.00    -0.351 OA
HETATM    8  C   UNK N   1      33.062  10.550   7.129  0.00  0.00     0.176 C 
HETATM    9  C   UNK N   1      33.321  11.543   5.988  0.00  0.00     0.036 C 
HETATM   10  C   UNK N   1      34.569  12.423   6.166  0.00  0.00     0.105 C 
HETATM   11  C   UNK N   1      34.339  13.745   6.855  0.00  0.00     0.218 C 
HETATM   12  O   UNK N   1      33.404  14.452   6.513  0.00  0.00    -0.274 OA
HETATM   13  N   UNK N   1      35.257  14.181   7.766  0.00  0.00    -0.347 N 
HETATM   14  C   UNK N   1      35.316  15.481   8.447  0.00  0.00     0.185 C 
HETATM   15  C   UNK N   1      36.020  15.359   9.782  0.00  0.00     0.241 C 
HETATM   16  O   UNK N   1      36.005  16.276  10.594  0.00  0.00    -0.271 OA
HETATM   17  N   UNK N   1      36.682  14.214  10.041  0.00  0.00    -0.352 N 
HETATM   18  C   UNK N   1      34.587  11.201   9.373  0.00  0.00     0.037 A 
HETATM   19  C   UNK N   1      35.483  11.784  10.249  0.00  0.00     0.010 A 
HETATM   20  H   UNK N   1      35.970  13.542   7.995  0.00  0.00     0.163 HD
HETATM   21  H   UNK N   1      36.688  13.572   9.294  0.00  0.00     0.163 HD
ENDROOT
BRANCH   1  22
HETATM   22  C   UNK N   1      36.483  13.718  12.472  0.00  0.00     0.155 C 
BRANCH  22  23
HETATM   23  C   UNK N   1      36.848  12.667  13.547  0.00  0.00     0.141 C 
BRANCH  23  24
HETATM   24  N   UNK N   1      35.749  11.993  14.265  0.00  0.00    -0.204 NA
BRANCH  24  25
HETATM   25  C   UNK N   1      34.544  11.713  13.488  0.00  0.00     0.108 C 
BRANCH  25  26
HETATM   26  C   UNK N   1      34.190  10.241  13.642  0.00  0.00     0.019 C 
BRANCH  26  27
HETATM   27  C   UNK N   1      35.265   9.328  13.077  0.00  0.00    -0.022 C 
HETATM   28  C   UNK N   1      35.744   8.348  14.131  0.00  0.00     0.009 C 
HETATM   29  C   UNK N   1      34.677   8.542  11.923  0.00  0.00     0.009 C 
ENDBRANCH  26  27
ENDBRANCH  25  26
ENDBRANCH  24  25
BRANCH  24  30
HETATM   30  S   UNK N   1      35.413  12.727  15.861  0.00  0.00     0.243 S 
HETATM   31  O   UNK N   1      34.011  13.355  15.802  0.00  0.00    -0.206 OA
HETATM   32  O   UNK N   1      36.322  13.965  15.951  0.00  0.00    -0.206 OA
BRANCH  30  33
HETATM   33  C   UNK N   1      35.680  11.712  17.298  0.00  0.00     0.074 A 
HETATM   34  C   UNK N   1      36.305  10.471  17.170  0.00  0.00     0.025 A 
HETATM   35  C   UNK N   1      36.551   9.694  18.305  0.00  0.00     0.002 A 
HETATM   36  C   UNK N   1      36.174  10.161  19.568  0.00  0.00     0.000 A 
HETATM   37  C   UNK N   1      35.548  11.405  19.696  0.00  0.00     0.002 A 
HETATM   38  C   UNK N   1      35.303  12.181  18.561  0.00  0.00     0.025 A 
ENDBRANCH  30  33
ENDBRANCH  24  30
ENDBRANCH  23  24
ENDBRANCH  22  23
BRANCH  22  39
HETATM   39  O   UNK N   1      36.362  14.975  13.058  0.00  0.00    -0.392 OA
HETATM   40  H   UNK N   1      36.689  15.152  13.954  0.00  0.00     0.210 HD
ENDBRANCH  22  39
ENDBRANCH   1  22
BRANCH  14  41
HETATM   41  C   UNK N   1      34.024  16.293   8.449  0.00  0.00     0.137 C 
BRANCH  41  42
HETATM   42  C   UNK N   1      34.189  17.487   7.559  0.00  0.00     0.217 C 
HETATM   43  N   UNK N   1      33.586  17.513   6.356  0.00  0.00    -0.370 N 
HETATM   44  H   UNK N   1      33.627  18.249   5.704  0.00  0.00     0.159 HD
HETATM   45  H   UNK N   1      33.054  16.722   6.104  0.00  0.00     0.159 HD
HETATM   46  O   UNK N   1      34.886  18.426   7.908  0.00  0.00    -0.274 OA
ENDBRANCH  41  42
ENDBRANCH  14  41
TORSDOF 11
ENDMDL
MODEL 5
REMARK VINA RESULT:      -6.8      1.294      3.672
REMARK  11 active torsions:
REMARK  status: ('A' for Active; 'I' for Inactive)
REMARK    1  A    between atoms: C_2  and  C_4 
REMARK    2  A    between atoms: C_4  and  C_5 
REMARK    3  A    between atoms: C_5  and  N_6 
REMARK    4  A    between atoms: N_6  and  C_7 
REMARK    5  A    between atoms: N_6  and  S_33 
REMARK    6  A    between atoms: C_7  and  C_8 
REMARK    7  A    between atoms: C_8  and  O_9 
REMARK    8  A    between atoms: C_10  and  C_8 
REMARK    9  A    between atoms: C_23  and  C_24 
REMARK   10  A    between atoms: C_24  and  C_25 
REMARK       I    between atoms: C_25  and  N_26 
REMARK   11  A    between atoms: S_33  and  C_36 
ROOT
HETATM    1  C   UNK N   1      27.935  24.394  -3.842  0.00  0.00     0.118 C 
HETATM    2  C   UNK N   1      26.703  24.066  -4.710  0.00  0.00     0.066 C 
HETATM    3  C   UNK N   1      27.026  23.508  -6.074  0.00  0.00    -0.056 A 
HETATM    4  C   UNK N   1      26.141  22.601  -6.665  0.00  0.00     0.010 A 
HETATM    5  C   UNK N   1      26.537  21.870  -7.790  0.00  0.00     0.037 A 
HETATM    6  C   UNK N   1      27.832  22.018  -8.298  0.00  0.00     0.068 A 
HETATM    7  O   UNK N   1      28.281  21.161  -9.241  0.00  0.00    -0.351 OA
HETATM    8  C   UNK N   1      29.635  20.955  -9.417  0.00  0.00     0.176 C 
HETATM    9  C   UNK N   1      30.119  19.754  -8.594  0.00  0.00     0.036 C 
HETATM   10  C   UNK N   1      29.668  19.752  -7.124  0.00  0.00     0.105 C 
HETATM   11  C   UNK N   1      30.616  20.411  -6.152  0.00  0.00     0.218 C 
HETATM   12  O   UNK N   1      31.809  20.151  -6.200  0.00  0.00    -0.274 OA
HETATM   13  N   UNK N   1      30.102  21.191  -5.158  0.00  0.00    -0.347 N 
HETATM   14  C   UNK N   1      30.810  21.809  -4.030  0.00  0.00     0.185 C 
HETATM   15  C   UNK N   1      30.093  23.059  -3.561  0.00  0.00     0.241 C 
HETATM   16  O   UNK N   1      30.615  23.830  -2.766  0.00  0.00    -0.271 OA
HETATM   17  N   UNK N   1      28.851  23.284  -4.034  0.00  0.00    -0.352 N 
HETATM   18  C   UNK N   1      28.688  22.981  -7.748  0.00  0.00     0.037 A 
HETATM   19  C   UNK N   1      28.284  23.724  -6.655  0.00  0.00     0.010 A 
HETATM   20  H   UNK N   1      29.134  21.362  -5.204  0.00  0.00     0.163 HD
HETATM   21  H   UNK N   1      28.501  22.568  -4.612  0.00  0.00     0.163 HD
ENDROOT
BRANCH   1  22
HETATM   22  C   UNK N   1      28.539  25.739  -4.298  0.00  0.00     0.155 C 
BRANCH  22  23
HETATM   23  C   UNK N   1      27.549  26.919  -4.438  0.00  0.00     0.141 C 
BRANCH  23  24
HETATM   24  N   UNK N   1      27.815  27.935  -5.476  0.00  0.00    -0.204 NA
BRANCH  24  25
HETATM   25  C   UNK N   1      27.986  27.437  -6.840  0.00  0.00     0.108 C 
BRANCH  25  26
HETATM   26  C   UNK N   1      26.649  26.907  -7.340  0.00  0.00     0.019 C 
BRANCH  26  27
HETATM   27  C   UNK N   1      26.675  26.591  -8.825  0.00  0.00    -0.022 C 
HETATM   28  C   UNK N   1      28.093  26.317  -9.291  0.00  0.00     0.009 C 
HETATM   29  C   UNK N   1      25.842  25.350  -9.071  0.00  0.00     0.009 C 
ENDBRANCH  26  27
ENDBRANCH  25  26
ENDBRANCH  24  25
BRANCH  24  30
HETATM   30  S   UNK N   1      29.069  29.111  -4.986  0.00  0.00     0.243 S 
HETATM   31  O   UNK N   1      28.917  30.357  -5.875  0.00  0.00    -0.206 OA
HETATM   32  O   UNK N   1      30.406  28.524  -5.473  0.00  0.00    -0.206 OA
BRANCH  30  33
HETATM   33  C   UNK N   1      29.204  29.485  -3.252  0.00  0.00     0.074 A 
HETATM   34  C   UNK N   1      30.448  29.431  -2.621  0.00  0.00     0.025 A 
HETATM   35  C   UNK N   1      30.558  29.765  -1.269  0.00  0.00     0.002 A 
HETATM   36  C   UNK N   1      29.425  30.158  -0.550  0.00  0.00     0.000 A 
HETATM   37  C   UNK N   1      28.179  30.213  -1.182  0.00  0.00     0.002 A 
HETATM   38  C   UNK N   1      28.069  29.879  -2.534  0.00  0.00     0.025 A 
ENDBRANCH  30  33
ENDBRANCH  24  30
ENDBRANCH  23  24
ENDBRANCH  22  23
BRANCH  22  39
HETATM   39  O   UNK N   1      29.615  26.115  -3.499  0.00  0.00    -0.392 OA
HETATM   40  H   UNK N   1      30.492  25.715  -3.606  0.00  0.00     0.210 HD
ENDBRANCH  22  39
ENDBRANCH   1  22
BRANCH  14  41
HETATM   41  C   UNK N   1      32.325  21.929  -4.176  0.00  0.00     0.137 C 
BRANCH  41  42
HETATM   42  C   UNK N   1      32.990  21.056  -3.157  0.00  0.00     0.217 C 
HETATM   43  N   UNK N   1      33.575  19.906  -3.542  0.00  0.00    -0.370 N 
HETATM   44  H   UNK N   1      34.041  19.268  -2.953  0.00  0.00     0.159 HD
HETATM   45  H   UNK N   1      33.533  19.680  -4.500  0.00  0.00     0.159 HD
HETATM   46  O   UNK N   1      32.985  21.368  -1.977  0.00  0.00    -0.274 OA
ENDBRANCH  41  42
ENDBRANCH  14  41
TORSDOF 11
ENDMDL
MODEL 6
REMARK VINA RESULT:      -6.7     17.763     22.697
REMARK  11 active torsions:
REMARK  status: ('A' for Active; 'I' for Inactive)
REMARK    1  A    between atoms: C_2  and  C_4 
REMARK    2  A    between atoms: C_4  and  C_5 
REMARK    3  A    between atoms: C_5  and  N_6 
REMARK    4  A    between atoms: N_6  and  C_7 
REMARK    5  A    between atoms: N_6  and  S_33 
REMARK    6  A    between atoms: C_7  and  C_8 
REMARK    7  A    between atoms: C_8  and  O_9 
REMARK    8  A    between atoms: C_10  and  C_8 
REMARK    9  A    between atoms: C_23  and  C_24 
REMARK   10  A    between atoms: C_24  and  C_25 
REMARK       I    between atoms: C_25  and  N_26 
REMARK   11  A    between atoms: S_33  and  C_36 
ROOT
HETATM    1  C   UNK N   1      37.398  13.732  11.236  0.00  0.00     0.118 C 
HETATM    2  C   UNK N   1      37.863  12.292  10.942  0.00  0.00     0.066 C 
HETATM    3  C   UNK N   1      36.849  11.439  10.220  0.00  0.00    -0.056 A 
HETATM    4  C   UNK N   1      37.296  10.442   9.348  0.00  0.00     0.010 A 
HETATM    5  C   UNK N   1      36.397   9.825   8.472  0.00  0.00     0.037 A 
HETATM    6  C   UNK N   1      35.060  10.233   8.443  0.00  0.00     0.068 A 
HETATM    7  O   UNK N   1      34.248   9.794   7.456  0.00  0.00    -0.351 OA
HETATM    8  C   UNK N   1      33.119  10.506   7.104  0.00  0.00     0.176 C 
HETATM    9  C   UNK N   1      33.417  11.474   5.951  0.00  0.00     0.036 C 
HETATM   10  C   UNK N   1      34.673  12.340   6.141  0.00  0.00     0.105 C 
HETATM   11  C   UNK N   1      34.446  13.679   6.800  0.00  0.00     0.218 C 
HETATM   12  O   UNK N   1      33.528  14.391   6.424  0.00  0.00    -0.274 OA
HETATM   13  N   UNK N   1      35.349  14.119   7.723  0.00  0.00    -0.347 N 
HETATM   14  C   UNK N   1      35.410  15.430   8.381  0.00  0.00     0.185 C 
HETATM   15  C   UNK N   1      36.083  15.324   9.735  0.00  0.00     0.241 C 
HETATM   16  O   UNK N   1      36.062  16.257  10.529  0.00  0.00    -0.271 OA
HETATM   17  N   UNK N   1      36.723  14.175  10.029  0.00  0.00    -0.352 N 
HETATM   18  C   UNK N   1      34.602  11.179   9.370  0.00  0.00     0.037 A 
HETATM   19  C   UNK N   1      35.486  11.766  10.255  0.00  0.00     0.010 A 
HETATM   20  H   UNK N   1      36.048  13.475   7.981  0.00  0.00     0.163 HD
HETATM   21  H   UNK N   1      36.736  13.520   9.295  0.00  0.00     0.163 HD
ENDROOT
BRANCH   1  22
HETATM   22  C   UNK N   1      36.462  13.727  12.464  0.00  0.00     0.155 C 
BRANCH  22  23
HETATM   23  C   UNK N   1      36.701  12.603  13.499  0.00  0.00     0.141 C 
BRANCH  23  24
HETATM   24  N   UNK N   1      35.530  11.858  14.003  0.00  0.00    -0.204 NA
BRANCH  24  25
HETATM   25  C   UNK N   1      34.751  12.511  15.052  0.00  0.00     0.108 C 
BRANCH  25  26
HETATM   26  C   UNK N   1      35.697  12.970  16.152  0.00  0.00     0.019 C 
BRANCH  26  27
HETATM   27  C   UNK N   1      34.992  13.128  17.489  0.00  0.00    -0.022 C 
HETATM   28  C   UNK N   1      35.370  12.001  18.431  0.00  0.00     0.009 C 
HETATM   29  C   UNK N   1      35.424  14.439  18.113  0.00  0.00     0.009 C 
ENDBRANCH  26  27
ENDBRANCH  25  26
ENDBRANCH  24  25
BRANCH  24  30
HETATM   30  S   UNK N   1      35.899  10.144  14.351  0.00  0.00     0.243 S 
HETATM   31  O   UNK N   1      34.972   9.687  15.490  0.00  0.00    -0.206 OA
HETATM   32  O   UNK N   1      37.279  10.144  15.032  0.00  0.00    -0.206 OA
BRANCH  30  33
HETATM   33  C   UNK N   1      35.939   9.021  12.971  0.00  0.00     0.074 A 
HETATM   34  C   UNK N   1      37.137   8.401  12.610  0.00  0.00     0.025 A 
HETATM   35  C   UNK N   1      37.159   7.488  11.553  0.00  0.00     0.002 A 
HETATM   36  C   UNK N   1      35.981   7.193  10.860  0.00  0.00     0.000 A 
HETATM   37  C   UNK N   1      34.781   7.813  11.221  0.00  0.00     0.002 A 
HETATM   38  C   UNK N   1      34.760   8.726  12.279  0.00  0.00     0.025 A 
ENDBRANCH  30  33
ENDBRANCH  24  30
ENDBRANCH  23  24
ENDBRANCH  22  23
BRANCH  22  39
HETATM   39  O   UNK N   1      36.448  14.965  13.102  0.00  0.00    -0.392 OA
HETATM   40  H   UNK N   1      36.010  15.091  13.958  0.00  0.00     0.210 HD
ENDBRANCH  22  39
ENDBRANCH   1  22
BRANCH  14  41
HETATM   41  C   UNK N   1      34.129  16.259   8.339  0.00  0.00     0.137 C 
BRANCH  41  42
HETATM   42  C   UNK N   1      34.432  17.606   7.758  0.00  0.00     0.217 C 
HETATM   43  N   UNK N   1      34.810  18.614   8.567  0.00  0.00    -0.370 N 
HETATM   44  H   UNK N   1      35.036  19.530   8.284  0.00  0.00     0.159 HD
HETATM   45  H   UNK N   1      34.866  18.417   9.531  0.00  0.00     0.159 HD
HETATM   46  O   UNK N   1      34.315  17.803   6.559  0.00  0.00    -0.274 OA
ENDBRANCH  41  42
ENDBRANCH  14  41
TORSDOF 11
ENDMDL
MODEL 7
REMARK VINA RESULT:      -6.7     12.263     15.001
REMARK  11 active torsions:
REMARK  status: ('A' for Active; 'I' for Inactive)
REMARK    1  A    between atoms: C_2  and  C_4 
REMARK    2  A    between atoms: C_4  and  C_5 
REMARK    3  A    between atoms: C_5  and  N_6 
REMARK    4  A    between atoms: N_6  and  C_7 
REMARK    5  A    between atoms: N_6  and  S_33 
REMARK    6  A    between atoms: C_7  and  C_8 
REMARK    7  A    between atoms: C_8  and  O_9 
REMARK    8  A    between atoms: C_10  and  C_8 
REMARK    9  A    between atoms: C_23  and  C_24 
REMARK   10  A    between atoms: C_24  and  C_25 
REMARK       I    between atoms: C_25  and  N_26 
REMARK   11  A    between atoms: S_33  and  C_36 
ROOT
HETATM    1  C   UNK N   1      24.729  14.380   5.420  0.00  0.00     0.118 C 
HETATM    2  C   UNK N   1      24.042  15.294   6.456  0.00  0.00     0.066 C 
HETATM    3  C   UNK N   1      23.363  16.507   5.871  0.00  0.00    -0.056 A 
HETATM    4  C   UNK N   1      22.225  17.019   6.499  0.00  0.00     0.010 A 
HETATM    5  C   UNK N   1      21.428  17.963   5.843  0.00  0.00     0.037 A 
HETATM    6  C   UNK N   1      21.750  18.364   4.542  0.00  0.00     0.068 A 
HETATM    7  O   UNK N   1      20.869  19.103   3.833  0.00  0.00    -0.351 OA
HETATM    8  C   UNK N   1      20.908  19.113   2.453  0.00  0.00     0.176 C 
HETATM    9  C   UNK N   1      19.960  18.058   1.869  0.00  0.00     0.036 C 
HETATM   10  C   UNK N   1      20.085  16.658   2.492  0.00  0.00     0.105 C 
HETATM   11  C   UNK N   1      21.052  15.725   1.805  0.00  0.00     0.218 C 
HETATM   12  O   UNK N   1      21.027  15.615   0.589  0.00  0.00    -0.274 OA
HETATM   13  N   UNK N   1      21.854  14.929   2.570  0.00  0.00    -0.347 N 
HETATM   14  C   UNK N   1      22.758  13.859   2.130  0.00  0.00     0.185 C 
HETATM   15  C   UNK N   1      23.898  13.676   3.111  0.00  0.00     0.241 C 
HETATM   16  O   UNK N   1      24.865  12.976   2.838  0.00  0.00    -0.271 OA
HETATM   17  N   UNK N   1      23.803  14.296   4.305  0.00  0.00    -0.352 N 
HETATM   18  C   UNK N   1      22.933  17.905   3.947  0.00  0.00     0.037 A 
HETATM   19  C   UNK N   1      23.734  16.995   4.610  0.00  0.00     0.010 A 
HETATM   20  H   UNK N   1      21.824  15.095   3.540  0.00  0.00     0.163 HD
HETATM   21  H   UNK N   1      22.956  14.776   4.446  0.00  0.00     0.163 HD
ENDROOT
BRANCH   1  22
HETATM   22  C   UNK N   1      26.084  14.996   5.013  0.00  0.00     0.155 C 
BRANCH  22  23
HETATM   23  C   UNK N   1      26.916  15.628   6.154  0.00  0.00     0.141 C 
BRANCH  23  24
HETATM   24  N   UNK N   1      27.771  16.789   5.834  0.00  0.00    -0.204 NA
BRANCH  24  25
HETATM   25  C   UNK N   1      27.218  17.758   4.890  0.00  0.00     0.108 C 
BRANCH  25  26
HETATM   26  C   UNK N   1      26.827  19.016   5.651  0.00  0.00     0.019 C 
BRANCH  26  27
HETATM   27  C   UNK N   1      27.288  20.282   4.948  0.00  0.00    -0.022 C 
HETATM   28  C   UNK N   1      26.499  20.503   3.672  0.00  0.00     0.009 C 
HETATM   29  C   UNK N   1      27.052  21.462   5.868  0.00  0.00     0.009 C 
ENDBRANCH  26  27
ENDBRANCH  25  26
ENDBRANCH  24  25
BRANCH  24  30
HETATM   30  S   UNK N   1      29.459  16.325   5.472  0.00  0.00     0.243 S 
HETATM   31  O   UNK N   1      29.693  16.545   3.968  0.00  0.00    -0.206 OA
HETATM   32  O   UNK N   1      29.505  14.791   5.590  0.00  0.00    -0.206 OA
BRANCH  30  33
HETATM   33  C   UNK N   1      30.734  17.019   6.501  0.00  0.00     0.074 A 
HETATM   34  C   UNK N   1      30.419  17.505   7.771  0.00  0.00     0.025 A 
HETATM   35  C   UNK N   1      31.429  18.011   8.594  0.00  0.00     0.002 A 
HETATM   36  C   UNK N   1      32.754  18.027   8.147  0.00  0.00     0.000 A 
HETATM   37  C   UNK N   1      33.070  17.540   6.875  0.00  0.00     0.002 A 
HETATM   38  C   UNK N   1      32.060  17.033   6.052  0.00  0.00     0.025 A 
ENDBRANCH  30  33
ENDBRANCH  24  30
ENDBRANCH  23  24
ENDBRANCH  22  23
BRANCH  22  39
HETATM   39  O   UNK N   1      26.866  14.090   4.301  0.00  0.00    -0.392 OA
HETATM   40  H   UNK N   1      27.806  14.253   4.132  0.00  0.00     0.210 HD
ENDBRANCH  22  39
ENDBRANCH   1  22
BRANCH  14  41
HETATM   41  C   UNK N   1      23.149  13.879   0.655  0.00  0.00     0.137 C 
BRANCH  41  42
HETATM   42  C   UNK N   1      22.863  12.539   0.049  0.00  0.00     0.217 C 
HETATM   43  N   UNK N   1      21.772  11.850   0.435  0.00  0.00    -0.370 N 
HETATM   44  H   UNK N   1      21.494  10.969   0.094  0.00  0.00     0.159 HD
HETATM   45  H   UNK N   1      21.199  12.266   1.120  0.00  0.00     0.159 HD
HETATM   46  O   UNK N   1      23.624  12.057  -0.774  0.00  0.00    -0.274 OA
ENDBRANCH  41  42
ENDBRANCH  14  41
TORSDOF 11
ENDMDL
MODEL 8
REMARK VINA RESULT:      -6.7     11.939     15.772
REMARK  11 active torsions:
REMARK  status: ('A' for Active; 'I' for Inactive)
REMARK    1  A    between atoms: C_2  and  C_4 
REMARK    2  A    between atoms: C_4  and  C_5 
REMARK    3  A    between atoms: C_5  and  N_6 
REMARK    4  A    between atoms: N_6  and  C_7 
REMARK    5  A    between atoms: N_6  and  S_33 
REMARK    6  A    between atoms: C_7  and  C_8 
REMARK    7  A    between atoms: C_8  and  O_9 
REMARK    8  A    between atoms: C_10  and  C_8 
REMARK    9  A    between atoms: C_23  and  C_24 
REMARK   10  A    between atoms: C_24  and  C_25 
REMARK       I    between atoms: C_25  and  N_26 
REMARK   11  A    between atoms: S_33  and  C_36 
ROOT
HETATM    1  C   UNK N   1      33.229  16.337   4.341  0.00  0.00     0.118 C 
HETATM    2  C   UNK N   1      33.456  17.568   5.241  0.00  0.00     0.066 C 
HETATM    3  C   UNK N   1      33.483  17.270   6.719  0.00  0.00    -0.056 A 
HETATM    4  C   UNK N   1      34.280  18.053   7.558  0.00  0.00     0.010 A 
HETATM    5  C   UNK N   1      34.533  17.640   8.870  0.00  0.00     0.037 A 
HETATM    6  C   UNK N   1      34.020  16.423   9.329  0.00  0.00     0.068 A 
HETATM    7  O   UNK N   1      34.440  15.924  10.512  0.00  0.00    -0.351 OA
HETATM    8  C   UNK N   1      34.355  14.571  10.776  0.00  0.00     0.176 C 
HETATM    9  C   UNK N   1      35.662  13.857  10.408  0.00  0.00     0.036 C 
HETATM   10  C   UNK N   1      36.212  14.191   9.012  0.00  0.00     0.105 C 
HETATM   11  C   UNK N   1      35.758  13.280   7.898  0.00  0.00     0.218 C 
HETATM   12  O   UNK N   1      35.791  12.069   8.056  0.00  0.00    -0.274 OA
HETATM   13  N   UNK N   1      35.436  13.827   6.691  0.00  0.00    -0.347 N 
HETATM   14  C   UNK N   1      35.109  13.135   5.438  0.00  0.00     0.185 C 
HETATM   15  C   UNK N   1      34.213  13.992   4.566  0.00  0.00     0.241 C 
HETATM   16  O   UNK N   1      33.666  13.531   3.572  0.00  0.00    -0.271 OA
HETATM   17  N   UNK N   1      34.053  15.285   4.910  0.00  0.00    -0.352 N 
HETATM   18  C   UNK N   1      33.160  15.678   8.510  0.00  0.00     0.037 A 
HETATM   19  C   UNK N   1      32.888  16.104   7.224  0.00  0.00     0.010 A 
HETATM   20  H   UNK N   1      35.420  14.811   6.657  0.00  0.00     0.163 HD
HETATM   21  H   UNK N   1      34.591  15.568   5.685  0.00  0.00     0.163 HD
ENDROOT
BRANCH   1  22
HETATM   22  C   UNK N   1      31.730  15.972   4.339  0.00  0.00     0.155 C 
BRANCH  22  23
HETATM   23  C   UNK N   1      30.739  17.159   4.401  0.00  0.00     0.141 C 
BRANCH  23  24
HETATM   24  N   UNK N   1      29.505  16.997   5.196  0.00  0.00    -0.204 NA
BRANCH  24  25
HETATM   25  C   UNK N   1      29.582  16.079   6.330  0.00  0.00     0.108 C 
BRANCH  25  26
HETATM   26  C   UNK N   1      29.005  16.767   7.558  0.00  0.00     0.019 C 
BRANCH  26  27
HETATM   27  C   UNK N   1      29.435  18.220   7.660  0.00  0.00    -0.022 C 
HETATM   28  C   UNK N   1      28.229  19.125   7.826  0.00  0.00     0.009 C 
HETATM   29  C   UNK N   1      30.325  18.380   8.874  0.00  0.00     0.009 C 
ENDBRANCH  26  27
ENDBRANCH  25  26
ENDBRANCH  24  25
BRANCH  24  30
HETATM   30  S   UNK N   1      28.056  16.751   4.178  0.00  0.00     0.243 S 
HETATM   31  O   UNK N   1      27.356  15.469   4.660  0.00  0.00    -0.206 OA
HETATM   32  O   UNK N   1      28.583  16.335   2.793  0.00  0.00    -0.206 OA
BRANCH  30  33
HETATM   33  C   UNK N   1      26.953  18.134   3.981  0.00  0.00     0.074 A 
HETATM   34  C   UNK N   1      25.597  17.916   3.731  0.00  0.00     0.025 A 
HETATM   35  C   UNK N   1      24.726  19.002   3.618  0.00  0.00     0.002 A 
HETATM   36  C   UNK N   1      25.211  20.306   3.760  0.00  0.00     0.000 A 
HETATM   37  C   UNK N   1      26.568  20.525   4.011  0.00  0.00     0.002 A 
HETATM   38  C   UNK N   1      27.440  19.438   4.124  0.00  0.00     0.025 A 
ENDBRANCH  30  33
ENDBRANCH  24  30
ENDBRANCH  23  24
ENDBRANCH  22  23
BRANCH  22  39
HETATM   39  O   UNK N   1      31.406  15.139   3.271  0.00  0.00    -0.392 OA
HETATM   40  H   UNK N   1      31.492  15.435   2.352  0.00  0.00     0.210 HD
ENDBRANCH  22  39
ENDBRANCH   1  22
BRANCH  14  41
HETATM   41  C   UNK N   1      34.704  11.670   5.570  0.00  0.00     0.137 C 
BRANCH  41  42
HETATM   42  C   UNK N   1      33.231  11.587   5.831  0.00  0.00     0.217 C 
HETATM   43  N   UNK N   1      32.426  10.980   4.939  0.00  0.00    -0.370 N 
HETATM   44  H   UNK N   1      31.451  10.868   5.020  0.00  0.00     0.159 HD
HETATM   45  H   UNK N   1      32.852  10.613   4.129  0.00  0.00     0.159 HD
HETATM   46  O   UNK N   1      32.752  12.088   6.836  0.00  0.00    -0.274 OA
ENDBRANCH  41  42
ENDBRANCH  14  41
TORSDOF 11
ENDMDL
MODEL 9
REMARK VINA RESULT:      -6.7      2.053      3.752
REMARK  11 active torsions:
REMARK  status: ('A' for Active; 'I' for Inactive)
REMARK    1  A    between atoms: C_2  and  C_4 
REMARK    2  A    between atoms: C_4  and  C_5 
REMARK    3  A    between atoms: C_5  and  N_6 
REMARK    4  A    between atoms: N_6  and  C_7 
REMARK    5  A    between atoms: N_6  and  S_33 
REMARK    6  A    between atoms: C_7  and  C_8 
REMARK    7  A    between atoms: C_8  and  O_9 
REMARK    8  A    between atoms: C_10  and  C_8 
REMARK    9  A    between atoms: C_23  and  C_24 
REMARK   10  A    between atoms: C_24  and  C_25 
REMARK       I    between atoms: C_25  and  N_26 
REMARK   11  A    between atoms: S_33  and  C_36 
ROOT
HETATM    1  C   UNK N   1      30.511  23.592  -4.130  0.00  0.00     0.118 C 
HETATM    2  C   UNK N   1      29.190  24.132  -3.546  0.00  0.00     0.066 C 
HETATM    3  C   UNK N   1      28.114  24.398  -4.568  0.00  0.00    -0.056 A 
HETATM    4  C   UNK N   1      26.774  24.243  -4.201  0.00  0.00     0.010 A 
HETATM    5  C   UNK N   1      25.778  24.220  -5.183  0.00  0.00     0.037 A 
HETATM    6  C   UNK N   1      26.128  24.311  -6.534  0.00  0.00     0.068 A 
HETATM    7  O   UNK N   1      25.197  24.072  -7.483  0.00  0.00    -0.351 OA
HETATM    8  C   UNK N   1      25.571  23.682  -8.754  0.00  0.00     0.176 C 
HETATM    9  C   UNK N   1      25.585  22.153  -8.877  0.00  0.00     0.036 C 
HETATM   10  C   UNK N   1      26.328  21.419  -7.749  0.00  0.00     0.105 C 
HETATM   11  C   UNK N   1      27.790  21.146  -8.004  0.00  0.00     0.218 C 
HETATM   12  O   UNK N   1      28.141  20.680  -9.077  0.00  0.00    -0.274 OA
HETATM   13  N   UNK N   1      28.678  21.312  -6.981  0.00  0.00    -0.347 N 
HETATM   14  C   UNK N   1      30.108  20.977  -6.956  0.00  0.00     0.185 C 
HETATM   15  C   UNK N   1      30.852  21.861  -5.975  0.00  0.00     0.241 C 
HETATM   16  O   UNK N   1      32.076  21.881  -5.942  0.00  0.00    -0.271 OA
HETATM   17  N   UNK N   1      30.121  22.610  -5.126  0.00  0.00    -0.352 N 
HETATM   18  C   UNK N   1      27.463  24.542  -6.891  0.00  0.00     0.037 A 
HETATM   19  C   UNK N   1      28.442  24.595  -5.917  0.00  0.00     0.010 A 
HETATM   20  H   UNK N   1      28.314  21.708  -6.157  0.00  0.00     0.163 HD
HETATM   21  H   UNK N   1      29.150  22.466  -5.192  0.00  0.00     0.163 HD
ENDROOT
BRANCH   1  22
HETATM   22  C   UNK N   1      31.317  24.759  -4.740  0.00  0.00     0.155 C 
BRANCH  22  23
HETATM   23  C   UNK N   1      31.119  26.143  -4.079  0.00  0.00     0.141 C 
BRANCH  23  24
HETATM   24  N   UNK N   1      30.774  27.287  -4.946  0.00  0.00    -0.204 NA
BRANCH  24  25
HETATM   25  C   UNK N   1      31.888  27.940  -5.630  0.00  0.00     0.108 C 
BRANCH  25  26
HETATM   26  C   UNK N   1      31.507  28.164  -7.086  0.00  0.00     0.019 C 
BRANCH  26  27
HETATM   27  C   UNK N   1      30.532  27.117  -7.594  0.00  0.00    -0.022 C 
HETATM   28  C   UNK N   1      29.572  27.722  -8.602  0.00  0.00     0.009 C 
HETATM   29  C   UNK N   1      31.314  26.016  -8.280  0.00  0.00     0.009 C 
ENDBRANCH  26  27
ENDBRANCH  25  26
ENDBRANCH  24  25
BRANCH  24  30
HETATM   30  S   UNK N   1      29.649  28.435  -4.162  0.00  0.00     0.243 S 
HETATM   31  O   UNK N   1      30.114  29.859  -4.510  0.00  0.00    -0.206 OA
HETATM   32  O   UNK N   1      29.951  28.351  -2.655  0.00  0.00    -0.206 OA
BRANCH  30  33
HETATM   33  C   UNK N   1      27.908  28.172  -4.414  0.00  0.00     0.074 A 
HETATM   34  C   UNK N   1      27.391  28.112  -5.710  0.00  0.00     0.025 A 
HETATM   35  C   UNK N   1      26.030  27.864  -5.907  0.00  0.00     0.002 A 
HETATM   36  C   UNK N   1      25.188  27.673  -4.808  0.00  0.00     0.000 A 
HETATM   37  C   UNK N   1      25.705  27.732  -3.510  0.00  0.00     0.002 A 
HETATM   38  C   UNK N   1      27.065  27.980  -3.313  0.00  0.00     0.025 A 
ENDBRANCH  30  33
ENDBRANCH  24  30
ENDBRANCH  23  24
ENDBRANCH  22  23
BRANCH  22  39
HETATM   39  O   UNK N   1      32.675  24.459  -4.816  0.00  0.00    -0.392 OA
HETATM   40  H   UNK N   1      32.998  23.689  -5.308  0.00  0.00     0.210 HD
ENDBRANCH  22  39
ENDBRANCH   1  22
BRANCH  14  41
HETATM   41  C   UNK N   1      30.774  20.786  -8.315  0.00  0.00     0.137 C 
BRANCH  41  42
HETATM   42  C   UNK N   1      31.248  19.370  -8.438  0.00  0.00     0.217 C 
HETATM   43  N   UNK N   1      30.438  18.437  -8.973  0.00  0.00    -0.370 N 
HETATM   44  H   UNK N   1      30.657  17.486  -9.103  0.00  0.00     0.159 HD
HETATM   45  H   UNK N   1      29.544  18.733  -9.262  0.00  0.00     0.159 HD
HETATM   46  O   UNK N   1      32.355  19.052  -8.035  0.00  0.00    -0.274 OA
ENDBRANCH  41  42
ENDBRANCH  14  41
TORSDOF 11
ENDMDL
