MODEL 1
REMARK VINA RESULT:      -4.9      0.000      0.000
REMARK  7 active torsions:
REMARK  status: ('A' for Active; 'I' for Inactive)
REMARK    1  A    between atoms: C_2  and  N_1 
REMARK    2  A    between atoms: C_2  and  C_3 
REMARK    3  A    between atoms: C_2  and  C_9 
REMARK    4  A    between atoms: C_3  and  C_4 
REMARK    5  A    between atoms: C_4  and  C_5 
REMARK       I    between atoms: C_5  and  N_7 
REMARK    6  A    between atoms: N_7  and  O_8 
REMARK    7  A    between atoms: C_9  and  O_10 
ROOT
HETATM    1  C   UNK N   1      20.372  16.956   2.365  0.00  0.00     0.173 C 
ENDROOT
BRANCH   1   2
HETATM    2  N   UNK N   1      19.433  16.197   3.172  0.00  0.00    -0.418 N 
HETATM    3  H   UNK N   1      18.880  16.668   3.889  0.00  0.00     0.150 HD
HETATM    4  H   UNK N   1      19.325  15.194   3.024  0.00  0.00     0.150 HD
ENDBRANCH   1   2
BRANCH   1   5
HETATM    5  C   UNK N   1      21.144  18.048   3.103  0.00  0.00     0.045 C 
BRANCH   5   6
HETATM    6  C   UNK N   1      20.443  19.399   3.165  0.00  0.00     0.107 C 
BRANCH   6   7
HETATM    7  C   UNK N   1      20.905  20.330   2.080  0.00  0.00     0.240 C 
HETATM    8  O   UNK N   1      21.744  21.177   2.342  0.00  0.00    -0.271 OA
HETATM    9  N   UNK N   1      20.402  20.237   0.825  0.00  0.00    -0.237 N 
HETATM   10  H   UNK N   1      19.726  19.551   0.624  0.00  0.00     0.197 HD
BRANCH   9  11
HETATM   11  O   UNK N   1      20.812  21.065  -0.144  0.00  0.00    -0.287 OA
HETATM   12  H   UNK N   1      20.405  21.941  -0.239  0.00  0.00     0.244 HD
ENDBRANCH   9  11
ENDBRANCH   6   7
ENDBRANCH   5   6
ENDBRANCH   1   5
BRANCH   1  13
HETATM   13  C   UNK N   1      20.471  16.579   0.910  0.00  0.00     0.163 C 
HETATM   14  O   UNK N   1      20.753  15.439   0.577  0.00  0.00    -0.648 OA
BRANCH  13  15
HETATM   15  O   UNK N   1      20.247  17.509  -0.038  0.00  0.00    -0.775 OA
HETATM   16  H   UNK N   1      20.341  17.288  -0.943  0.00  0.00     0.167 HD
ENDBRANCH  13  15
ENDBRANCH   1  13
TORSDOF 7
ENDMDL
MODEL 2
REMARK VINA RESULT:      -4.8     12.650     13.660
REMARK  7 active torsions:
REMARK  status: ('A' for Active; 'I' for Inactive)
REMARK    1  A    between atoms: C_2  and  N_1 
REMARK    2  A    between atoms: C_2  and  C_3 
REMARK    3  A    between atoms: C_2  and  C_9 
REMARK    4  A    between atoms: C_3  and  C_4 
REMARK    5  A    between atoms: C_4  and  C_5 
REMARK       I    between atoms: C_5  and  N_7 
REMARK    6  A    between atoms: N_7  and  O_8 
REMARK    7  A    between atoms: C_9  and  O_10 
ROOT
HETATM    1  C   UNK N   1      33.318  17.363   8.679  0.00  0.00     0.173 C 
ENDROOT
BRANCH   1   2
HETATM    2  N   UNK N   1      33.918  16.584   9.749  0.00  0.00    -0.418 N 
HETATM    3  H   UNK N   1      33.473  16.550  10.666  0.00  0.00     0.150 HD
HETATM    4  H   UNK N   1      34.784  16.072   9.583  0.00  0.00     0.150 HD
ENDBRANCH   1   2
BRANCH   1   5
HETATM    5  C   UNK N   1      31.799  17.248   8.552  0.00  0.00     0.045 C 
BRANCH   5   6
HETATM    6  C   UNK N   1      31.056  18.576   8.516  0.00  0.00     0.107 C 
BRANCH   6   7
HETATM    7  C   UNK N   1      29.758  18.523   9.272  0.00  0.00     0.240 C 
HETATM    8  O   UNK N   1      29.734  18.889  10.437  0.00  0.00    -0.271 OA
HETATM    9  N   UNK N   1      28.626  18.075   8.678  0.00  0.00    -0.237 N 
HETATM   10  H   UNK N   1      28.655  17.782   7.739  0.00  0.00     0.197 HD
BRANCH   9  11
HETATM   11  O   UNK N   1      27.468  18.026   9.349  0.00  0.00    -0.287 OA
HETATM   12  H   UNK N   1      27.252  17.247   9.886  0.00  0.00     0.244 HD
ENDBRANCH   9  11
ENDBRANCH   6   7
ENDBRANCH   5   6
ENDBRANCH   1   5
BRANCH   1  13
HETATM   13  C   UNK N   1      34.255  18.182   7.832  0.00  0.00     0.163 C 
HETATM   14  O   UNK N   1      34.341  17.991   6.630  0.00  0.00    -0.648 OA
BRANCH  13  15
HETATM   15  O   UNK N   1      35.009  19.140   8.405  0.00  0.00    -0.775 OA
HETATM   16  H   UNK N   1      34.952  19.293   9.327  0.00  0.00     0.167 HD
ENDBRANCH  13  15
ENDBRANCH   1  13
TORSDOF 7
ENDMDL
MODEL 3
REMARK VINA RESULT:      -4.6     16.275     17.305
REMARK  7 active torsions:
REMARK  status: ('A' for Active; 'I' for Inactive)
REMARK    1  A    between atoms: C_2  and  N_1 
REMARK    2  A    between atoms: C_2  and  C_3 
REMARK    3  A    between atoms: C_2  and  C_9 
REMARK    4  A    between atoms: C_3  and  C_4 
REMARK    5  A    between atoms: C_4  and  C_5 
REMARK       I    between atoms: C_5  and  N_7 
REMARK    6  A    between atoms: N_7  and  O_8 
REMARK    7  A    between atoms: C_9  and  O_10 
ROOT
HETATM    1  C   UNK N   1      33.831  17.255   8.885  0.00  0.00     0.173 C 
ENDROOT
BRANCH   1   2
HETATM    2  N   UNK N   1      32.389  17.397   8.992  0.00  0.00    -0.418 N 
HETATM    3  H   UNK N   1      31.804  17.295   8.162  0.00  0.00     0.150 HD
HETATM    4  H   UNK N   1      31.962  17.600   9.895  0.00  0.00     0.150 HD
ENDBRANCH   1   2
BRANCH   1   5
HETATM    5  C   UNK N   1      34.442  16.112   9.695  0.00  0.00     0.045 C 
BRANCH   5   6
HETATM    6  C   UNK N   1      35.422  16.545  10.777  0.00  0.00     0.107 C 
BRANCH   6   7
HETATM    7  C   UNK N   1      36.126  15.377  11.407  0.00  0.00     0.240 C 
HETATM    8  O   UNK N   1      35.747  14.973  12.496  0.00  0.00    -0.271 OA
HETATM    9  N   UNK N   1      37.167  14.775  10.784  0.00  0.00    -0.237 N 
HETATM   10  H   UNK N   1      37.465  15.108   9.907  0.00  0.00     0.197 HD
BRANCH   9  11
HETATM   11  O   UNK N   1      37.796  13.733  11.343  0.00  0.00    -0.287 OA
HETATM   12  H   UNK N   1      38.679  13.475  11.032  0.00  0.00     0.244 HD
ENDBRANCH   9  11
ENDBRANCH   6   7
ENDBRANCH   5   6
ENDBRANCH   1   5
BRANCH   1  13
HETATM   13  C   UNK N   1      34.544  18.240   7.997  0.00  0.00     0.163 C 
HETATM   14  O   UNK N   1      34.467  18.158   6.782  0.00  0.00    -0.648 OA
BRANCH  13  15
HETATM   15  O   UNK N   1      35.277  19.227   8.548  0.00  0.00    -0.775 OA
HETATM   16  H   UNK N   1      35.550  19.166   9.441  0.00  0.00     0.167 HD
ENDBRANCH  13  15
ENDBRANCH   1  13
TORSDOF 7
ENDMDL
MODEL 4
REMARK VINA RESULT:      -4.5     20.899     21.939
REMARK  7 active torsions:
REMARK  status: ('A' for Active; 'I' for Inactive)
REMARK    1  A    between atoms: C_2  and  N_1 
REMARK    2  A    between atoms: C_2  and  C_3 
REMARK    3  A    between atoms: C_2  and  C_9 
REMARK    4  A    between atoms: C_3  and  C_4 
REMARK    5  A    between atoms: C_4  and  C_5 
REMARK       I    between atoms: C_5  and  N_7 
REMARK    6  A    between atoms: N_7  and  O_8 
REMARK    7  A    between atoms: C_9  and  O_10 
ROOT
HETATM    1  C   UNK N   1      36.403  13.769  14.975  0.00  0.00     0.173 C 
ENDROOT
BRANCH   1   2
HETATM    2  N   UNK N   1      37.338  14.760  15.478  0.00  0.00    -0.418 N 
HETATM    3  H   UNK N   1      37.628  15.536  14.882  0.00  0.00     0.150 HD
HETATM    4  H   UNK N   1      37.706  14.681  16.426  0.00  0.00     0.150 HD
ENDBRANCH   1   2
BRANCH   1   5
HETATM    5  C   UNK N   1      35.928  12.734  15.995  0.00  0.00     0.045 C 
BRANCH   5   6
HETATM    6  C   UNK N   1      34.753  13.175  16.858  0.00  0.00     0.107 C 
BRANCH   6   7
HETATM    7  C   UNK N   1      35.177  13.534  18.254  0.00  0.00     0.240 C 
HETATM    8  O   UNK N   1      35.443  14.698  18.513  0.00  0.00    -0.271 OA
HETATM    9  N   UNK N   1      35.264  12.587  19.218  0.00  0.00    -0.237 N 
HETATM   10  H   UNK N   1      35.048  11.652  19.000  0.00  0.00     0.197 HD
BRANCH   9  11
HETATM   11  O   UNK N   1      35.641  12.904  20.464  0.00  0.00    -0.287 OA
HETATM   12  H   UNK N   1      36.584  12.953  20.687  0.00  0.00     0.244 HD
ENDBRANCH   9  11
ENDBRANCH   6   7
ENDBRANCH   5   6
ENDBRANCH   1   5
BRANCH   1  13
HETATM   13  C   UNK N   1      36.017  13.878  13.524  0.00  0.00     0.163 C 
HETATM   14  O   UNK N   1      34.869  13.675  13.165  0.00  0.00    -0.648 OA
BRANCH  13  15
HETATM   15  O   UNK N   1      36.949  14.205  12.608  0.00  0.00    -0.775 OA
HETATM   16  H   UNK N   1      36.975  15.071  12.254  0.00  0.00     0.167 HD
ENDBRANCH  13  15
ENDBRANCH   1  13
TORSDOF 7
ENDMDL
MODEL 5
REMARK VINA RESULT:      -4.5     10.527     12.029
REMARK  7 active torsions:
REMARK  status: ('A' for Active; 'I' for Inactive)
REMARK    1  A    between atoms: C_2  and  N_1 
REMARK    2  A    between atoms: C_2  and  C_3 
REMARK    3  A    between atoms: C_2  and  C_9 
REMARK    4  A    between atoms: C_3  and  C_4 
REMARK    5  A    between atoms: C_4  and  C_5 
REMARK       I    between atoms: C_5  and  N_7 
REMARK    6  A    between atoms: N_7  and  O_8 
REMARK    7  A    between atoms: C_9  and  O_10 
ROOT
HETATM    1  C   UNK N   1      28.473  24.686  -3.728  0.00  0.00     0.173 C 
ENDROOT
BRANCH   1   2
HETATM    2  N   UNK N   1      27.954  25.590  -4.740  0.00  0.00    -0.418 N 
HETATM    3  H   UNK N   1      27.392  26.395  -4.464  0.00  0.00     0.150 HD
HETATM    4  H   UNK N   1      28.151  25.420  -5.726  0.00  0.00     0.150 HD
ENDBRANCH   1   2
BRANCH   1   5
HETATM    5  C   UNK N   1      29.996  24.593  -3.646  0.00  0.00     0.045 C 
BRANCH   5   6
HETATM    6  C   UNK N   1      30.576  23.227  -3.991  0.00  0.00     0.107 C 
BRANCH   6   7
HETATM    7  C   UNK N   1      31.224  22.569  -2.806  0.00  0.00     0.240 C 
HETATM    8  O   UNK N   1      30.818  22.832  -1.685  0.00  0.00    -0.271 OA
HETATM    9  N   UNK N   1      32.246  21.695  -2.970  0.00  0.00    -0.237 N 
HETATM   10  H   UNK N   1      32.566  21.489  -3.878  0.00  0.00     0.197 HD
BRANCH   9  11
HETATM   11  O   UNK N   1      32.825  21.107  -1.916  0.00  0.00    -0.287 OA
HETATM   12  H   UNK N   1      32.283  20.636  -1.263  0.00  0.00     0.244 HD
ENDBRANCH   9  11
ENDBRANCH   6   7
ENDBRANCH   5   6
ENDBRANCH   1   5
BRANCH   1  13
HETATM   13  C   UNK N   1      27.458  23.955  -2.890  0.00  0.00     0.163 C 
HETATM   14  O   UNK N   1      26.269  24.007  -3.159  0.00  0.00    -0.648 OA
BRANCH  13  15
HETATM   15  O   UNK N   1      27.864  23.233  -1.827  0.00  0.00    -0.775 OA
HETATM   16  H   UNK N   1      27.698  22.312  -1.795  0.00  0.00     0.167 HD
ENDBRANCH  13  15
ENDBRANCH   1  13
TORSDOF 7
ENDMDL
MODEL 6
REMARK VINA RESULT:      -4.4     12.449     13.409
REMARK  7 active torsions:
REMARK  status: ('A' for Active; 'I' for Inactive)
REMARK    1  A    between atoms: C_2  and  N_1 
REMARK    2  A    between atoms: C_2  and  C_3 
REMARK    3  A    between atoms: C_2  and  C_9 
REMARK    4  A    between atoms: C_3  and  C_4 
REMARK    5  A    between atoms: C_4  and  C_5 
REMARK       I    between atoms: C_5  and  N_7 
REMARK    6  A    between atoms: N_7  and  O_8 
REMARK    7  A    between atoms: C_9  and  O_10 
ROOT
HETATM    1  C   UNK N   1      29.778  17.732   8.437  0.00  0.00     0.173 C 
ENDROOT
BRANCH   1   2
HETATM    2  N   UNK N   1      29.467  17.446   7.047  0.00  0.00    -0.418 N 
HETATM    3  H   UNK N   1      29.734  18.108   6.319  0.00  0.00     0.150 HD
HETATM    4  H   UNK N   1      28.981  16.585   6.800  0.00  0.00     0.150 HD
ENDBRANCH   1   2
BRANCH   1   5
HETATM    5  C   UNK N   1      31.229  18.114   8.723  0.00  0.00     0.045 C 
BRANCH   5   6
HETATM    6  C   UNK N   1      32.254  17.488   7.785  0.00  0.00     0.107 C 
BRANCH   6   7
HETATM    7  C   UNK N   1      33.666  17.761   8.222  0.00  0.00     0.240 C 
HETATM    8  O   UNK N   1      34.435  18.300   7.442  0.00  0.00    -0.271 OA
HETATM    9  N   UNK N   1      34.087  17.419   9.463  0.00  0.00    -0.237 N 
HETATM   10  H   UNK N   1      33.459  16.985  10.086  0.00  0.00     0.197 HD
BRANCH   9  11
HETATM   11  O   UNK N   1      35.344  17.661   9.856  0.00  0.00    -0.287 OA
HETATM   12  H   UNK N   1      35.606  17.493  10.775  0.00  0.00     0.244 HD
ENDBRANCH   9  11
ENDBRANCH   6   7
ENDBRANCH   5   6
ENDBRANCH   1   5
BRANCH   1  13
HETATM   13  C   UNK N   1      28.644  17.618   9.421  0.00  0.00     0.163 C 
HETATM   14  O   UNK N   1      28.712  16.853  10.370  0.00  0.00    -0.648 OA
BRANCH  13  15
HETATM   15  O   UNK N   1      27.537  18.369   9.256  0.00  0.00    -0.775 OA
HETATM   16  H   UNK N   1      27.611  19.297   9.156  0.00  0.00     0.167 HD
ENDBRANCH  13  15
ENDBRANCH   1  13
TORSDOF 7
ENDMDL
MODEL 7
REMARK VINA RESULT:      -4.3      2.626      4.125
REMARK  7 active torsions:
REMARK  status: ('A' for Active; 'I' for Inactive)
REMARK    1  A    between atoms: C_2  and  N_1 
REMARK    2  A    between atoms: C_2  and  C_3 
REMARK    3  A    between atoms: C_2  and  C_9 
REMARK    4  A    between atoms: C_3  and  C_4 
REMARK    5  A    between atoms: C_4  and  C_5 
REMARK       I    between atoms: C_5  and  N_7 
REMARK    6  A    between atoms: N_7  and  O_8 
REMARK    7  A    between atoms: C_9  and  O_10 
ROOT
HETATM    1  C   UNK N   1      23.636  19.371   3.820  0.00  0.00     0.173 C 
ENDROOT
BRANCH   1   2
HETATM    2  N   UNK N   1      24.529  19.011   4.908  0.00  0.00    -0.418 N 
HETATM    3  H   UNK N   1      25.017  19.739   5.430  0.00  0.00     0.150 HD
HETATM    4  H   UNK N   1      24.668  18.030   5.151  0.00  0.00     0.150 HD
ENDBRANCH   1   2
BRANCH   1   5
HETATM    5  C   UNK N   1      22.401  18.486   3.661  0.00  0.00     0.045 C 
BRANCH   5   6
HETATM    6  C   UNK N   1      21.100  19.239   3.413  0.00  0.00     0.107 C 
BRANCH   6   7
HETATM    7  C   UNK N   1      20.739  19.287   1.956  0.00  0.00     0.240 C 
HETATM    8  O   UNK N   1      20.327  18.274   1.412  0.00  0.00    -0.271 OA
HETATM    9  N   UNK N   1      20.866  20.434   1.246  0.00  0.00    -0.237 N 
HETATM   10  H   UNK N   1      21.199  21.246   1.693  0.00  0.00     0.197 HD
BRANCH   9  11
HETATM   11  O   UNK N   1      20.546  20.481  -0.053  0.00  0.00    -0.287 OA
HETATM   12  H   UNK N   1      21.137  20.085  -0.713  0.00  0.00     0.244 HD
ENDBRANCH   9  11
ENDBRANCH   6   7
ENDBRANCH   5   6
ENDBRANCH   1   5
BRANCH   1  13
HETATM   13  C   UNK N   1      24.031  20.562   2.988  0.00  0.00     0.163 C 
HETATM   14  O   UNK N   1      25.077  20.568   2.360  0.00  0.00    -0.648 OA
BRANCH  13  15
HETATM   15  O   UNK N   1      23.222  21.638   2.934  0.00  0.00    -0.775 OA
HETATM   16  H   UNK N   1      23.431  22.408   3.424  0.00  0.00     0.167 HD
ENDBRANCH  13  15
ENDBRANCH   1  13
TORSDOF 7
ENDMDL
MODEL 8
REMARK VINA RESULT:      -4.3     12.873     13.849
REMARK  7 active torsions:
REMARK  status: ('A' for Active; 'I' for Inactive)
REMARK    1  A    between atoms: C_2  and  N_1 
REMARK    2  A    between atoms: C_2  and  C_3 
REMARK    3  A    between atoms: C_2  and  C_9 
REMARK    4  A    between atoms: C_3  and  C_4 
REMARK    5  A    between atoms: C_4  and  C_5 
REMARK       I    between atoms: C_5  and  N_7 
REMARK    6  A    between atoms: N_7  and  O_8 
REMARK    7  A    between atoms: C_9  and  O_10 
ROOT
HETATM    1  C   UNK N   1      33.882  17.309   8.949  0.00  0.00     0.173 C 
ENDROOT
BRANCH   1   2
HETATM    2  N   UNK N   1      34.564  16.983  10.190  0.00  0.00    -0.418 N 
HETATM    3  H   UNK N   1      35.569  16.808  10.188  0.00  0.00     0.150 HD
HETATM    4  H   UNK N   1      34.040  16.930  11.062  0.00  0.00     0.150 HD
ENDBRANCH   1   2
BRANCH   1   5
HETATM    5  C   UNK N   1      32.541  16.608   8.731  0.00  0.00     0.045 C 
BRANCH   5   6
HETATM    6  C   UNK N   1      31.371  17.539   8.442  0.00  0.00     0.107 C 
BRANCH   6   7
HETATM    7  C   UNK N   1      30.723  17.244   7.118  0.00  0.00     0.240 C 
HETATM    8  O   UNK N   1      31.424  16.908   6.176  0.00  0.00    -0.271 OA
HETATM    9  N   UNK N   1      29.382  17.346   6.963  0.00  0.00    -0.237 N 
HETATM   10  H   UNK N   1      28.825  17.617   7.729  0.00  0.00     0.197 HD
BRANCH   9  11
HETATM   11  O   UNK N   1      28.802  17.083   5.785  0.00  0.00    -0.287 OA
HETATM   12  H   UNK N   1      28.260  16.285   5.678  0.00  0.00     0.244 HD
ENDBRANCH   9  11
ENDBRANCH   6   7
ENDBRANCH   5   6
ENDBRANCH   1   5
BRANCH   1  13
HETATM   13  C   UNK N   1      34.571  18.288   8.036  0.00  0.00     0.163 C 
HETATM   14  O   UNK N   1      34.456  18.200   6.824  0.00  0.00    -0.648 OA
BRANCH  13  15
HETATM   15  O   UNK N   1      35.324  19.274   8.559  0.00  0.00    -0.775 OA
HETATM   16  H   UNK N   1      36.256  19.188   8.586  0.00  0.00     0.167 HD
ENDBRANCH  13  15
ENDBRANCH   1  13
TORSDOF 7
ENDMDL
MODEL 9
REMARK VINA RESULT:      -4.2      9.458     10.516
REMARK  7 active torsions:
REMARK  status: ('A' for Active; 'I' for Inactive)
REMARK    1  A    between atoms: C_2  and  N_1 
REMARK    2  A    between atoms: C_2  and  C_3 
REMARK    3  A    between atoms: C_2  and  C_9 
REMARK    4  A    between atoms: C_3  and  C_4 
REMARK    5  A    between atoms: C_4  and  C_5 
REMARK       I    between atoms: C_5  and  N_7 
REMARK    6  A    between atoms: N_7  and  O_8 
REMARK    7  A    between atoms: C_9  and  O_10 
ROOT
HETATM    1  C   UNK N   1      23.153  12.054  10.181  0.00  0.00     0.173 C 
ENDROOT
BRANCH   1   2
HETATM    2  N   UNK N   1      23.998  11.568   9.104  0.00  0.00    -0.418 N 
HETATM    3  H   UNK N   1      24.824  12.098   8.825  0.00  0.00     0.150 HD
HETATM    4  H   UNK N   1      23.767  10.697   8.627  0.00  0.00     0.150 HD
ENDBRANCH   1   2
BRANCH   1   5
HETATM    5  C   UNK N   1      21.764  12.535   9.763  0.00  0.00     0.045 C 
BRANCH   5   6
HETATM    6  C   UNK N   1      21.657  14.032   9.498  0.00  0.00     0.107 C 
BRANCH   6   7
HETATM    7  C   UNK N   1      20.231  14.505   9.482  0.00  0.00     0.240 C 
HETATM    8  O   UNK N   1      19.373  13.822  10.019  0.00  0.00    -0.271 OA
HETATM    9  N   UNK N   1      19.894  15.672   8.883  0.00  0.00    -0.237 N 
HETATM   10  H   UNK N   1      20.593  16.216   8.454  0.00  0.00     0.197 HD
BRANCH   9  11
HETATM   11  O   UNK N   1      18.624  16.097   8.868  0.00  0.00    -0.287 OA
HETATM   12  H   UNK N   1      17.897  15.454   8.860  0.00  0.00     0.244 HD
ENDBRANCH   9  11
ENDBRANCH   6   7
ENDBRANCH   5   6
ENDBRANCH   1   5
BRANCH   1  13
HETATM   13  C   UNK N   1      23.741  12.025  11.567  0.00  0.00     0.163 C 
HETATM   14  O   UNK N   1      23.041  11.791  12.539  0.00  0.00    -0.648 OA
BRANCH  13  15
HETATM   15  O   UNK N   1      25.056  12.261  11.741  0.00  0.00    -0.775 OA
HETATM   16  H   UNK N   1      25.459  12.996  11.324  0.00  0.00     0.167 HD
ENDBRANCH  13  15
ENDBRANCH   1  13
TORSDOF 7
ENDMDL
