MODEL 1
REMARK VINA RESULT:      -4.6      0.000      0.000
REMARK  2 active torsions:
REMARK  status: ('A' for Active; 'I' for Inactive)
REMARK    1  A    between atoms: O_10  and  C_3 
REMARK    2  A    between atoms: O_11  and  C_4 
ROOT
HETATM    1  C   UNK N   1      21.997  19.846   3.237  0.00  0.00     0.146 C 
HETATM    2  C   UNK N   1      21.388  18.451   3.366  0.00  0.00     0.145 C 
HETATM    3  C   UNK N   1      20.002  18.468   2.763  0.00  0.00     0.134 C 
HETATM    4  C   UNK N   1      20.754  20.082   1.202  0.00  0.00     0.218 C 
HETATM    5  I   UNK N   1      21.456  17.760   5.391  0.00  0.00    -0.074 I 
HETATM    6  N   UNK N   1      21.809  20.367   1.894  0.00  0.00    -0.355 N 
ATOM      7  HN  UNK N   1      22.525  20.970   1.487  1.00  0.00     0.163 HD
HETATM    8  N   UNK N   1      19.764  19.198   1.728  0.00  0.00    -0.306 N 
ATOM      9  HN  UNK N   1      18.850  19.144   1.277  1.00  0.00     0.171 HD
ENDROOT
BRANCH   3  10
HETATM   10  O   UNK N   1      19.032  17.678   3.261  0.00  0.00    -0.348 OA
HETATM   11  H   UNK N   1      19.163  16.751   3.316  0.00  0.00     0.219 HD
ENDBRANCH   3  10
BRANCH   4  12
HETATM   12  O   UNK N   1      20.581  20.633  -0.012  0.00  0.00    -0.332 OA
HETATM   13  H   UNK N   1      20.143  21.455  -0.111  0.00  0.00     0.220 HD
ENDBRANCH   4  12
TORSDOF 2
ENDMDL
MODEL 2
REMARK VINA RESULT:      -4.5     10.944     11.915
REMARK  2 active torsions:
REMARK  status: ('A' for Active; 'I' for Inactive)
REMARK    1  A    between atoms: O_10  and  C_3 
REMARK    2  A    between atoms: O_11  and  C_4 
ROOT
HETATM    1  C   UNK N   1      21.632  12.108  10.901  0.00  0.00     0.146 C 
HETATM    2  C   UNK N   1      22.748  11.829   9.896  0.00  0.00     0.145 C 
HETATM    3  C   UNK N   1      24.028  12.449  10.404  0.00  0.00     0.134 C 
HETATM    4  C   UNK N   1      23.303  12.014  12.617  0.00  0.00     0.218 C 
HETATM    5  I   UNK N   1      22.190  12.455   7.926  0.00  0.00    -0.074 I 
HETATM    6  N   UNK N   1      22.076  11.822  12.255  0.00  0.00    -0.355 N 
ATOM      7  HN  UNK N   1      21.406  11.460  12.934  1.00  0.00     0.163 HD
HETATM    8  N   UNK N   1      24.272  12.468  11.670  0.00  0.00    -0.306 N 
ATOM      9  HN  UNK N   1      25.172  12.814  12.002  1.00  0.00     0.171 HD
ENDROOT
BRANCH   3  10
HETATM   10  O   UNK N   1      24.945  12.926   9.541  0.00  0.00    -0.348 OA
HETATM   11  H   UNK N   1      25.503  13.635   9.794  0.00  0.00     0.219 HD
ENDBRANCH   3  10
BRANCH   4  12
HETATM   12  O   UNK N   1      23.666  11.799  13.893  0.00  0.00    -0.332 OA
HETATM   13  H   UNK N   1      23.706  10.931  14.243  0.00  0.00     0.220 HD
ENDBRANCH   4  12
TORSDOF 2
ENDMDL
MODEL 3
REMARK VINA RESULT:      -4.4      1.518      2.051
REMARK  2 active torsions:
REMARK  status: ('A' for Active; 'I' for Inactive)
REMARK    1  A    between atoms: O_10  and  C_3 
REMARK    2  A    between atoms: O_11  and  C_4 
ROOT
HETATM    1  C   UNK N   1      20.287  17.655   1.592  0.00  0.00     0.146 C 
HETATM    2  C   UNK N   1      19.809  18.174   2.947  0.00  0.00     0.145 C 
HETATM    3  C   UNK N   1      20.575  19.433   3.283  0.00  0.00     0.134 C 
HETATM    4  C   UNK N   1      20.663  19.938   0.970  0.00  0.00     0.218 C 
HETATM    5  I   UNK N   1      19.924  16.651   4.446  0.00  0.00    -0.074 I 
HETATM    6  N   UNK N   1      20.350  18.733   0.621  0.00  0.00    -0.355 N 
ATOM      7  HN  UNK N   1      20.142  18.535  -0.359  1.00  0.00     0.163 HD
HETATM    8  N   UNK N   1      20.906  20.251   2.342  0.00  0.00    -0.306 N 
ATOM      9  HN  UNK N   1      21.351  21.137   2.583  1.00  0.00     0.171 HD
ENDROOT
BRANCH   3  10
HETATM   10  O   UNK N   1      20.858  19.739   4.563  0.00  0.00    -0.348 OA
HETATM   11  H   UNK N   1      20.587  20.561   4.921  0.00  0.00     0.219 HD
ENDBRANCH   3  10
BRANCH   4  12
HETATM   12  O   UNK N   1      20.775  20.898   0.036  0.00  0.00    -0.332 OA
HETATM   13  H   UNK N   1      20.846  20.681  -0.872  0.00  0.00     0.220 HD
ENDBRANCH   4  12
TORSDOF 2
ENDMDL
MODEL 4
REMARK VINA RESULT:      -4.4     15.550     16.385
REMARK  2 active torsions:
REMARK  status: ('A' for Active; 'I' for Inactive)
REMARK    1  A    between atoms: O_10  and  C_3 
REMARK    2  A    between atoms: O_11  and  C_4 
ROOT
HETATM    1  C   UNK N   1      33.083  15.309   9.270  0.00  0.00     0.146 C 
HETATM    2  C   UNK N   1      34.310  16.119   8.856  0.00  0.00     0.145 C 
HETATM    3  C   UNK N   1      34.965  16.678  10.098  0.00  0.00     0.134 C 
HETATM    4  C   UNK N   1      34.265  14.747  11.277  0.00  0.00     0.218 C 
HETATM    5  I   UNK N   1      33.807  17.595   7.389  0.00  0.00    -0.074 I 
HETATM    6  N   UNK N   1      33.403  14.417  10.371  0.00  0.00    -0.355 N 
ATOM      7  HN  UNK N   1      32.938  13.510  10.431  1.00  0.00     0.163 HD
HETATM    8  N   UNK N   1      34.968  15.987  11.186  0.00  0.00    -0.306 N 
ATOM      9  HN  UNK N   1      35.480  16.333  11.998  1.00  0.00     0.171 HD
ENDROOT
BRANCH   3  10
HETATM   10  O   UNK N   1      35.601  17.865  10.059  0.00  0.00    -0.348 OA
HETATM   11  H   UNK N   1      36.518  17.912  10.247  0.00  0.00     0.219 HD
ENDBRANCH   3  10
BRANCH   4  12
HETATM   12  O   UNK N   1      34.490  13.926  12.318  0.00  0.00    -0.332 OA
HETATM   13  H   UNK N   1      33.924  13.929  13.065  0.00  0.00     0.220 HD
ENDBRANCH   4  12
TORSDOF 2
ENDMDL
MODEL 5
REMARK VINA RESULT:      -4.3     10.452     11.429
REMARK  2 active torsions:
REMARK  status: ('A' for Active; 'I' for Inactive)
REMARK    1  A    between atoms: O_10  and  C_3 
REMARK    2  A    between atoms: O_11  and  C_4 
ROOT
HETATM    1  C   UNK N   1      23.746  12.519  10.007  0.00  0.00     0.146 C 
HETATM    2  C   UNK N   1      22.382  13.204   9.944  0.00  0.00     0.145 C 
HETATM    3  C   UNK N   1      21.447  12.517  10.913  0.00  0.00     0.134 C 
HETATM    4  C   UNK N   1      23.301  12.088  12.322  0.00  0.00     0.218 C 
HETATM    5  I   UNK N   1      21.651  13.294   7.933  0.00  0.00    -0.074 I 
HETATM    6  N   UNK N   1      24.161  12.326  11.386  0.00  0.00    -0.355 N 
ATOM      7  HN  UNK N   1      25.153  12.381  11.621  1.00  0.00     0.163 HD
HETATM    8  N   UNK N   1      21.904  12.060  12.028  0.00  0.00    -0.306 N 
ATOM      9  HN  UNK N   1      21.256  11.670  12.712  1.00  0.00     0.171 HD
ENDROOT
BRANCH   3  10
HETATM   10  O   UNK N   1      20.129  12.435  10.647  0.00  0.00    -0.348 OA
HETATM   11  H   UNK N   1      19.523  12.241  11.336  0.00  0.00     0.219 HD
ENDBRANCH   3  10
BRANCH   4  12
HETATM   12  O   UNK N   1      23.725  11.851  13.575  0.00  0.00    -0.332 OA
HETATM   13  H   UNK N   1      24.626  11.962  13.808  0.00  0.00     0.220 HD
ENDBRANCH   4  12
TORSDOF 2
ENDMDL
MODEL 6
REMARK VINA RESULT:      -4.2     21.901     22.791
REMARK  2 active torsions:
REMARK  status: ('A' for Active; 'I' for Inactive)
REMARK    1  A    between atoms: O_10  and  C_3 
REMARK    2  A    between atoms: O_11  and  C_4 
ROOT
HETATM    1  C   UNK N   1      42.839  20.446   3.309  0.00  0.00     0.146 C 
HETATM    2  C   UNK N   1      42.327  21.379   2.214  0.00  0.00     0.145 C 
HETATM    3  C   UNK N   1      42.614  22.807   2.618  0.00  0.00     0.134 C 
HETATM    4  C   UNK N   1      44.570  22.052   3.719  0.00  0.00     0.218 C 
HETATM    5  I   UNK N   1      40.271  20.990   1.761  0.00  0.00    -0.074 I 
HETATM    6  N   UNK N   1      44.183  20.817   3.715  0.00  0.00    -0.355 N 
ATOM      7  HN  UNK N   1      44.837  20.088   4.002  1.00  0.00     0.163 HD
HETATM    8  N   UNK N   1      43.691  23.084   3.270  0.00  0.00    -0.306 N 
ATOM      9  HN  UNK N   1      43.919  24.057   3.469  1.00  0.00     0.171 HD
ENDROOT
BRANCH   3  10
HETATM   10  O   UNK N   1      41.784  23.800   2.248  0.00  0.00    -0.348 OA
HETATM   11  H   UNK N   1      41.745  24.070   1.351  0.00  0.00     0.219 HD
ENDBRANCH   3  10
BRANCH   4  12
HETATM   12  O   UNK N   1      45.800  22.366   4.161  0.00  0.00    -0.332 OA
HETATM   13  H   UNK N   1      46.006  22.336   5.074  0.00  0.00     0.220 HD
ENDBRANCH   4  12
TORSDOF 2
ENDMDL
MODEL 7
REMARK VINA RESULT:      -4.2      1.927      2.923
REMARK  2 active torsions:
REMARK  status: ('A' for Active; 'I' for Inactive)
REMARK    1  A    between atoms: O_10  and  C_3 
REMARK    2  A    between atoms: O_11  and  C_4 
ROOT
HETATM    1  C   UNK N   1      21.476  17.627   3.377  0.00  0.00     0.146 C 
HETATM    2  C   UNK N   1      22.023  18.960   3.885  0.00  0.00     0.145 C 
HETATM    3  C   UNK N   1      21.509  20.068   2.995  0.00  0.00     0.134 C 
HETATM    4  C   UNK N   1      19.522  18.821   2.671  0.00  0.00     0.218 C 
HETATM    5  I   UNK N   1      24.154  18.903   4.075  0.00  0.00    -0.074 I 
HETATM    6  N   UNK N   1      20.052  17.724   3.106  0.00  0.00    -0.355 N 
ATOM      7  HN  UNK N   1      19.457  16.910   3.265  1.00  0.00     0.163 HD
HETATM    8  N   UNK N   1      20.324  19.989   2.494  0.00  0.00    -0.306 N 
ATOM      9  HN  UNK N   1      19.953  20.775   1.960  1.00  0.00     0.171 HD
ENDROOT
BRANCH   3  10
HETATM   10  O   UNK N   1      22.257  21.165   2.771  0.00  0.00    -0.348 OA
HETATM   11  H   UNK N   1      21.945  21.836   2.196  0.00  0.00     0.219 HD
ENDBRANCH   3  10
BRANCH   4  12
HETATM   12  O   UNK N   1      18.212  18.857   2.370  0.00  0.00    -0.332 OA
HETATM   13  H   UNK N   1      17.662  19.543   2.694  0.00  0.00     0.220 HD
ENDBRANCH   4  12
TORSDOF 2
ENDMDL
MODEL 8
REMARK VINA RESULT:      -3.9     13.703     14.500
REMARK  2 active torsions:
REMARK  status: ('A' for Active; 'I' for Inactive)
REMARK    1  A    between atoms: O_10  and  C_3 
REMARK    2  A    between atoms: O_11  and  C_4 
ROOT
HETATM    1  C   UNK N   1      32.099  16.237   8.445  0.00  0.00     0.146 C 
HETATM    2  C   UNK N   1      32.840  16.204   7.109  0.00  0.00     0.145 C 
HETATM    3  C   UNK N   1      33.874  17.307   7.100  0.00  0.00     0.134 C 
HETATM    4  C   UNK N   1      34.138  17.013   9.435  0.00  0.00     0.218 C 
HETATM    5  I   UNK N   1      31.474  16.267   5.462  0.00  0.00    -0.074 I 
HETATM    6  N   UNK N   1      33.034  16.349   9.550  0.00  0.00    -0.355 N 
ATOM      7  HN  UNK N   1      32.817  15.892  10.437  1.00  0.00     0.163 HD
HETATM    8  N   UNK N   1      34.490  17.616   8.189  0.00  0.00    -0.306 N 
ATOM      9  HN  UNK N   1      35.243  18.303   8.160  1.00  0.00     0.171 HD
ENDROOT
BRANCH   3  10
HETATM   10  O   UNK N   1      34.200  17.926   5.949  0.00  0.00    -0.348 OA
HETATM   11  H   UNK N   1      33.745  17.714   5.157  0.00  0.00     0.219 HD
ENDBRANCH   3  10
BRANCH   4  12
HETATM   12  O   UNK N   1      34.951  17.150  10.496  0.00  0.00    -0.332 OA
HETATM   13  H   UNK N   1      35.463  16.430  10.807  0.00  0.00     0.220 HD
ENDBRANCH   4  12
TORSDOF 2
ENDMDL
MODEL 9
REMARK VINA RESULT:      -3.9     19.018     19.697
REMARK  2 active torsions:
REMARK  status: ('A' for Active; 'I' for Inactive)
REMARK    1  A    between atoms: O_10  and  C_3 
REMARK    2  A    between atoms: O_11  and  C_4 
ROOT
HETATM    1  C   UNK N   1      34.906  12.472  13.437  0.00  0.00     0.146 C 
HETATM    2  C   UNK N   1      35.354  13.122  14.744  0.00  0.00     0.145 C 
HETATM    3  C   UNK N   1      36.545  14.009  14.464  0.00  0.00     0.134 C 
HETATM    4  C   UNK N   1      35.643  14.461  12.321  0.00  0.00     0.218 C 
HETATM    5  I   UNK N   1      35.692  11.654  16.265  0.00  0.00    -0.074 I 
HETATM    6  N   UNK N   1      34.828  13.457  12.372  0.00  0.00    -0.355 N 
ATOM      7  HN  UNK N   1      34.114  13.357  11.650  1.00  0.00     0.163 HD
HETATM    8  N   UNK N   1      36.615  14.653  13.349  0.00  0.00    -0.306 N 
ATOM      9  HN  UNK N   1      37.379  15.312  13.198  1.00  0.00     0.171 HD
ENDROOT
BRANCH   3  10
HETATM   10  O   UNK N   1      37.503  14.180  15.394  0.00  0.00    -0.348 OA
HETATM   11  H   UNK N   1      37.390  14.817  16.073  0.00  0.00     0.219 HD
ENDBRANCH   3  10
BRANCH   4  12
HETATM   12  O   UNK N   1      35.584  15.319  11.288  0.00  0.00    -0.332 OA
HETATM   13  H   UNK N   1      35.174  15.074  10.482  0.00  0.00     0.220 HD
ENDBRANCH   4  12
TORSDOF 2
ENDMDL
