REMARK  7 active torsions:
REMARK  status: ('A' for Active; 'I' for Inactive)
REMARK    1  A    between atoms: C_2  and  C_1 
REMARK    2  A    between atoms: Se_11  and  C_1 
REMARK    3  A    between atoms: C_3  and  C_2 
REMARK    4  A    between atoms: C_2  and  N_4 
REMARK    5  A    between atoms: O_6  and  C_3 
REMARK    6  A    between atoms: Se_11  and  O_7 
REMARK    7  A    between atoms: Se_11  and  O_9 
ROOT
HETATM    1  C   UNK N   1       0.901   0.602  -0.140  0.00  0.00     0.173 C 
ENDROOT
BRANCH   1   2
HETATM    2  C   UNK N   1       2.236   0.617   0.595  0.00  0.00     0.038 C 
BRANCH   2   3
HETATM    3 Se   UNK N   1       3.608   1.579  -0.403  0.00  0.00     0.000 Se
BRANCH   3   4
HETATM    4  O   UNK N   1       4.592   1.597   0.916  0.00  0.00    -0.253 OA
ATOM      5  HO  UNK N   1       5.260   2.065   0.430  1.00  0.00     0.253 HD
ENDBRANCH   3   4
BRANCH   3   6
HETATM    6  O   UNK N   1       4.254   0.145  -0.890  0.00  0.00    -0.253 OA
ATOM      7  HO  UNK N   1       4.923   0.613  -1.376  1.00  0.00     0.253 HD
ENDBRANCH   3   6
ENDBRANCH   2   3
ENDBRANCH   1   2
BRANCH   1   8
HETATM    8  C   UNK N   1       0.099   1.844   0.158  0.00  0.00     0.163 C 
HETATM    9  O   UNK N   1      -1.001   1.762   0.683  0.00  0.00    -0.648 OA
BRANCH   8  10
HETATM   10  O   UNK N   1       0.587   3.057  -0.168  0.00  0.00    -0.775 OA
HETATM   11  H   UNK N   1       1.487   3.185  -0.395  0.00  0.00     0.167 HD
ENDBRANCH   8  10
ENDBRANCH   1   8
BRANCH   1  12
HETATM   12  N   UNK N   1       0.168  -0.584   0.276  0.00  0.00    -0.418 N 
HETATM   13  H   UNK N   1      -0.809  -0.554   0.567  0.00  0.00     0.150 HD
HETATM   14  H   UNK N   1       0.651  -1.482   0.276  0.00  0.00     0.150 HD
ENDBRANCH   1  12
TORSDOF 7
