MODEL 1
REMARK VINA RESULT:      -3.8      0.000      0.000
REMARK  7 active torsions:
REMARK  status: ('A' for Active; 'I' for Inactive)
REMARK    1  A    between atoms: O_1  and  C_2 
REMARK    2  A    between atoms: C_2  and  C_3 
REMARK    3  A    between atoms: C_3  and  C_4 
REMARK    4  A    between atoms: C_4  and  C_5 
REMARK    5  A    between atoms: C_5  and  C_6 
REMARK    6  A    between atoms: C_6  and  C_7 
REMARK    7  A    between atoms: C_7  and  O_8 
ROOT
HETATM    1  C   UNK N   1      32.088  17.247   8.550  0.00  0.00     0.002 C 
ENDROOT
BRANCH   1   2
HETATM    2  C   UNK N   1      33.030  18.224   7.889  0.00  0.00     0.026 C 
BRANCH   2   3
HETATM    3  C   UNK N   1      34.432  17.988   8.403  0.00  0.00     0.164 C 
BRANCH   3   4
HETATM    4  O   UNK N   1      35.124  19.195   8.420  0.00  0.00    -0.401 OA
HETATM    5  H   UNK N   1      35.881  19.312   9.014  0.00  0.00     0.209 HD
ENDBRANCH   3   4
ENDBRANCH   2   3
ENDBRANCH   1   2
BRANCH   1   6
HETATM    6  C   UNK N   1      30.685  17.509   8.060  0.00  0.00     0.002 C 
BRANCH   6   7
HETATM    7  C   UNK N   1      29.942  18.305   9.105  0.00  0.00     0.026 C 
BRANCH   7   8
HETATM    8  C   UNK N   1      28.581  18.683   8.566  0.00  0.00     0.164 C 
BRANCH   8   9
HETATM    9  O   UNK N   1      27.596  18.145   9.389  0.00  0.00    -0.401 OA
HETATM   10  H   UNK N   1      27.197  18.689  10.086  0.00  0.00     0.209 HD
ENDBRANCH   8   9
ENDBRANCH   7   8
ENDBRANCH   6   7
ENDBRANCH   1   6
TORSDOF 7
ENDMDL
MODEL 2
REMARK VINA RESULT:      -3.7      0.113      5.132
REMARK  7 active torsions:
REMARK  status: ('A' for Active; 'I' for Inactive)
REMARK    1  A    between atoms: O_1  and  C_2 
REMARK    2  A    between atoms: C_2  and  C_3 
REMARK    3  A    between atoms: C_3  and  C_4 
REMARK    4  A    between atoms: C_4  and  C_5 
REMARK    5  A    between atoms: C_5  and  C_6 
REMARK    6  A    between atoms: C_6  and  C_7 
REMARK    7  A    between atoms: C_7  and  O_8 
ROOT
HETATM    1  C   UNK N   1      30.659  17.359   8.051  0.00  0.00     0.002 C 
ENDROOT
BRANCH   1   2
HETATM    2  C   UNK N   1      29.960  18.305   8.997  0.00  0.00     0.026 C 
BRANCH   2   3
HETATM    3  C   UNK N   1      28.580  18.611   8.464  0.00  0.00     0.164 C 
BRANCH   3   4
HETATM    4  O   UNK N   1      27.627  18.188   9.386  0.00  0.00    -0.401 OA
HETATM    5  H   UNK N   1      27.603  17.260   9.668  0.00  0.00     0.209 HD
ENDBRANCH   3   4
ENDBRANCH   2   3
ENDBRANCH   1   2
BRANCH   1   6
HETATM    6  C   UNK N   1      32.073  17.139   8.532  0.00  0.00     0.002 C 
BRANCH   6   7
HETATM    7  C   UNK N   1      32.941  18.270   8.036  0.00  0.00     0.026 C 
BRANCH   7   8
HETATM    8  C   UNK N   1      34.385  17.968   8.365  0.00  0.00     0.164 C 
BRANCH   8   9
HETATM    9  O   UNK N   1      35.102  19.160   8.420  0.00  0.00    -0.401 OA
HETATM   10  H   UNK N   1      35.969  19.185   8.854  0.00  0.00     0.209 HD
ENDBRANCH   8   9
ENDBRANCH   7   8
ENDBRANCH   6   7
ENDBRANCH   1   6
TORSDOF 7
ENDMDL
MODEL 3
REMARK VINA RESULT:      -3.7      9.579     11.544
REMARK  7 active torsions:
REMARK  status: ('A' for Active; 'I' for Inactive)
REMARK    1  A    between atoms: O_1  and  C_2 
REMARK    2  A    between atoms: C_2  and  C_3 
REMARK    3  A    between atoms: C_3  and  C_4 
REMARK    4  A    between atoms: C_4  and  C_5 
REMARK    5  A    between atoms: C_5  and  C_6 
REMARK    6  A    between atoms: C_6  and  C_7 
REMARK    7  A    between atoms: C_7  and  O_8 
ROOT
HETATM    1  C   UNK N   1      21.979  13.266  10.138  0.00  0.00     0.002 C 
ENDROOT
BRANCH   1   2
HETATM    2  C   UNK N   1      20.591  13.817   9.919  0.00  0.00     0.026 C 
BRANCH   2   3
HETATM    3  C   UNK N   1      20.681  15.065   9.072  0.00  0.00     0.164 C 
BRANCH   3   4
HETATM    4  O   UNK N   1      19.407  15.419   8.639  0.00  0.00    -0.401 OA
HETATM    5  H   UNK N   1      18.651  14.841   8.829  0.00  0.00     0.209 HD
ENDBRANCH   3   4
ENDBRANCH   2   3
ENDBRANCH   1   2
BRANCH   1   6
HETATM    6  C   UNK N   1      21.909  12.147  11.149  0.00  0.00     0.002 C 
BRANCH   6   7
HETATM    7  C   UNK N   1      23.298  11.869  11.670  0.00  0.00     0.026 C 
BRANCH   7   8
HETATM    8  C   UNK N   1      24.313  12.339  10.653  0.00  0.00     0.164 C 
BRANCH   8   9
HETATM    9  O   UNK N   1      25.476  12.726  11.313  0.00  0.00    -0.401 OA
HETATM   10  H   UNK N   1      25.421  13.288  12.101  0.00  0.00     0.209 HD
ENDBRANCH   8   9
ENDBRANCH   7   8
ENDBRANCH   6   7
ENDBRANCH   1   6
TORSDOF 7
ENDMDL
MODEL 4
REMARK VINA RESULT:      -3.7     10.426     11.105
REMARK  7 active torsions:
REMARK  status: ('A' for Active; 'I' for Inactive)
REMARK    1  A    between atoms: O_1  and  C_2 
REMARK    2  A    between atoms: C_2  and  C_3 
REMARK    3  A    between atoms: C_3  and  C_4 
REMARK    4  A    between atoms: C_4  and  C_5 
REMARK    5  A    between atoms: C_5  and  C_6 
REMARK    6  A    between atoms: C_6  and  C_7 
REMARK    7  A    between atoms: C_7  and  O_8 
ROOT
HETATM    1  C   UNK N   1      21.592  12.260  11.048  0.00  0.00     0.002 C 
ENDROOT
BRANCH   1   2
HETATM    2  C   UNK N   1      22.986  11.736  10.798  0.00  0.00     0.026 C 
BRANCH   2   3
HETATM    3  C   UNK N   1      23.817  11.920  12.047  0.00  0.00     0.164 C 
BRANCH   3   4
HETATM    4  O   UNK N   1      25.095  12.340  11.690  0.00  0.00    -0.401 OA
HETATM    5  H   UNK N   1      25.208  13.070  11.061  0.00  0.00     0.209 HD
ENDBRANCH   3   4
ENDBRANCH   2   3
ENDBRANCH   1   2
BRANCH   1   6
HETATM    6  C   UNK N   1      21.025  12.785   9.751  0.00  0.00     0.002 C 
BRANCH   6   7
HETATM    7  C   UNK N   1      21.502  14.201   9.545  0.00  0.00     0.026 C 
BRANCH   7   8
HETATM    8  C   UNK N   1      20.327  15.070   9.155  0.00  0.00     0.164 C 
BRANCH   8   9
HETATM    9  O   UNK N   1      19.156  14.505   9.651  0.00  0.00    -0.401 OA
HETATM   10  H   UNK N   1      19.168  14.029  10.496  0.00  0.00     0.209 HD
ENDBRANCH   8   9
ENDBRANCH   7   8
ENDBRANCH   6   7
ENDBRANCH   1   6
TORSDOF 7
ENDMDL
MODEL 5
REMARK VINA RESULT:      -3.6      5.487      8.142
REMARK  7 active torsions:
REMARK  status: ('A' for Active; 'I' for Inactive)
REMARK    1  A    between atoms: O_1  and  C_2 
REMARK    2  A    between atoms: C_2  and  C_3 
REMARK    3  A    between atoms: C_3  and  C_4 
REMARK    4  A    between atoms: C_4  and  C_5 
REMARK    5  A    between atoms: C_5  and  C_6 
REMARK    6  A    between atoms: C_6  and  C_7 
REMARK    7  A    between atoms: C_7  and  O_8 
ROOT
HETATM    1  C   UNK N   1      26.670  20.221   3.716  0.00  0.00     0.002 C 
ENDROOT
BRANCH   1   2
HETATM    2  C   UNK N   1      25.601  20.537   2.698  0.00  0.00     0.026 C 
BRANCH   2   3
HETATM    3  C   UNK N   1      24.243  20.268   3.304  0.00  0.00     0.164 C 
BRANCH   3   4
HETATM    4  O   UNK N   1      23.364  21.280   2.930  0.00  0.00    -0.401 OA
HETATM    5  H   UNK N   1      23.362  22.123   3.410  0.00  0.00     0.209 HD
ENDBRANCH   3   4
ENDBRANCH   2   3
ENDBRANCH   1   2
BRANCH   1   6
HETATM    6  C   UNK N   1      26.174  20.611   5.087  0.00  0.00     0.002 C 
BRANCH   6   7
HETATM    7  C   UNK N   1      27.353  21.004   5.942  0.00  0.00     0.026 C 
BRANCH   7   8
HETATM    8  C   UNK N   1      27.694  19.862   6.874  0.00  0.00     0.164 C 
BRANCH   8   9
HETATM    9  O   UNK N   1      26.918  19.964   8.025  0.00  0.00    -0.401 OA
HETATM   10  H   UNK N   1      27.054  20.705   8.636  0.00  0.00     0.209 HD
ENDBRANCH   8   9
ENDBRANCH   7   8
ENDBRANCH   6   7
ENDBRANCH   1   6
TORSDOF 7
ENDMDL
MODEL 6
REMARK VINA RESULT:      -3.4     11.872     12.926
REMARK  7 active torsions:
REMARK  status: ('A' for Active; 'I' for Inactive)
REMARK    1  A    between atoms: O_1  and  C_2 
REMARK    2  A    between atoms: C_2  and  C_3 
REMARK    3  A    between atoms: C_3  and  C_4 
REMARK    4  A    between atoms: C_4  and  C_5 
REMARK    5  A    between atoms: C_5  and  C_6 
REMARK    6  A    between atoms: C_6  and  C_7 
REMARK    7  A    between atoms: C_7  and  O_8 
ROOT
HETATM    1  C   UNK N   1      21.120  18.253   3.326  0.00  0.00     0.002 C 
ENDROOT
BRANCH   1   2
HETATM    2  C   UNK N   1      20.917  19.710   3.662  0.00  0.00     0.026 C 
BRANCH   2   3
HETATM    3  C   UNK N   1      21.121  20.540   2.416  0.00  0.00     0.164 C 
BRANCH   3   4
HETATM    4  O   UNK N   1      21.853  21.680   2.738  0.00  0.00    -0.401 OA
HETATM    5  H   UNK N   1      22.541  21.638   3.420  0.00  0.00     0.209 HD
ENDBRANCH   3   4
ENDBRANCH   2   3
ENDBRANCH   1   2
BRANCH   1   6
HETATM    6  C   UNK N   1      19.906  17.745   2.586  0.00  0.00     0.002 C 
BRANCH   6   7
HETATM    7  C   UNK N   1      20.277  16.487   1.840  0.00  0.00     0.026 C 
BRANCH   7   8
HETATM    8  C   UNK N   1      19.825  16.609   0.403  0.00  0.00     0.164 C 
BRANCH   8   9
HETATM    9  O   UNK N   1      20.317  17.795  -0.133  0.00  0.00    -0.401 OA
HETATM   10  H   UNK N   1      20.385  18.587   0.423  0.00  0.00     0.209 HD
ENDBRANCH   8   9
ENDBRANCH   7   8
ENDBRANCH   6   7
ENDBRANCH   1   6
TORSDOF 7
ENDMDL
MODEL 7
REMARK VINA RESULT:      -3.4      3.519      4.966
REMARK  7 active torsions:
REMARK  status: ('A' for Active; 'I' for Inactive)
REMARK    1  A    between atoms: O_1  and  C_2 
REMARK    2  A    between atoms: C_2  and  C_3 
REMARK    3  A    between atoms: C_3  and  C_4 
REMARK    4  A    between atoms: C_4  and  C_5 
REMARK    5  A    between atoms: C_5  and  C_6 
REMARK    6  A    between atoms: C_6  and  C_7 
REMARK    7  A    between atoms: C_7  and  O_8 
ROOT
HETATM    1  C   UNK N   1      33.475  17.339   5.781  0.00  0.00     0.002 C 
ENDROOT
BRANCH   1   2
HETATM    2  C   UNK N   1      32.697  17.703   4.539  0.00  0.00     0.026 C 
BRANCH   2   3
HETATM    3  C   UNK N   1      32.996  16.697   3.453  0.00  0.00     0.164 C 
BRANCH   3   4
HETATM    4  O   UNK N   1      33.781  15.674   3.977  0.00  0.00    -0.401 OA
HETATM    5  H   UNK N   1      34.709  15.841   4.204  0.00  0.00     0.209 HD
ENDBRANCH   3   4
ENDBRANCH   2   3
ENDBRANCH   1   2
BRANCH   1   6
HETATM    6  C   UNK N   1      32.544  17.362   6.969  0.00  0.00     0.002 C 
BRANCH   6   7
HETATM    7  C   UNK N   1      33.142  18.235   8.044  0.00  0.00     0.026 C 
BRANCH   7   8
HETATM    8  C   UNK N   1      34.642  18.045   8.061  0.00  0.00     0.164 C 
BRANCH   8   9
HETATM    9  O   UNK N   1      35.247  19.215   8.511  0.00  0.00    -0.401 OA
HETATM   10  H   UNK N   1      35.812  19.729   7.912  0.00  0.00     0.209 HD
ENDBRANCH   8   9
ENDBRANCH   7   8
ENDBRANCH   6   7
ENDBRANCH   1   6
TORSDOF 7
ENDMDL
MODEL 8
REMARK VINA RESULT:      -3.2     10.947     11.565
REMARK  7 active torsions:
REMARK  status: ('A' for Active; 'I' for Inactive)
REMARK    1  A    between atoms: O_1  and  C_2 
REMARK    2  A    between atoms: C_2  and  C_3 
REMARK    3  A    between atoms: C_3  and  C_4 
REMARK    4  A    between atoms: C_4  and  C_5 
REMARK    5  A    between atoms: C_5  and  C_6 
REMARK    6  A    between atoms: C_6  and  C_7 
REMARK    7  A    between atoms: C_7  and  O_8 
ROOT
HETATM    1  C   UNK N   1      35.365  12.836  16.902  0.00  0.00     0.002 C 
ENDROOT
BRANCH   1   2
HETATM    2  C   UNK N   1      35.115  13.618  18.169  0.00  0.00     0.026 C 
BRANCH   2   3
HETATM    3  C   UNK N   1      35.259  12.698  19.358  0.00  0.00     0.164 C 
BRANCH   3   4
HETATM    4  O   UNK N   1      34.810  13.351  20.502  0.00  0.00    -0.401 OA
HETATM    5  H   UNK N   1      35.356  14.039  20.914  0.00  0.00     0.209 HD
ENDBRANCH   3   4
ENDBRANCH   2   3
ENDBRANCH   1   2
BRANCH   1   6
HETATM    6  C   UNK N   1      35.213  11.363  17.197  0.00  0.00     0.002 C 
BRANCH   6   7
HETATM    7  C   UNK N   1      35.071  10.614  15.894  0.00  0.00     0.026 C 
BRANCH   7   8
HETATM    8  C   UNK N   1      34.279  11.457  14.921  0.00  0.00     0.164 C 
BRANCH   8   9
HETATM    9  O   UNK N   1      33.111  10.783  14.577  0.00  0.00    -0.401 OA
HETATM   10  H   UNK N   1      32.363  11.272  14.198  0.00  0.00     0.209 HD
ENDBRANCH   8   9
ENDBRANCH   7   8
ENDBRANCH   6   7
ENDBRANCH   1   6
TORSDOF 7
ENDMDL
MODEL 9
REMARK VINA RESULT:      -3.2      9.644     10.458
REMARK  7 active torsions:
REMARK  status: ('A' for Active; 'I' for Inactive)
REMARK    1  A    between atoms: O_1  and  C_2 
REMARK    2  A    between atoms: C_2  and  C_3 
REMARK    3  A    between atoms: C_3  and  C_4 
REMARK    4  A    between atoms: C_4  and  C_5 
REMARK    5  A    between atoms: C_5  and  C_6 
REMARK    6  A    between atoms: C_6  and  C_7 
REMARK    7  A    between atoms: C_7  and  O_8 
ROOT
HETATM    1  C   UNK N   1      36.212  12.876  15.534  0.00  0.00     0.002 C 
ENDROOT
BRANCH   1   2
HETATM    2  C   UNK N   1      36.170  13.876  14.404  0.00  0.00     0.026 C 
BRANCH   2   3
HETATM    3  C   UNK N   1      35.814  13.162  13.121  0.00  0.00     0.164 C 
BRANCH   3   4
HETATM    4  O   UNK N   1      34.451  13.306  12.878  0.00  0.00    -0.401 OA
HETATM    5  H   UNK N   1      33.890  12.521  12.780  0.00  0.00     0.209 HD
ENDBRANCH   3   4
ENDBRANCH   2   3
ENDBRANCH   1   2
BRANCH   1   6
HETATM    6  C   UNK N   1      34.965  13.027  16.370  0.00  0.00     0.002 C 
BRANCH   6   7
HETATM    7  C   UNK N   1      35.219  12.445  17.739  0.00  0.00     0.026 C 
BRANCH   7   8
HETATM    8  C   UNK N   1      35.151  13.550  18.769  0.00  0.00     0.164 C 
BRANCH   8   9
HETATM    9  O   UNK N   1      35.254  12.997  20.042  0.00  0.00    -0.401 OA
HETATM   10  H   UNK N   1      34.500  12.521  20.425  0.00  0.00     0.209 HD
ENDBRANCH   8   9
ENDBRANCH   7   8
ENDBRANCH   6   7
ENDBRANCH   1   6
TORSDOF 7
ENDMDL
