MODEL 1
REMARK VINA RESULT:      -4.1      0.000      0.000
REMARK  2 active torsions:
REMARK  status: ('A' for Active; 'I' for Inactive)
REMARK    1  A    between atoms: C_2  and  N_4 
REMARK       I    between atoms: N_4  and  C_5 
REMARK       I    between atoms: C_5  and  N_8 
REMARK    2  A    between atoms: N_8  and  O_9 
ROOT
HETATM    1  N   UNK N   1      22.575  11.602  10.560  0.00  0.00    -0.221 N 
HETATM    2  C   UNK N   1      23.433  11.909  11.655  0.00  0.00     0.691 C 
HETATM    3  N   UNK N   1      24.605  12.397  11.465  0.00  0.00    -0.233 N 
ATOM      4  HN  UNK N   1      24.937  12.572  10.516  1.00  0.00     0.174 HD
HETATM    5  N   UNK N   1      22.972  11.666  12.972  0.00  0.00    -0.099 N 
HETATM    6  H   UNK N   1      21.690  11.231  10.782  0.00  0.00     0.178 HD
HETATM    7  H   UNK N   1      25.184  12.603  12.234  0.00  0.00     0.174 HD
HETATM    8  H   UNK N   1      22.072  11.292  13.109  0.00  0.00     0.213 HD
ENDROOT
BRANCH   1   9
HETATM    9  C   UNK N   1      22.871  11.781   9.152  0.00  0.00     0.091 C 
HETATM   10  C   UNK N   1      22.369  13.056   8.509  0.00  0.00     0.032 C 
HETATM   11  C   UNK N   1      23.644  10.748   8.350  0.00  0.00     0.032 C 
ENDBRANCH   1   9
BRANCH   5  12
HETATM   12  O   UNK N   1      23.743  11.939  14.035  0.00  0.00    -0.276 OA
HETATM   13  H   UNK N   1      23.598  12.752  14.542  0.00  0.00     0.245 HD
ENDBRANCH   5  12
TORSDOF 2
ENDMDL
MODEL 2
REMARK VINA RESULT:      -4.1     11.741     12.594
REMARK  2 active torsions:
REMARK  status: ('A' for Active; 'I' for Inactive)
REMARK    1  A    between atoms: C_2  and  N_4 
REMARK       I    between atoms: N_4  and  C_5 
REMARK       I    between atoms: C_5  and  N_8 
REMARK    2  A    between atoms: N_8  and  O_9 
ROOT
HETATM    1  N   UNK N   1      20.513  19.159   1.723  0.00  0.00    -0.221 N 
HETATM    2  C   UNK N   1      20.611  20.580   1.750  0.00  0.00     0.691 C 
HETATM    3  N   UNK N   1      20.915  21.205   2.828  0.00  0.00    -0.233 N 
ATOM      4  HN  UNK N   1      21.092  20.684   3.687  1.00  0.00     0.174 HD
HETATM    5  N   UNK N   1      20.366  21.303   0.557  0.00  0.00    -0.099 N 
HETATM    6  H   UNK N   1      20.275  18.748   0.859  0.00  0.00     0.178 HD
HETATM    7  H   UNK N   1      20.978  22.187   2.827  0.00  0.00     0.174 HD
HETATM    8  H   UNK N   1      20.133  20.816  -0.266  0.00  0.00     0.213 HD
ENDROOT
BRANCH   1   9
HETATM    9  C   UNK N   1      20.727  18.255   2.836  0.00  0.00     0.091 C 
HETATM   10  C   UNK N   1      19.525  17.468   3.312  0.00  0.00     0.032 C 
HETATM   11  C   UNK N   1      22.084  18.097   3.501  0.00  0.00     0.032 C 
ENDBRANCH   1   9
BRANCH   5  12
HETATM   12  O   UNK N   1      20.446  22.641   0.532  0.00  0.00    -0.276 OA
HETATM   13  H   UNK N   1      19.826  23.174   1.053  0.00  0.00     0.245 HD
ENDBRANCH   5  12
TORSDOF 2
ENDMDL
MODEL 3
REMARK VINA RESULT:      -4.0     23.249     23.886
REMARK  2 active torsions:
REMARK  status: ('A' for Active; 'I' for Inactive)
REMARK    1  A    between atoms: C_2  and  N_4 
REMARK       I    between atoms: N_4  and  C_5 
REMARK       I    between atoms: C_5  and  N_8 
REMARK    2  A    between atoms: N_8  and  O_9 
ROOT
HETATM    1  N   UNK N   1      42.824  21.945   2.296  0.00  0.00    -0.221 N 
HETATM    2  C   UNK N   1      43.731  22.531   3.225  0.00  0.00     0.691 C 
HETATM    3  N   UNK N   1      43.401  23.558   3.919  0.00  0.00    -0.233 N 
ATOM      4  HN  UNK N   1      42.473  23.969   3.812  1.00  0.00     0.174 HD
HETATM    5  N   UNK N   1      45.019  21.960   3.373  0.00  0.00    -0.099 N 
HETATM    6  H   UNK N   1      43.146  21.159   1.798  0.00  0.00     0.178 HD
HETATM    7  H   UNK N   1      44.042  23.950   4.556  0.00  0.00     0.174 HD
HETATM    8  H   UNK N   1      45.264  21.172   2.836  0.00  0.00     0.213 HD
ENDROOT
BRANCH   1   9
HETATM    9  C   UNK N   1      41.473  22.387   2.010  0.00  0.00     0.091 C 
HETATM   10  C   UNK N   1      40.356  21.424   2.351  0.00  0.00     0.032 C 
HETATM   11  C   UNK N   1      41.179  23.747   1.397  0.00  0.00     0.032 C 
ENDBRANCH   1   9
BRANCH   5  12
HETATM   12  O   UNK N   1      45.908  22.476   4.233  0.00  0.00    -0.276 OA
HETATM   13  H   UNK N   1      46.125  22.000   5.050  0.00  0.00     0.245 HD
ENDBRANCH   5  12
TORSDOF 2
ENDMDL
MODEL 4
REMARK VINA RESULT:      -3.8      6.849      7.664
REMARK  2 active torsions:
REMARK  status: ('A' for Active; 'I' for Inactive)
REMARK    1  A    between atoms: C_2  and  N_4 
REMARK       I    between atoms: N_4  and  C_5 
REMARK       I    between atoms: C_5  and  N_8 
REMARK    2  A    between atoms: N_8  and  O_9 
ROOT
HETATM    1  N   UNK N   1      19.939  17.563   9.014  0.00  0.00    -0.221 N 
HETATM    2  C   UNK N   1      18.728  18.116   9.522  0.00  0.00     0.691 C 
HETATM    3  N   UNK N   1      17.593  17.573   9.273  0.00  0.00    -0.233 N 
ATOM      4  HN  UNK N   1      17.545  16.729   8.701  1.00  0.00     0.174 HD
HETATM    5  N   UNK N   1      18.795  19.286  10.316  0.00  0.00    -0.099 N 
HETATM    6  H   UNK N   1      20.772  18.033   9.246  0.00  0.00     0.178 HD
HETATM    7  H   UNK N   1      16.767  17.969   9.633  0.00  0.00     0.174 HD
HETATM    8  H   UNK N   1      19.670  19.697  10.503  0.00  0.00     0.213 HD
ENDROOT
BRANCH   1   9
HETATM    9  C   UNK N   1      20.069  16.377   8.188  0.00  0.00     0.091 C 
HETATM   10  C   UNK N   1      20.284  15.066   8.912  0.00  0.00     0.032 C 
HETATM   11  C   UNK N   1      19.995  16.435   6.671  0.00  0.00     0.032 C 
ENDBRANCH   1   9
BRANCH   5  12
HETATM   12  O   UNK N   1      17.684  19.844  10.818  0.00  0.00    -0.276 OA
HETATM   13  H   UNK N   1      16.841  19.756  10.346  0.00  0.00     0.245 HD
ENDBRANCH   5  12
TORSDOF 2
ENDMDL
MODEL 5
REMARK VINA RESULT:      -3.8     30.177     30.852
REMARK  2 active torsions:
REMARK  status: ('A' for Active; 'I' for Inactive)
REMARK    1  A    between atoms: C_2  and  N_4 
REMARK       I    between atoms: N_4  and  C_5 
REMARK       I    between atoms: C_5  and  N_8 
REMARK    2  A    between atoms: N_8  and  O_9 
ROOT
HETATM    1  N   UNK N   1      46.635  29.305  18.882  0.00  0.00    -0.221 N 
HETATM    2  C   UNK N   1      47.478  28.926  17.798  0.00  0.00     0.691 C 
HETATM    3  N   UNK N   1      48.720  28.660  17.983  0.00  0.00    -0.233 N 
ATOM      4  HN  UNK N   1      49.120  28.718  18.919  1.00  0.00     0.174 HD
HETATM    5  N   UNK N   1      46.922  28.845  16.498  0.00  0.00    -0.099 N 
HETATM    6  H   UNK N   1      45.693  29.494  18.664  0.00  0.00     0.178 HD
HETATM    7  H   UNK N   1      49.287  28.399  17.221  0.00  0.00     0.174 HD
HETATM    8  H   UNK N   1      45.969  29.051  16.364  0.00  0.00     0.213 HD
ENDROOT
BRANCH   1   9
HETATM    9  C   UNK N   1      47.022  29.440  20.273  0.00  0.00     0.091 C 
HETATM   10  C   UNK N   1      47.056  30.846  20.834  0.00  0.00     0.032 C 
HETATM   11  C   UNK N   1      47.378  28.241  21.135  0.00  0.00     0.032 C 
ENDBRANCH   1   9
BRANCH   5  12
HETATM   12  O   UNK N   1      47.675  28.493  15.446  0.00  0.00    -0.276 OA
HETATM   13  H   UNK N   1      48.427  29.045  15.180  0.00  0.00     0.245 HD
ENDBRANCH   5  12
TORSDOF 2
ENDMDL
MODEL 6
REMARK VINA RESULT:      -3.8     12.220     13.220
REMARK  2 active torsions:
REMARK  status: ('A' for Active; 'I' for Inactive)
REMARK    1  A    between atoms: C_2  and  N_4 
REMARK       I    between atoms: N_4  and  C_5 
REMARK       I    between atoms: C_5  and  N_8 
REMARK    2  A    between atoms: N_8  and  O_9 
ROOT
HETATM    1  N   UNK N   1      36.191  15.281  11.998  0.00  0.00    -0.221 N 
HETATM    2  C   UNK N   1      35.054  15.670  11.232  0.00  0.00     0.691 C 
HETATM    3  N   UNK N   1      34.030  14.904  11.126  0.00  0.00    -0.233 N 
ATOM      4  HN  UNK N   1      34.020  13.998  11.596  1.00  0.00     0.174 HD
HETATM    5  N   UNK N   1      35.069  16.927  10.581  0.00  0.00    -0.099 N 
HETATM    6  H   UNK N   1      36.940  15.920  12.035  0.00  0.00     0.178 HD
HETATM    7  H   UNK N   1      33.254  15.190  10.592  0.00  0.00     0.174 HD
HETATM    8  H   UNK N   1      35.859  17.509  10.667  0.00  0.00     0.213 HD
ENDROOT
BRANCH   1   9
HETATM    9  C   UNK N   1      36.358  14.041  12.731  0.00  0.00     0.091 C 
HETATM   10  C   UNK N   1      37.040  12.906  11.998  0.00  0.00     0.032 C 
HETATM   11  C   UNK N   1      35.877  13.875  14.163  0.00  0.00     0.032 C 
ENDBRANCH   1   9
BRANCH   5  12
HETATM   12  O   UNK N   1      34.024  17.338   9.848  0.00  0.00    -0.276 OA
HETATM   13  H   UNK N   1      33.157  17.460  10.266  0.00  0.00     0.245 HD
ENDBRANCH   5  12
TORSDOF 2
ENDMDL
MODEL 7
REMARK VINA RESULT:      -3.8      1.782      2.435
REMARK  2 active torsions:
REMARK  status: ('A' for Active; 'I' for Inactive)
REMARK    1  A    between atoms: C_2  and  N_4 
REMARK       I    between atoms: N_4  and  C_5 
REMARK       I    between atoms: C_5  and  N_8 
REMARK    2  A    between atoms: N_8  and  O_9 
ROOT
HETATM    1  N   UNK N   1      22.800  13.469   9.578  0.00  0.00    -0.221 N 
HETATM    2  C   UNK N   1      23.359  12.502  10.462  0.00  0.00     0.691 C 
HETATM    3  N   UNK N   1      22.708  11.445  10.788  0.00  0.00    -0.233 N 
ATOM      4  HN  UNK N   1      21.773  11.286  10.412  1.00  0.00     0.174 HD
HETATM    5  N   UNK N   1      24.657  12.725  10.983  0.00  0.00    -0.099 N 
HETATM    6  H   UNK N   1      23.357  14.256   9.373  0.00  0.00     0.178 HD
HETATM    7  H   UNK N   1      23.111  10.788  11.400  0.00  0.00     0.174 HD
HETATM    8  H   UNK N   1      25.149  13.538  10.728  0.00  0.00     0.213 HD
ENDROOT
BRANCH   1   9
HETATM    9  C   UNK N   1      21.495  13.415   8.949  0.00  0.00     0.091 C 
HETATM   10  C   UNK N   1      20.359  14.096   9.681  0.00  0.00     0.032 C 
HETATM   11  C   UNK N   1      21.265  12.713   7.621  0.00  0.00     0.032 C 
ENDBRANCH   1   9
BRANCH   5  12
HETATM   12  O   UNK N   1      25.225  11.844  11.819  0.00  0.00    -0.276 OA
HETATM   13  H   UNK N   1      26.138  11.553  11.669  0.00  0.00     0.245 HD
ENDBRANCH   5  12
TORSDOF 2
ENDMDL
MODEL 8
REMARK VINA RESULT:      -3.8     23.743     24.377
REMARK  2 active torsions:
REMARK  status: ('A' for Active; 'I' for Inactive)
REMARK    1  A    between atoms: C_2  and  N_4 
REMARK       I    between atoms: N_4  and  C_5 
REMARK       I    between atoms: C_5  and  N_8 
REMARK    2  A    between atoms: N_8  and  O_9 
ROOT
HETATM    1  N   UNK N   1      43.414  22.037   2.201  0.00  0.00    -0.221 N 
HETATM    2  C   UNK N   1      44.126  23.083   2.856  0.00  0.00     0.691 C 
HETATM    3  N   UNK N   1      43.614  23.717   3.846  0.00  0.00    -0.233 N 
ATOM      4  HN  UNK N   1      42.680  23.476   4.179  1.00  0.00     0.174 HD
HETATM    5  N   UNK N   1      45.423  23.417   2.394  0.00  0.00    -0.099 N 
HETATM    6  H   UNK N   1      43.869  21.595   1.448  0.00  0.00     0.178 HD
HETATM    7  H   UNK N   1      44.122  24.437   4.286  0.00  0.00     0.174 HD
HETATM    8  H   UNK N   1      45.808  22.925   1.633  0.00  0.00     0.213 HD
ENDROOT
BRANCH   1   9
HETATM    9  C   UNK N   1      42.085  21.558   2.530  0.00  0.00     0.091 C 
HETATM   10  C   UNK N   1      40.921  22.322   1.937  0.00  0.00     0.032 C 
HETATM   11  C   UNK N   1      41.859  20.349   3.423  0.00  0.00     0.032 C 
ENDBRANCH   1   9
BRANCH   5  12
HETATM   12  O   UNK N   1      46.133  24.393   2.977  0.00  0.00    -0.276 OA
HETATM   13  H   UNK N   1      45.819  25.310   2.940  0.00  0.00     0.245 HD
ENDBRANCH   5  12
TORSDOF 2
ENDMDL
MODEL 9
REMARK VINA RESULT:      -3.7     12.696     13.675
REMARK  2 active torsions:
REMARK  status: ('A' for Active; 'I' for Inactive)
REMARK    1  A    between atoms: C_2  and  N_4 
REMARK       I    between atoms: N_4  and  C_5 
REMARK       I    between atoms: C_5  and  N_8 
REMARK    2  A    between atoms: N_8  and  O_9 
ROOT
HETATM    1  N   UNK N   1      35.488  13.967  13.535  0.00  0.00    -0.221 N 
HETATM    2  C   UNK N   1      36.390  14.283  12.479  0.00  0.00     0.691 C 
HETATM    3  N   UNK N   1      37.287  13.449  12.098  0.00  0.00    -0.233 N 
ATOM      4  HN  UNK N   1      37.363  12.539  12.553  1.00  0.00     0.174 HD
HETATM    5  N   UNK N   1      36.283  15.546  11.847  0.00  0.00    -0.099 N 
HETATM    6  H   UNK N   1      34.826  14.657  13.774  0.00  0.00     0.178 HD
HETATM    7  H   UNK N   1      37.901  13.685  11.366  0.00  0.00     0.174 HD
HETATM    8  H   UNK N   1      35.592  16.181  12.145  0.00  0.00     0.213 HD
ENDROOT
BRANCH   1   9
HETATM    9  C   UNK N   1      35.445  12.733  14.296  0.00  0.00     0.091 C 
HETATM   10  C   UNK N   1      36.366  12.642  15.494  0.00  0.00     0.032 C 
HETATM   11  C   UNK N   1      34.527  11.582  13.920  0.00  0.00     0.032 C 
ENDBRANCH   1   9
BRANCH   5  12
HETATM   12  O   UNK N   1      37.108  15.891  10.848  0.00  0.00    -0.276 OA
HETATM   13  H   UNK N   1      37.387  16.814  10.746  0.00  0.00     0.245 HD
ENDBRANCH   5  12
TORSDOF 2
ENDMDL
