REMARK  3 active torsions:
REMARK  status: ('A' for Active; 'I' for Inactive)
REMARK    1  A    between atoms: C_2  and  C_4 
REMARK    2  A    between atoms: C_4  and  C_5 
REMARK    3  A    between atoms: C_5  and  O_6 
ROOT
HETATM    1  C   UNK N   1       0.823  -0.949   0.000  0.00  0.00     0.030 C 
ENDROOT
BRANCH   1   2
HETATM    2  C   UNK N   1       2.347  -0.889  -0.000  0.00  0.00    -0.021 C 
HETATM    3  C   UNK N   1       3.121  -2.188   0.000  0.00  0.00     0.009 C 
HETATM    4  C   UNK N   1       3.117   0.422   0.000  0.00  0.00     0.009 C 
ENDBRANCH   1   2
BRANCH   1   5
HETATM    5  C   UNK N   1       0.196   0.433  -0.000  0.00  0.00     0.164 C 
BRANCH   5   6
HETATM    6  O   UNK N   1      -1.192   0.313   0.000  0.00  0.00    -0.401 OA
HETATM    7  H   UNK N   1      -1.748   1.108   0.000  0.00  0.00     0.209 HD
ENDBRANCH   5   6
ENDBRANCH   1   5
TORSDOF 3
