MODEL 1
REMARK VINA RESULT:      -4.1      0.000      0.000
REMARK  2 active torsions:
REMARK  status: ('A' for Active; 'I' for Inactive)
REMARK    1  A    between atoms: N_1  and  C_2 
REMARK    2  A    between atoms: C_2  and  C_3 
ROOT
HETATM    1  C   UNK N   1      23.277  13.019  10.026  0.00  0.00     0.011 A 
HETATM    2  C   UNK N   1      23.017  12.092  11.193  0.00  0.00     0.006 A 
HETATM    3  C   UNK N   1      21.579  11.933  11.664  0.00  0.00     0.000 A 
HETATM    4  C   UNK N   1      20.457  12.696  10.963  0.00  0.00     0.000 A 
HETATM    5  C   UNK N   1      20.757  13.623   9.787  0.00  0.00     0.000 A 
HETATM    6  C   UNK N   1      22.190  13.798   9.298  0.00  0.00     0.006 A 
ENDROOT
BRANCH   1   7
HETATM    7  C   UNK N   1      24.737  13.143   9.593  0.00  0.00     0.234 C 
BRANCH   7   8
HETATM    8  N   UNK N   1      25.622  13.398  10.714  0.00  0.00    -0.079 N 
HETATM    9  H   UNK N   1      25.544  14.270  11.237  0.00  0.00     0.274 HD
HETATM   10  H   UNK N   1      26.323  12.706  10.979  0.00  0.00     0.274 HD
HETATM   11  H   UNK N   1      26.244  13.577  11.502  0.00  0.00     0.274 HD
ENDBRANCH   7   8
ENDBRANCH   1   7
TORSDOF 2
ENDMDL
MODEL 2
REMARK VINA RESULT:      -4.0     14.325     15.097
REMARK  2 active torsions:
REMARK  status: ('A' for Active; 'I' for Inactive)
REMARK    1  A    between atoms: N_1  and  C_2 
REMARK    2  A    between atoms: C_2  and  C_3 
ROOT
HETATM    1  C   UNK N   1      36.429  13.705  15.507  0.00  0.00     0.011 A 
HETATM    2  C   UNK N   1      37.249  14.971  15.616  0.00  0.00     0.006 A 
HETATM    3  C   UNK N   1      37.109  15.799  16.885  0.00  0.00     0.000 A 
HETATM    4  C   UNK N   1      36.164  15.341  17.994  0.00  0.00     0.000 A 
HETATM    5  C   UNK N   1      35.351  14.056  17.850  0.00  0.00     0.000 A 
HETATM    6  C   UNK N   1      35.475  13.211  16.588  0.00  0.00     0.006 A 
ENDROOT
BRANCH   1   7
HETATM    7  C   UNK N   1      36.606  12.911  14.213  0.00  0.00     0.234 C 
BRANCH   7   8
HETATM    8  N   UNK N   1      36.883  13.769  13.077  0.00  0.00    -0.079 N 
HETATM    9  H   UNK N   1      37.605  14.486  13.142  0.00  0.00     0.274 HD
HETATM   10  H   UNK N   1      36.354  13.656  12.212  0.00  0.00     0.274 HD
HETATM   11  H   UNK N   1      37.076  14.372  12.278  0.00  0.00     0.274 HD
ENDBRANCH   7   8
ENDBRANCH   1   7
TORSDOF 2
ENDMDL
MODEL 3
REMARK VINA RESULT:      -4.0     14.133     14.839
REMARK  2 active torsions:
REMARK  status: ('A' for Active; 'I' for Inactive)
REMARK    1  A    between atoms: N_1  and  C_2 
REMARK    2  A    between atoms: C_2  and  C_3 
ROOT
HETATM    1  C   UNK N   1      35.619  12.792  16.533  0.00  0.00     0.011 A 
HETATM    2  C   UNK N   1      35.887  11.311  16.688  0.00  0.00     0.006 A 
HETATM    3  C   UNK N   1      35.768  10.713  18.082  0.00  0.00     0.000 A 
HETATM    4  C   UNK N   1      35.389  11.601  19.265  0.00  0.00     0.000 A 
HETATM    5  C   UNK N   1      35.126  13.093  19.070  0.00  0.00     0.000 A 
HETATM    6  C   UNK N   1      35.239  13.715  17.684  0.00  0.00     0.006 A 
ENDROOT
BRANCH   1   7
HETATM    7  C   UNK N   1      35.752  13.343  15.114  0.00  0.00     0.234 C 
BRANCH   7   8
HETATM    8  N   UNK N   1      37.018  14.021  14.905  0.00  0.00    -0.079 N 
HETATM    9  H   UNK N   1      37.507  13.927  14.015  0.00  0.00     0.274 HD
HETATM   10  H   UNK N   1      37.420  14.591  15.650  0.00  0.00     0.274 HD
HETATM   11  H   UNK N   1      37.908  14.497  14.760  0.00  0.00     0.274 HD
ENDBRANCH   7   8
ENDBRANCH   1   7
TORSDOF 2
ENDMDL
MODEL 4
REMARK VINA RESULT:      -3.9     13.327     14.548
REMARK  2 active torsions:
REMARK  status: ('A' for Active; 'I' for Inactive)
REMARK    1  A    between atoms: N_1  and  C_2 
REMARK    2  A    between atoms: C_2  and  C_3 
ROOT
HETATM    1  C   UNK N   1      35.223  11.629  18.164  0.00  0.00     0.011 A 
HETATM    2  C   UNK N   1      35.053  12.958  17.461  0.00  0.00     0.006 A 
HETATM    3  C   UNK N   1      34.659  12.936  15.991  0.00  0.00     0.000 A 
HETATM    4  C   UNK N   1      34.449  11.603  15.277  0.00  0.00     0.000 A 
HETATM    5  C   UNK N   1      34.630  10.280  16.019  0.00  0.00     0.000 A 
HETATM    6  C   UNK N   1      35.024  10.277  17.490  0.00  0.00     0.006 A 
ENDROOT
BRANCH   1   7
HETATM    7  C   UNK N   1      35.619  11.706  19.638  0.00  0.00     0.234 C 
BRANCH   7   8
HETATM    8  N   UNK N   1      35.202  12.952  20.253  0.00  0.00    -0.079 N 
HETATM    9  H   UNK N   1      34.916  13.738  19.670  0.00  0.00     0.274 HD
HETATM   10  H   UNK N   1      35.193  13.041  21.270  0.00  0.00     0.274 HD
HETATM   11  H   UNK N   1      34.908  13.827  20.686  0.00  0.00     0.274 HD
ENDBRANCH   7   8
ENDBRANCH   1   7
TORSDOF 2
ENDMDL
MODEL 5
REMARK VINA RESULT:      -3.9     13.102     14.172
REMARK  2 active torsions:
REMARK  status: ('A' for Active; 'I' for Inactive)
REMARK    1  A    between atoms: N_1  and  C_2 
REMARK    2  A    between atoms: C_2  and  C_3 
ROOT
HETATM    1  C   UNK N   1      35.018  12.554  17.501  0.00  0.00     0.011 A 
HETATM    2  C   UNK N   1      35.223  11.123  17.946  0.00  0.00     0.006 A 
HETATM    3  C   UNK N   1      34.952  10.020  16.931  0.00  0.00     0.000 A 
HETATM    4  C   UNK N   1      34.490  10.378  15.520  0.00  0.00     0.000 A 
HETATM    5  C   UNK N   1      34.294  11.835  15.106  0.00  0.00     0.000 A 
HETATM    6  C   UNK N   1      34.559  12.956  16.104  0.00  0.00     0.006 A 
ENDROOT
BRANCH   1   7
HETATM    7  C   UNK N   1      35.303  13.622  18.556  0.00  0.00     0.234 C 
BRANCH   7   8
HETATM    8  N   UNK N   1      35.236  13.091  19.905  0.00  0.00    -0.079 N 
HETATM    9  H   UNK N   1      35.657  12.188  20.119  0.00  0.00     0.274 HD
HETATM   10  H   UNK N   1      34.766  13.622  20.639  0.00  0.00     0.274 HD
HETATM   11  H   UNK N   1      35.188  12.719  20.853  0.00  0.00     0.274 HD
ENDBRANCH   7   8
ENDBRANCH   1   7
TORSDOF 2
ENDMDL
MODEL 6
REMARK VINA RESULT:      -3.9     19.480     20.446
REMARK  2 active torsions:
REMARK  status: ('A' for Active; 'I' for Inactive)
REMARK    1  A    between atoms: N_1  and  C_2 
REMARK    2  A    between atoms: C_2  and  C_3 
ROOT
HETATM    1  C   UNK N   1      25.996  25.096  -5.021  0.00  0.00     0.011 A 
HETATM    2  C   UNK N   1      25.227  26.038  -5.921  0.00  0.00     0.006 A 
HETATM    3  C   UNK N   1      24.998  27.460  -5.428  0.00  0.00     0.000 A 
HETATM    4  C   UNK N   1      25.537  27.892  -4.066  0.00  0.00     0.000 A 
HETATM    5  C   UNK N   1      26.309  26.913  -3.184  0.00  0.00     0.000 A 
HETATM    6  C   UNK N   1      26.551  25.485  -3.656  0.00  0.00     0.006 A 
ENDROOT
BRANCH   1   7
HETATM    7  C   UNK N   1      26.199  23.682  -5.562  0.00  0.00     0.234 C 
BRANCH   7   8
HETATM    8  N   UNK N   1      25.332  23.398  -6.691  0.00  0.00    -0.079 N 
HETATM    9  H   UNK N   1      24.866  24.160  -7.181  0.00  0.00     0.274 HD
HETATM   10  H   UNK N   1      25.189  22.434  -6.994  0.00  0.00     0.274 HD
HETATM   11  H   UNK N   1      24.723  23.197  -7.483  0.00  0.00     0.274 HD
ENDBRANCH   7   8
ENDBRANCH   1   7
TORSDOF 2
ENDMDL
MODEL 7
REMARK VINA RESULT:      -3.9      8.618      9.507
REMARK  2 active torsions:
REMARK  status: ('A' for Active; 'I' for Inactive)
REMARK    1  A    between atoms: N_1  and  C_2 
REMARK    2  A    between atoms: C_2  and  C_3 
ROOT
HETATM    1  C   UNK N   1      28.052  19.116   6.713  0.00  0.00     0.011 A 
HETATM    2  C   UNK N   1      28.223  18.249   5.485  0.00  0.00     0.006 A 
HETATM    3  C   UNK N   1      27.690  18.782   4.162  0.00  0.00     0.000 A 
HETATM    4  C   UNK N   1      27.012  20.149   4.108  0.00  0.00     0.000 A 
HETATM    5  C   UNK N   1      26.857  20.997   5.369  0.00  0.00     0.000 A 
HETATM    6  C   UNK N   1      27.382  20.485   6.704  0.00  0.00     0.006 A 
ENDROOT
BRANCH   1   7
HETATM    7  C   UNK N   1      28.604  18.536   8.014  0.00  0.00     0.234 C 
BRANCH   7   8
HETATM    8  N   UNK N   1      27.598  18.478   9.058  0.00  0.00    -0.079 N 
HETATM    9  H   UNK N   1      26.644  18.780   8.865  0.00  0.00     0.274 HD
HETATM   10  H   UNK N   1      27.845  18.136   9.987  0.00  0.00     0.274 HD
HETATM   11  H   UNK N   1      26.891  18.438   9.792  0.00  0.00     0.274 HD
ENDBRANCH   7   8
ENDBRANCH   1   7
TORSDOF 2
ENDMDL
MODEL 8
REMARK VINA RESULT:      -3.8     10.117     11.584
REMARK  2 active torsions:
REMARK  status: ('A' for Active; 'I' for Inactive)
REMARK    1  A    between atoms: N_1  and  C_2 
REMARK    2  A    between atoms: C_2  and  C_3 
ROOT
HETATM    1  C   UNK N   1      33.323  17.710   7.476  0.00  0.00     0.011 A 
HETATM    2  C   UNK N   1      31.978  17.597   8.160  0.00  0.00     0.006 A 
HETATM    3  C   UNK N   1      30.768  17.274   7.295  0.00  0.00     0.000 A 
HETATM    4  C   UNK N   1      30.937  17.075   5.790  0.00  0.00     0.000 A 
HETATM    5  C   UNK N   1      32.311  17.196   5.134  0.00  0.00     0.000 A 
HETATM    6  C   UNK N   1      33.536  17.519   5.980  0.00  0.00     0.006 A 
ENDROOT
BRANCH   1   7
HETATM    7  C   UNK N   1      34.504  18.036   8.389  0.00  0.00     0.234 C 
BRANCH   7   8
HETATM    8  N   UNK N   1      34.431  17.329   9.654  0.00  0.00    -0.079 N 
HETATM    9  H   UNK N   1      34.750  16.363   9.718  0.00  0.00     0.274 HD
HETATM   10  H   UNK N   1      34.059  17.798  10.480  0.00  0.00     0.274 HD
HETATM   11  H   UNK N   1      34.379  16.833  10.543  0.00  0.00     0.274 HD
ENDBRANCH   7   8
ENDBRANCH   1   7
TORSDOF 2
ENDMDL
MODEL 9
REMARK VINA RESULT:      -3.7     21.324     22.256
REMARK  2 active torsions:
REMARK  status: ('A' for Active; 'I' for Inactive)
REMARK    1  A    between atoms: N_1  and  C_2 
REMARK    2  A    between atoms: C_2  and  C_3 
ROOT
HETATM    1  C   UNK N   1      26.206  27.156  -6.406  0.00  0.00     0.011 A 
HETATM    2  C   UNK N   1      25.309  27.151  -5.188  0.00  0.00     0.006 A 
HETATM    3  C   UNK N   1      25.550  28.216  -4.127  0.00  0.00     0.000 A 
HETATM    4  C   UNK N   1      26.668  29.240  -4.313  0.00  0.00     0.000 A 
HETATM    5  C   UNK N   1      27.554  29.214  -5.556  0.00  0.00     0.000 A 
HETATM    6  C   UNK N   1      27.332  28.158  -6.632  0.00  0.00     0.006 A 
ENDROOT
BRANCH   1   7
HETATM    7  C   UNK N   1      25.922  26.068  -7.441  0.00  0.00     0.234 C 
BRANCH   7   8
HETATM    8  N   UNK N   1      25.487  24.828  -6.827  0.00  0.00    -0.079 N 
HETATM    9  H   UNK N   1      24.733  24.286  -7.248  0.00  0.00     0.274 HD
HETATM   10  H   UNK N   1      25.937  24.497  -5.972  0.00  0.00     0.274 HD
HETATM   11  H   UNK N   1      25.182  23.956  -6.394  0.00  0.00     0.274 HD
ENDBRANCH   7   8
ENDBRANCH   1   7
TORSDOF 2
ENDMDL
