REMARK  3 active torsions:
REMARK  status: ('A' for Active; 'I' for Inactive)
REMARK    1  A    between atoms: C_5  and  C_4 
REMARK    2  A    between atoms: N_6  and  C_4 
REMARK    3  A    between atoms: O_8  and  C_5 
ROOT
HETATM    1  C   UNK N   1       2.992   0.497   0.768  0.00  0.00     0.055 C 
HETATM    2  C   UNK N   1       1.705   0.643  -0.049  0.00  0.00     0.314 C 
ENDROOT
BRANCH   2   3
HETATM    3  C   UNK N   1       0.923  -0.660   0.058  0.00  0.00     0.174 C 
HETATM    4  O   UNK N   1       1.517  -1.722   0.150  0.00  0.00    -0.648 OA
BRANCH   3   5
HETATM    5  O   UNK N   1      -0.412  -0.680  -0.131  0.00  0.00    -0.775 OA
HETATM    6  H   UNK N   1      -0.888   0.117  -0.263  0.00  0.00     0.167 HD
ENDBRANCH   3   5
ENDBRANCH   2   3
BRANCH   2   7
HETATM    7  N   UNK N   1       0.951   1.822   0.433  0.00  0.00     0.094 N 
HETATM    8  C   UNK N   1       1.742   3.030   0.220  0.00  0.00     0.310 C 
HETATM    9  C   UNK N   1      -0.270   2.034  -0.334  0.00  0.00     0.310 C 
ENDBRANCH   2   7
TORSDOF 3
