REMARK  5 active torsions:
REMARK  status: ('A' for Active; 'I' for Inactive)
REMARK    1  A    between atoms: C_11  and  C_15 
REMARK    2  A    between atoms: C_15  and  C_17 
REMARK    3  A    between atoms: C_18  and  C_19 
REMARK    4  A    between atoms: C_22  and  C_25 
REMARK    5  A    between atoms: C_25  and  O_26 
ROOT
HETATM    1  C   UNK N   1       0.744  -3.288   1.400  0.00  0.00     0.020 C 
HETATM    2  C   UNK N   1       0.626  -2.618   0.040  0.00  0.00    -0.020 C 
HETATM    3  C   UNK N   1       1.016  -3.631  -1.026  0.00  0.00     0.020 C 
HETATM    4  C   UNK N   1      -0.826  -2.241  -0.245  0.00  0.00     0.015 C 
HETATM    5  C   UNK N   1      -1.230  -1.008   0.534  0.00  0.00     0.015 C 
HETATM    6  C   UNK N   1      -0.428   0.219   0.094  0.00  0.00    -0.020 C 
HETATM    7  C   UNK N   1      -0.966   0.762  -1.218  0.00  0.00     0.020 C 
HETATM    8  C   UNK N   1      -0.647   1.262   1.177  0.00  0.00     0.020 C 
HETATM    9  C   UNK N   1       1.054  -0.078  -0.042  0.00  0.00    -0.042 A 
HETATM   10  C   UNK N   1       1.963   0.998  -0.145  0.00  0.00     0.024 A 
HETATM   11  C   UNK N   1       3.341   0.768  -0.166  0.00  0.00     0.015 A 
HETATM   12  C   UNK N   1       3.801  -0.557  -0.118  0.00  0.00     0.016 A 
HETATM   13  C   UNK N   1       2.927  -1.627  -0.046  0.00  0.00     0.009 A 
HETATM   14  C   UNK N   1       1.548  -1.412  -0.015  0.00  0.00    -0.043 A 
ENDROOT
BRANCH  11  15
HETATM   15  C   UNK N   1       4.323   1.902  -0.214  0.00  0.00     0.182 C 
HETATM   16  O   UNK N   1       3.947   3.031  -0.490  0.00  0.00    -0.288 OA
BRANCH  15  17
HETATM   17  C   UNK N   1       5.766   1.647   0.015  0.00  0.00     0.056 C 
HETATM   18  C   UNK N   1       6.084   0.648   0.842  0.00  0.00     0.015 C 
BRANCH  18  19
HETATM   19  C   UNK N   1       7.295  -0.149   0.765  0.00  0.00    -0.036 A 
HETATM   20  C   UNK N   1       8.335   0.165  -0.116  0.00  0.00     0.012 A 
HETATM   21  C   UNK N   1       9.318  -0.789  -0.393  0.00  0.00     0.019 A 
HETATM   22  C   UNK N   1       9.238  -2.070   0.177  0.00  0.00     0.037 A 
HETATM   23  C   UNK N   1       8.210  -2.364   1.079  0.00  0.00     0.019 A 
HETATM   24  C   UNK N   1       7.244  -1.406   1.369  0.00  0.00     0.012 A 
BRANCH  22  25
HETATM   25  C   UNK N   1      10.188  -3.119  -0.225  0.00  0.00     0.176 C 
HETATM   26  O   UNK N   1      10.056  -4.261   0.191  0.00  0.00    -0.646 OA
BRANCH  25  27
HETATM   27  O   UNK N   1      11.175  -2.841  -1.097  0.00  0.00    -0.773 OA
HETATM   28  H   UNK N   1      11.686  -3.339  -1.704  0.00  0.00     0.167 HD
ENDBRANCH  25  27
ENDBRANCH  22  25
ENDBRANCH  18  19
ENDBRANCH  15  17
ENDBRANCH  11  15
TORSDOF 5
