MODEL 1
REMARK VINA RESULT:      -6.3      0.000      0.000
REMARK  8 active torsions:
REMARK  status: ('A' for Active; 'I' for Inactive)
REMARK    1  A    between atoms: C_15  and  C_13 
REMARK    2  A    between atoms: C_19  and  C_13 
REMARK    3  A    between atoms: C_16  and  C_14 
REMARK    4  A    between atoms: C_20  and  C_14 
REMARK    5  A    between atoms: C_22  and  C_17 
REMARK    6  A    between atoms: C_23  and  C_18 
REMARK    7  A    between atoms: N_24  and  C_22 
REMARK    8  A    between atoms: N_27  and  C_23 
ROOT
HETATM    1  C   UNK N   1      37.195  10.059  20.161  0.00  0.00     0.001 C 
HETATM    2  C   UNK N   1      35.888  10.676  20.670  0.00  0.00     0.001 C 
HETATM    3  C   UNK N   1      36.929   8.963  19.121  0.00  0.00     0.012 C 
HETATM    4  C   UNK N   1      35.337  11.856  19.837  0.00  0.00     0.012 C 
HETATM    5  C   UNK N   1      36.654   9.526  17.717  0.00  0.00     0.060 C 
HETATM    6  C   UNK N   1      35.673  11.813  18.344  0.00  0.00     0.060 C 
HETATM    7  C   UNK N   1      35.451  10.414  17.811  0.00  0.00     0.135 C 
HETATM    8  O   UNK N   1      34.323   9.940  17.765  0.00  0.00    -0.297 OA
ENDROOT
BRANCH   5   9
HETATM    9  C   UNK N   1      36.505   8.424  16.655  0.00  0.00     0.050 C 
BRANCH   9  10
HETATM   10  C   UNK N   1      36.568   9.050  15.298  0.00  0.00    -0.057 A 
HETATM   11  C   UNK N   1      37.680   9.814  14.928  0.00  0.00     0.008 A 
HETATM   12  C   UNK N   1      37.829  10.230  13.600  0.00  0.00     0.016 A 
HETATM   13  C   UNK N   1      36.873   9.868  12.635  0.00  0.00     0.007 A 
HETATM   14  C   UNK N   1      35.750   9.130  13.023  0.00  0.00     0.016 A 
HETATM   15  C   UNK N   1      35.600   8.722  14.346  0.00  0.00     0.008 A 
BRANCH  13  16
HETATM   16  C   UNK N   1      37.066  10.211  11.211  0.00  0.00     0.102 C 
HETATM   17  N   UNK N   1      38.244  10.305  10.718  0.00  0.00    -0.385 N 
HETATM   18  H   UNK N   1      39.184  10.021  10.797  0.00  0.00     0.157 HD
ATOM     19  HN  UNK N   1      38.186  10.930   9.914  1.00  0.00     0.157 HD
BRANCH  16  20
HETATM   20  N   UNK N   1      35.944  10.335  10.356  0.00  0.00    -0.385 N 
HETATM   21  H   UNK N   1      35.960  10.799   9.488  0.00  0.00     0.157 HD
HETATM   22  H   UNK N   1      35.095   9.933  10.649  0.00  0.00     0.157 HD
ENDBRANCH  16  20
ENDBRANCH  13  16
ENDBRANCH   9  10
ENDBRANCH   5   9
BRANCH   6  23
HETATM   23  C   UNK N   1      34.890  12.887  17.577  0.00  0.00     0.050 C 
BRANCH  23  24
HETATM   24  C   UNK N   1      35.286  12.965  16.135  0.00  0.00    -0.057 A 
HETATM   25  C   UNK N   1      36.394  13.740  15.787  0.00  0.00     0.008 A 
HETATM   26  C   UNK N   1      36.720  13.936  14.447  0.00  0.00     0.016 A 
HETATM   27  C   UNK N   1      35.931  13.369  13.436  0.00  0.00     0.007 A 
HETATM   28  C   UNK N   1      34.826  12.578  13.787  0.00  0.00     0.016 A 
HETATM   29  C   UNK N   1      34.504  12.375  15.133  0.00  0.00     0.008 A 
BRANCH  27  30
HETATM   30  C   UNK N   1      36.246  13.622  12.014  0.00  0.00     0.102 C 
HETATM   31  N   UNK N   1      37.466  13.698  11.624  0.00  0.00    -0.385 N 
HETATM   32  H   UNK N   1      38.360  13.656  12.034  0.00  0.00     0.157 HD
ATOM     33  HN  UNK N   1      37.526  13.838  10.616  1.00  0.00     0.157 HD
BRANCH  30  34
HETATM   34  N   UNK N   1      35.205  13.832  11.081  0.00  0.00    -0.385 N 
HETATM   35  H   UNK N   1      34.231  13.769  11.204  0.00  0.00     0.157 HD
HETATM   36  H   UNK N   1      35.499  14.076  10.174  0.00  0.00     0.157 HD
ENDBRANCH  30  34
ENDBRANCH  27  30
ENDBRANCH  23  24
ENDBRANCH   6  23
TORSDOF 8
ENDMDL
MODEL 2
REMARK VINA RESULT:      -6.2     21.838     25.619
REMARK  8 active torsions:
REMARK  status: ('A' for Active; 'I' for Inactive)
REMARK    1  A    between atoms: C_15  and  C_13 
REMARK    2  A    between atoms: C_19  and  C_13 
REMARK    3  A    between atoms: C_16  and  C_14 
REMARK    4  A    between atoms: C_20  and  C_14 
REMARK    5  A    between atoms: C_22  and  C_17 
REMARK    6  A    between atoms: C_23  and  C_18 
REMARK    7  A    between atoms: N_24  and  C_22 
REMARK    8  A    between atoms: N_27  and  C_23 
ROOT
HETATM    1  C   UNK N   1      27.083  28.028  -5.865  0.00  0.00     0.001 C 
HETATM    2  C   UNK N   1      25.633  27.629  -5.569  0.00  0.00     0.001 C 
HETATM    3  C   UNK N   1      27.995  27.758  -4.661  0.00  0.00     0.012 C 
HETATM    4  C   UNK N   1      25.274  26.154  -5.860  0.00  0.00     0.012 C 
HETATM    5  C   UNK N   1      28.427  26.287  -4.557  0.00  0.00     0.060 C 
HETATM    6  C   UNK N   1      26.427  25.158  -5.701  0.00  0.00     0.060 C 
HETATM    7  C   UNK N   1      27.187  25.457  -4.426  0.00  0.00     0.135 C 
HETATM    8  O   UNK N   1      26.652  25.304  -3.336  0.00  0.00    -0.297 OA
ENDROOT
BRANCH   5   9
HETATM    9  C   UNK N   1      29.435  26.043  -3.420  0.00  0.00     0.050 C 
BRANCH   9  10
HETATM   10  C   UNK N   1      30.045  24.689  -3.599  0.00  0.00    -0.057 A 
HETATM   11  C   UNK N   1      31.165  24.526  -4.420  0.00  0.00     0.008 A 
HETATM   12  C   UNK N   1      31.851  23.307  -4.429  0.00  0.00     0.016 A 
HETATM   13  C   UNK N   1      31.428  22.252  -3.602  0.00  0.00     0.007 A 
HETATM   14  C   UNK N   1      30.288  22.417  -2.808  0.00  0.00     0.016 A 
HETATM   15  C   UNK N   1      29.602  23.628  -2.804  0.00  0.00     0.008 A 
BRANCH  13  16
HETATM   16  C   UNK N   1      32.199  20.995  -3.523  0.00  0.00     0.102 C 
HETATM   17  N   UNK N   1      33.197  20.892  -2.727  0.00  0.00    -0.385 N 
HETATM   18  H   UNK N   1      33.613  21.223  -1.899  0.00  0.00     0.157 HD
ATOM     19  HN  UNK N   1      33.814  20.175  -3.108  1.00  0.00     0.157 HD
BRANCH  16  20
HETATM   20  N   UNK N   1      31.772  19.857  -4.252  0.00  0.00    -0.385 N 
HETATM   21  H   UNK N   1      31.971  19.706  -5.204  0.00  0.00     0.157 HD
HETATM   22  H   UNK N   1      31.244  19.177  -3.776  0.00  0.00     0.157 HD
ENDBRANCH  16  20
ENDBRANCH  13  16
ENDBRANCH   9  10
ENDBRANCH   5   9
BRANCH   6  23
HETATM   23  C   UNK N   1      25.915  23.713  -5.779  0.00  0.00     0.050 C 
BRANCH  23  24
HETATM   24  C   UNK N   1      26.840  22.818  -6.544  0.00  0.00    -0.057 A 
HETATM   25  C   UNK N   1      26.307  22.011  -7.551  0.00  0.00     0.008 A 
HETATM   26  C   UNK N   1      27.113  21.078  -8.201  0.00  0.00     0.016 A 
HETATM   27  C   UNK N   1      28.460  20.932  -7.840  0.00  0.00     0.007 A 
HETATM   28  C   UNK N   1      28.997  21.755  -6.838  0.00  0.00     0.016 A 
HETATM   29  C   UNK N   1      28.191  22.697  -6.192  0.00  0.00     0.008 A 
BRANCH  27  30
HETATM   30  C   UNK N   1      29.299  19.905  -8.492  0.00  0.00     0.102 C 
HETATM   31  N   UNK N   1      29.475  18.762  -7.936  0.00  0.00    -0.385 N 
HETATM   32  H   UNK N   1      29.209  18.316  -7.100  0.00  0.00     0.157 HD
ATOM     33  HN  UNK N   1      30.045  18.149  -8.518  1.00  0.00     0.157 HD
BRANCH  30  34
HETATM   34  N   UNK N   1      29.956  20.191  -9.711  0.00  0.00    -0.385 N 
HETATM   35  H   UNK N   1      30.918  20.290  -9.896  0.00  0.00     0.157 HD
HETATM   36  H   UNK N   1      29.365  20.309 -10.489  0.00  0.00     0.157 HD
ENDBRANCH  30  34
ENDBRANCH  27  30
ENDBRANCH  23  24
ENDBRANCH   6  23
TORSDOF 8
ENDMDL
MODEL 3
REMARK VINA RESULT:      -6.2     23.187     27.055
REMARK  8 active torsions:
REMARK  status: ('A' for Active; 'I' for Inactive)
REMARK    1  A    between atoms: C_15  and  C_13 
REMARK    2  A    between atoms: C_19  and  C_13 
REMARK    3  A    between atoms: C_16  and  C_14 
REMARK    4  A    between atoms: C_20  and  C_14 
REMARK    5  A    between atoms: C_22  and  C_17 
REMARK    6  A    between atoms: C_23  and  C_18 
REMARK    7  A    between atoms: N_24  and  C_22 
REMARK    8  A    between atoms: N_27  and  C_23 
ROOT
HETATM    1  C   UNK N   1      26.659  25.437 -10.652  0.00  0.00     0.001 C 
HETATM    2  C   UNK N   1      25.924  24.247 -11.278  0.00  0.00     0.001 C 
HETATM    3  C   UNK N   1      25.932  25.948  -9.401  0.00  0.00     0.012 C 
HETATM    4  C   UNK N   1      26.302  22.857 -10.716  0.00  0.00     0.012 C 
HETATM    5  C   UNK N   1      26.236  25.109  -8.149  0.00  0.00     0.060 C 
HETATM    6  C   UNK N   1      26.740  22.846  -9.248  0.00  0.00     0.060 C 
HETATM    7  C   UNK N   1      25.800  23.703  -8.428  0.00  0.00     0.135 C 
HETATM    8  O   UNK N   1      24.632  23.373  -8.280  0.00  0.00    -0.297 OA
ENDROOT
BRANCH   5   9
HETATM    9  C   UNK N   1      25.601  25.692  -6.875  0.00  0.00     0.050 C 
BRANCH   9  10
HETATM   10  C   UNK N   1      26.448  25.318  -5.700  0.00  0.00    -0.057 A 
HETATM   11  C   UNK N   1      25.942  24.464  -4.714  0.00  0.00     0.008 A 
HETATM   12  C   UNK N   1      26.794  23.958  -3.726  0.00  0.00     0.016 A 
HETATM   13  C   UNK N   1      28.160  24.290  -3.734  0.00  0.00     0.007 A 
HETATM   14  C   UNK N   1      28.648  25.168  -4.708  0.00  0.00     0.016 A 
HETATM   15  C   UNK N   1      27.798  25.677  -5.686  0.00  0.00     0.008 A 
BRANCH  13  16
HETATM   16  C   UNK N   1      29.093  23.684  -2.762  0.00  0.00     0.102 C 
HETATM   17  N   UNK N   1      28.650  23.006  -1.771  0.00  0.00    -0.385 N 
HETATM   18  H   UNK N   1      27.906  22.460  -1.427  0.00  0.00     0.157 HD
ATOM     19  HN  UNK N   1      29.356  23.048  -1.036  1.00  0.00     0.157 HD
BRANCH  16  20
HETATM   20  N   UNK N   1      30.490  23.763  -2.981  0.00  0.00    -0.385 N 
HETATM   21  H   UNK N   1      30.975  23.226  -3.648  0.00  0.00     0.157 HD
HETATM   22  H   UNK N   1      31.008  24.394  -2.431  0.00  0.00     0.157 HD
ENDBRANCH  16  20
ENDBRANCH  13  16
ENDBRANCH   9  10
ENDBRANCH   5   9
BRANCH   6  23
HETATM   23  C   UNK N   1      26.863  21.408  -8.727  0.00  0.00     0.050 C 
BRANCH  23  24
HETATM   24  C   UNK N   1      28.084  21.204  -7.886  0.00  0.00    -0.057 A 
HETATM   25  C   UNK N   1      28.790  20.006  -8.010  0.00  0.00     0.008 A 
HETATM   26  C   UNK N   1      29.859  19.730  -7.160  0.00  0.00     0.016 A 
HETATM   27  C   UNK N   1      30.226  20.646  -6.163  0.00  0.00     0.007 A 
HETATM   28  C   UNK N   1      29.524  21.857  -6.049  0.00  0.00     0.016 A 
HETATM   29  C   UNK N   1      28.457  22.137  -6.908  0.00  0.00     0.008 A 
BRANCH  27  30
HETATM   30  C   UNK N   1      31.324  20.328  -5.227  0.00  0.00     0.102 C 
HETATM   31  N   UNK N   1      31.127  20.367  -3.959  0.00  0.00    -0.385 N 
HETATM   32  H   UNK N   1      30.388  20.590  -3.349  0.00  0.00     0.157 HD
ATOM     33  HN  UNK N   1      31.962  20.090  -3.445  1.00  0.00     0.157 HD
BRANCH  30  34
HETATM   34  N   UNK N   1      32.615  20.028  -5.719  0.00  0.00    -0.385 N 
HETATM   35  H   UNK N   1      32.878  19.590  -6.560  0.00  0.00     0.157 HD
HETATM   36  H   UNK N   1      33.359  20.296  -5.134  0.00  0.00     0.157 HD
ENDBRANCH  30  34
ENDBRANCH  27  30
ENDBRANCH  23  24
ENDBRANCH   6  23
TORSDOF 8
ENDMDL
MODEL 4
REMARK VINA RESULT:      -6.1      9.537     13.284
REMARK  8 active torsions:
REMARK  status: ('A' for Active; 'I' for Inactive)
REMARK    1  A    between atoms: C_15  and  C_13 
REMARK    2  A    between atoms: C_19  and  C_13 
REMARK    3  A    between atoms: C_16  and  C_14 
REMARK    4  A    between atoms: C_20  and  C_14 
REMARK    5  A    between atoms: C_22  and  C_17 
REMARK    6  A    between atoms: C_23  and  C_18 
REMARK    7  A    between atoms: N_24  and  C_22 
REMARK    8  A    between atoms: N_27  and  C_23 
ROOT
HETATM    1  C   UNK N   1      27.034  21.006   5.700  0.00  0.00     0.001 C 
HETATM    2  C   UNK N   1      26.165  20.145   4.777  0.00  0.00     0.001 C 
HETATM    3  C   UNK N   1      27.237  20.333   7.065  0.00  0.00     0.012 C 
HETATM    4  C   UNK N   1      26.923  19.089   3.939  0.00  0.00     0.012 C 
HETATM    5  C   UNK N   1      28.335  19.258   7.043  0.00  0.00     0.060 C 
HETATM    6  C   UNK N   1      28.196  18.536   4.585  0.00  0.00     0.060 C 
HETATM    7  C   UNK N   1      27.934  18.219   6.041  0.00  0.00     0.135 C 
HETATM    8  O   UNK N   1      27.160  17.323   6.350  0.00  0.00    -0.297 OA
ENDROOT
BRANCH   5   9
HETATM    9  C   UNK N   1      28.617  18.671   8.437  0.00  0.00     0.050 C 
BRANCH   9  10
HETATM   10  C   UNK N   1      29.962  18.016   8.420  0.00  0.00    -0.057 A 
HETATM   11  C   UNK N   1      31.122  18.795   8.349  0.00  0.00     0.008 A 
HETATM   12  C   UNK N   1      32.374  18.199   8.534  0.00  0.00     0.016 A 
HETATM   13  C   UNK N   1      32.468  16.823   8.808  0.00  0.00     0.007 A 
HETATM   14  C   UNK N   1      31.303  16.049   8.846  0.00  0.00     0.016 A 
HETATM   15  C   UNK N   1      30.058  16.642   8.656  0.00  0.00     0.008 A 
BRANCH  13  16
HETATM   16  C   UNK N   1      33.772  16.197   9.107  0.00  0.00     0.102 C 
HETATM   17  N   UNK N   1      34.863  16.834   8.900  0.00  0.00    -0.385 N 
HETATM   18  H   UNK N   1      35.284  17.721   8.823  0.00  0.00     0.157 HD
ATOM     19  HN  UNK N   1      35.596  16.140   8.756  1.00  0.00     0.157 HD
BRANCH  16  20
HETATM   20  N   UNK N   1      33.819  14.922   9.723  0.00  0.00    -0.385 N 
HETATM   21  H   UNK N   1      34.055  14.775  10.667  0.00  0.00     0.157 HD
HETATM   22  H   UNK N   1      33.601  14.136   9.173  0.00  0.00     0.157 HD
ENDBRANCH  16  20
ENDBRANCH  13  16
ENDBRANCH   9  10
ENDBRANCH   5   9
BRANCH   6  23
HETATM   23  C   UNK N   1      28.736  17.340   3.790  0.00  0.00     0.050 C 
BRANCH  23  24
HETATM   24  C   UNK N   1      29.959  16.742   4.413  0.00  0.00    -0.057 A 
HETATM   25  C   UNK N   1      31.116  17.520   4.495  0.00  0.00     0.008 A 
HETATM   26  C   UNK N   1      32.306  16.961   4.956  0.00  0.00     0.016 A 
HETATM   27  C   UNK N   1      32.357  15.609   5.327  0.00  0.00     0.007 A 
HETATM   28  C   UNK N   1      31.189  14.832   5.258  0.00  0.00     0.016 A 
HETATM   29  C   UNK N   1      29.993  15.397   4.803  0.00  0.00     0.008 A 
BRANCH  27  30
HETATM   30  C   UNK N   1      33.632  15.003   5.764  0.00  0.00     0.102 C 
HETATM   31  N   UNK N   1      34.744  15.603   5.542  0.00  0.00    -0.385 N 
HETATM   32  H   UNK N   1      35.044  16.429   5.099  0.00  0.00     0.157 HD
ATOM     33  HN  UNK N   1      35.531  15.084   5.931  1.00  0.00     0.157 HD
BRANCH  30  34
HETATM   34  N   UNK N   1      33.641  13.734   6.385  0.00  0.00    -0.385 N 
HETATM   35  H   UNK N   1      32.894  13.217   6.764  0.00  0.00     0.157 HD
HETATM   36  H   UNK N   1      34.524  13.304   6.449  0.00  0.00     0.157 HD
ENDBRANCH  30  34
ENDBRANCH  27  30
ENDBRANCH  23  24
ENDBRANCH   6  23
TORSDOF 8
ENDMDL
MODEL 5
REMARK VINA RESULT:      -6.0     10.845     14.189
REMARK  8 active torsions:
REMARK  status: ('A' for Active; 'I' for Inactive)
REMARK    1  A    between atoms: C_15  and  C_13 
REMARK    2  A    between atoms: C_19  and  C_13 
REMARK    3  A    between atoms: C_16  and  C_14 
REMARK    4  A    between atoms: C_20  and  C_14 
REMARK    5  A    between atoms: C_22  and  C_17 
REMARK    6  A    between atoms: C_23  and  C_18 
REMARK    7  A    between atoms: N_24  and  C_22 
REMARK    8  A    between atoms: N_27  and  C_23 
ROOT
HETATM    1  C   UNK N   1      27.009  20.723   5.028  0.00  0.00     0.001 C 
HETATM    2  C   UNK N   1      25.771  20.166   4.316  0.00  0.00     0.001 C 
HETATM    3  C   UNK N   1      27.215  20.055   6.395  0.00  0.00     0.012 C 
HETATM    4  C   UNK N   1      26.007  18.902   3.457  0.00  0.00     0.012 C 
HETATM    5  C   UNK N   1      27.899  18.682   6.291  0.00  0.00     0.060 C 
HETATM    6  C   UNK N   1      27.131  17.983   3.945  0.00  0.00     0.060 C 
HETATM    7  C   UNK N   1      27.030  17.804   5.445  0.00  0.00     0.135 C 
HETATM    8  O   UNK N   1      26.076  17.214   5.935  0.00  0.00    -0.297 OA
ENDROOT
BRANCH   5   9
HETATM    9  C   UNK N   1      28.211  18.071   7.668  0.00  0.00     0.050 C 
BRANCH   9  10
HETATM   10  C   UNK N   1      29.674  17.770   7.740  0.00  0.00    -0.057 A 
HETATM   11  C   UNK N   1      30.311  17.115   6.680  0.00  0.00     0.008 A 
HETATM   12  C   UNK N   1      31.705  17.013   6.660  0.00  0.00     0.016 A 
HETATM   13  C   UNK N   1      32.470  17.582   7.695  0.00  0.00     0.007 A 
HETATM   14  C   UNK N   1      31.821  18.207   8.765  0.00  0.00     0.016 A 
HETATM   15  C   UNK N   1      30.432  18.302   8.786  0.00  0.00     0.008 A 
BRANCH  13  16
HETATM   16  C   UNK N   1      33.946  17.573   7.639  0.00  0.00     0.102 C 
HETATM   17  N   UNK N   1      34.564  16.761   6.864  0.00  0.00    -0.385 N 
HETATM   18  H   UNK N   1      34.509  16.222   6.042  0.00  0.00     0.157 HD
ATOM     19  HN  UNK N   1      35.490  16.610   7.262  1.00  0.00     0.157 HD
BRANCH  16  20
HETATM   20  N   UNK N   1      34.686  18.537   8.367  0.00  0.00    -0.385 N 
HETATM   21  H   UNK N   1      35.574  18.370   8.758  0.00  0.00     0.157 HD
HETATM   22  H   UNK N   1      34.288  19.428   8.488  0.00  0.00     0.157 HD
ENDBRANCH  16  20
ENDBRANCH  13  16
ENDBRANCH   9  10
ENDBRANCH   5   9
BRANCH   6  23
HETATM   23  C   UNK N   1      27.126  16.657   3.173  0.00  0.00     0.050 C 
BRANCH  23  24
HETATM   24  C   UNK N   1      28.338  15.825   3.454  0.00  0.00    -0.057 A 
HETATM   25  C   UNK N   1      28.218  14.740   4.324  0.00  0.00     0.008 A 
HETATM   26  C   UNK N   1      29.347  14.017   4.705  0.00  0.00     0.016 A 
HETATM   27  C   UNK N   1      30.615  14.382   4.229  0.00  0.00     0.007 A 
HETATM   28  C   UNK N   1      30.732  15.464   3.343  0.00  0.00     0.016 A 
HETATM   29  C   UNK N   1      29.597  16.183   2.955  0.00  0.00     0.008 A 
BRANCH  27  30
HETATM   30  C   UNK N   1      31.817  13.649   4.676  0.00  0.00     0.102 C 
HETATM   31  N   UNK N   1      31.848  13.098   5.835  0.00  0.00    -0.385 N 
HETATM   32  H   UNK N   1      31.254  13.024   6.616  0.00  0.00     0.157 HD
ATOM     33  HN  UNK N   1      32.725  12.600   5.987  1.00  0.00     0.157 HD
BRANCH  30  34
HETATM   34  N   UNK N   1      32.963  13.592   3.851  0.00  0.00    -0.385 N 
HETATM   35  H   UNK N   1      33.813  13.115   3.991  0.00  0.00     0.157 HD
HETATM   36  H   UNK N   1      32.904  14.105   3.013  0.00  0.00     0.157 HD
ENDBRANCH  30  34
ENDBRANCH  27  30
ENDBRANCH  23  24
ENDBRANCH   6  23
TORSDOF 8
ENDMDL
MODEL 6
REMARK VINA RESULT:      -6.0     22.384     24.742
REMARK  8 active torsions:
REMARK  status: ('A' for Active; 'I' for Inactive)
REMARK    1  A    between atoms: C_15  and  C_13 
REMARK    2  A    between atoms: C_19  and  C_13 
REMARK    3  A    between atoms: C_16  and  C_14 
REMARK    4  A    between atoms: C_20  and  C_14 
REMARK    5  A    between atoms: C_22  and  C_17 
REMARK    6  A    between atoms: C_23  and  C_18 
REMARK    7  A    between atoms: N_24  and  C_22 
REMARK    8  A    between atoms: N_27  and  C_23 
ROOT
HETATM    1  C   UNK N   1      34.262  20.908  -6.466  0.00  0.00     0.001 C 
HETATM    2  C   UNK N   1      34.716  20.465  -5.071  0.00  0.00     0.001 C 
HETATM    3  C   UNK N   1      33.077  20.067  -6.962  0.00  0.00     0.012 C 
HETATM    4  C   UNK N   1      33.982  21.133  -3.886  0.00  0.00     0.012 C 
HETATM    5  C   UNK N   1      31.732  20.532  -6.383  0.00  0.00     0.060 C 
HETATM    6  C   UNK N   1      32.532  21.542  -4.164  0.00  0.00     0.060 C 
HETATM    7  C   UNK N   1      31.817  20.423  -4.891  0.00  0.00     0.135 C 
HETATM    8  O   UNK N   1      31.609  19.355  -4.332  0.00  0.00    -0.297 OA
ENDROOT
BRANCH   5   9
HETATM    9  C   UNK N   1      30.536  19.765  -6.973  0.00  0.00     0.050 C 
BRANCH   9  10
HETATM   10  C   UNK N   1      29.408  20.724  -7.188  0.00  0.00    -0.057 A 
HETATM   11  C   UNK N   1      28.330  20.369  -8.007  0.00  0.00     0.008 A 
HETATM   12  C   UNK N   1      27.190  21.178  -8.048  0.00  0.00     0.016 A 
HETATM   13  C   UNK N   1      27.117  22.337  -7.254  0.00  0.00     0.007 A 
HETATM   14  C   UNK N   1      28.212  22.697  -6.462  0.00  0.00     0.016 A 
HETATM   15  C   UNK N   1      29.349  21.895  -6.427  0.00  0.00     0.008 A 
BRANCH  13  16
HETATM   16  C   UNK N   1      25.882  23.147  -7.207  0.00  0.00     0.102 C 
HETATM   17  N   UNK N   1      25.176  23.319  -8.262  0.00  0.00    -0.385 N 
HETATM   18  H   UNK N   1      24.927  22.954  -9.142  0.00  0.00     0.157 HD
ATOM     19  HN  UNK N   1      24.661  24.191  -8.141  1.00  0.00     0.157 HD
BRANCH  16  20
HETATM   20  N   UNK N   1      25.415  23.651  -5.969  0.00  0.00    -0.385 N 
HETATM   21  H   UNK N   1      25.255  24.605  -5.787  0.00  0.00     0.157 HD
HETATM   22  H   UNK N   1      25.241  23.007  -5.246  0.00  0.00     0.157 HD
ENDBRANCH  16  20
ENDBRANCH  13  16
ENDBRANCH   9  10
ENDBRANCH   5   9
BRANCH   6  23
HETATM   23  C   UNK N   1      31.828  21.973  -2.870  0.00  0.00     0.050 C 
BRANCH  23  24
HETATM   24  C   UNK N   1      30.798  23.034  -3.104  0.00  0.00    -0.057 A 
HETATM   25  C   UNK N   1      29.498  22.816  -2.643  0.00  0.00     0.008 A 
HETATM   26  C   UNK N   1      28.485  23.724  -2.947  0.00  0.00     0.016 A 
HETATM   27  C   UNK N   1      28.759  24.854  -3.730  0.00  0.00     0.007 A 
HETATM   28  C   UNK N   1      30.070  25.079  -4.180  0.00  0.00     0.016 A 
HETATM   29  C   UNK N   1      31.087  24.172  -3.868  0.00  0.00     0.008 A 
BRANCH  27  30
HETATM   30  C   UNK N   1      27.673  25.787  -4.098  0.00  0.00     0.102 C 
HETATM   31  N   UNK N   1      26.606  25.853  -3.387  0.00  0.00    -0.385 N 
HETATM   32  H   UNK N   1      26.239  25.404  -2.592  0.00  0.00     0.157 HD
ATOM     33  HN  UNK N   1      25.967  26.563  -3.741  1.00  0.00     0.157 HD
BRANCH  30  34
HETATM   34  N   UNK N   1      27.779  26.579  -5.264  0.00  0.00    -0.385 N 
HETATM   35  H   UNK N   1      27.071  27.016  -5.790  0.00  0.00     0.157 HD
HETATM   36  H   UNK N   1      28.694  26.712  -5.599  0.00  0.00     0.157 HD
ENDBRANCH  30  34
ENDBRANCH  27  30
ENDBRANCH  23  24
ENDBRANCH   6  23
TORSDOF 8
ENDMDL
MODEL 7
REMARK VINA RESULT:      -5.9     22.141     25.145
REMARK  8 active torsions:
REMARK  status: ('A' for Active; 'I' for Inactive)
REMARK    1  A    between atoms: C_15  and  C_13 
REMARK    2  A    between atoms: C_19  and  C_13 
REMARK    3  A    between atoms: C_16  and  C_14 
REMARK    4  A    between atoms: C_20  and  C_14 
REMARK    5  A    between atoms: C_22  and  C_17 
REMARK    6  A    between atoms: C_23  and  C_18 
REMARK    7  A    between atoms: N_24  and  C_22 
REMARK    8  A    between atoms: N_27  and  C_23 
ROOT
HETATM    1  C   UNK N   1      34.223  21.266  -5.011  0.00  0.00     0.001 C 
HETATM    2  C   UNK N   1      33.874  20.555  -3.699  0.00  0.00     0.001 C 
HETATM    3  C   UNK N   1      33.198  20.948  -6.109  0.00  0.00     0.012 C 
HETATM    4  C   UNK N   1      32.908  21.318  -2.763  0.00  0.00     0.012 C 
HETATM    5  C   UNK N   1      31.920  21.795  -5.996  0.00  0.00     0.060 C 
HETATM    6  C   UNK N   1      31.904  22.234  -3.468  0.00  0.00     0.060 C 
HETATM    7  C   UNK N   1      31.306  21.516  -4.659  0.00  0.00     0.135 C 
HETATM    8  O   UNK N   1      30.589  20.538  -4.495  0.00  0.00    -0.297 OA
ENDROOT
BRANCH   5   9
HETATM    9  C   UNK N   1      30.948  21.559  -7.164  0.00  0.00     0.050 C 
BRANCH   9  10
HETATM   10  C   UNK N   1      29.806  22.518  -7.041  0.00  0.00    -0.057 A 
HETATM   11  C   UNK N   1      30.001  23.879  -7.298  0.00  0.00     0.008 A 
HETATM   12  C   UNK N   1      28.899  24.738  -7.378  0.00  0.00     0.016 A 
HETATM   13  C   UNK N   1      27.597  24.233  -7.218  0.00  0.00     0.007 A 
HETATM   14  C   UNK N   1      27.416  22.875  -6.932  0.00  0.00     0.016 A 
HETATM   15  C   UNK N   1      28.514  22.023  -6.846  0.00  0.00     0.008 A 
BRANCH  13  16
HETATM   16  C   UNK N   1      26.418  25.104  -7.400  0.00  0.00     0.102 C 
HETATM   17  N   UNK N   1      26.336  25.886  -8.412  0.00  0.00    -0.385 N 
HETATM   18  H   UNK N   1      26.623  26.047  -9.339  0.00  0.00     0.157 HD
ATOM     19  HN  UNK N   1      25.722  26.656  -8.148  1.00  0.00     0.157 HD
BRANCH  16  20
HETATM   20  N   UNK N   1      25.321  25.004  -6.510  0.00  0.00    -0.385 N 
HETATM   21  H   UNK N   1      24.396  25.245  -6.745  0.00  0.00     0.157 HD
HETATM   22  H   UNK N   1      25.495  24.672  -5.600  0.00  0.00     0.157 HD
ENDBRANCH  16  20
ENDBRANCH  13  16
ENDBRANCH   9  10
ENDBRANCH   5   9
BRANCH   6  23
HETATM   23  C   UNK N   1      30.851  22.753  -2.480  0.00  0.00     0.050 C 
BRANCH  23  24
HETATM   24  C   UNK N   1      29.955  23.787  -3.088  0.00  0.00    -0.057 A 
HETATM   25  C   UNK N   1      30.518  24.988  -3.521  0.00  0.00     0.008 A 
HETATM   26  C   UNK N   1      29.701  26.020  -3.980  0.00  0.00     0.016 A 
HETATM   27  C   UNK N   1      28.307  25.867  -3.995  0.00  0.00     0.007 A 
HETATM   28  C   UNK N   1      27.744  24.652  -3.572  0.00  0.00     0.016 A 
HETATM   29  C   UNK N   1      28.564  23.614  -3.121  0.00  0.00     0.008 A 
BRANCH  27  30
HETATM   30  C   UNK N   1      27.439  26.981  -4.429  0.00  0.00     0.102 C 
HETATM   31  N   UNK N   1      27.834  27.793  -5.341  0.00  0.00    -0.385 N 
HETATM   32  H   UNK N   1      28.641  27.929  -5.887  0.00  0.00     0.157 HD
ATOM     33  HN  UNK N   1      27.117  28.484  -5.560  1.00  0.00     0.157 HD
BRANCH  30  34
HETATM   34  N   UNK N   1      26.186  27.192  -3.809  0.00  0.00    -0.385 N 
HETATM   35  H   UNK N   1      25.945  27.152  -2.856  0.00  0.00     0.157 HD
HETATM   36  H   UNK N   1      25.447  27.409  -4.421  0.00  0.00     0.157 HD
ENDBRANCH  30  34
ENDBRANCH  27  30
ENDBRANCH  23  24
ENDBRANCH   6  23
TORSDOF 8
ENDMDL
MODEL 8
REMARK VINA RESULT:      -5.9      1.370      4.100
REMARK  8 active torsions:
REMARK  status: ('A' for Active; 'I' for Inactive)
REMARK    1  A    between atoms: C_15  and  C_13 
REMARK    2  A    between atoms: C_19  and  C_13 
REMARK    3  A    between atoms: C_16  and  C_14 
REMARK    4  A    between atoms: C_20  and  C_14 
REMARK    5  A    between atoms: C_22  and  C_17 
REMARK    6  A    between atoms: C_23  and  C_18 
REMARK    7  A    between atoms: N_24  and  C_22 
REMARK    8  A    between atoms: N_27  and  C_23 
ROOT
HETATM    1  C   UNK N   1      33.758   8.239  18.999  0.00  0.00     0.001 C 
HETATM    2  C   UNK N   1      34.907   7.241  19.171  0.00  0.00     0.001 C 
HETATM    3  C   UNK N   1      34.257   9.688  19.090  0.00  0.00     0.012 C 
HETATM    4  C   UNK N   1      35.666   6.866  17.877  0.00  0.00     0.012 C 
HETATM    5  C   UNK N   1      34.880  10.188  17.777  0.00  0.00     0.060 C 
HETATM    6  C   UNK N   1      35.709   7.962  16.807  0.00  0.00     0.060 C 
HETATM    7  C   UNK N   1      36.035   9.292  17.451  0.00  0.00     0.135 C 
HETATM    8  O   UNK N   1      37.131   9.481  17.961  0.00  0.00    -0.297 OA
ENDROOT
BRANCH   5   9
HETATM    9  C   UNK N   1      35.270  11.675  17.834  0.00  0.00     0.050 C 
BRANCH   9  10
HETATM   10  C   UNK N   1      35.431  12.184  16.437  0.00  0.00    -0.057 A 
HETATM   11  C   UNK N   1      34.541  11.782  15.435  0.00  0.00     0.008 A 
HETATM   12  C   UNK N   1      34.570  12.408  14.184  0.00  0.00     0.016 A 
HETATM   13  C   UNK N   1      35.479  13.453  13.938  0.00  0.00     0.007 A 
HETATM   14  C   UNK N   1      36.385  13.825  14.937  0.00  0.00     0.016 A 
HETATM   15  C   UNK N   1      36.359  13.197  16.180  0.00  0.00     0.008 A 
BRANCH  13  16
HETATM   16  C   UNK N   1      35.455  14.193  12.660  0.00  0.00     0.102 C 
HETATM   17  N   UNK N   1      36.322  15.104  12.419  0.00  0.00    -0.385 N 
HETATM   18  H   UNK N   1      37.226  15.439  12.619  0.00  0.00     0.157 HD
ATOM     19  HN  UNK N   1      35.906  15.746  11.744  1.00  0.00     0.157 HD
BRANCH  16  20
HETATM   20  N   UNK N   1      34.535  13.825  11.648  0.00  0.00    -0.385 N 
HETATM   21  H   UNK N   1      34.379  12.899  11.355  0.00  0.00     0.157 HD
HETATM   22  H   UNK N   1      34.020  14.541  11.212  0.00  0.00     0.157 HD
ENDBRANCH  16  20
ENDBRANCH  13  16
ENDBRANCH   9  10
ENDBRANCH   5   9
BRANCH   6  23
HETATM   23  C   UNK N   1      36.674   7.582  15.676  0.00  0.00     0.050 C 
BRANCH  23  24
HETATM   24  C   UNK N   1      36.780   8.648  14.630  0.00  0.00    -0.057 A 
HETATM   25  C   UNK N   1      35.923   8.591  13.529  0.00  0.00     0.008 A 
HETATM   26  C   UNK N   1      36.072   9.493  12.477  0.00  0.00     0.016 A 
HETATM   27  C   UNK N   1      37.092  10.455  12.508  0.00  0.00     0.007 A 
HETATM   28  C   UNK N   1      37.943  10.520  13.623  0.00  0.00     0.016 A 
HETATM   29  C   UNK N   1      37.787   9.620  14.682  0.00  0.00     0.008 A 
BRANCH  27  30
HETATM   30  C   UNK N   1      37.283  11.375  11.368  0.00  0.00     0.102 C 
HETATM   31  N   UNK N   1      36.583  11.240  10.301  0.00  0.00    -0.385 N 
HETATM   32  H   UNK N   1      35.892  10.627   9.963  0.00  0.00     0.157 HD
ATOM     33  HN  UNK N   1      36.799  11.967   9.620  1.00  0.00     0.157 HD
BRANCH  30  34
HETATM   34  N   UNK N   1      38.275  12.381  11.423  0.00  0.00    -0.385 N 
HETATM   35  H   UNK N   1      38.672  12.827  12.206  0.00  0.00     0.157 HD
HETATM   36  H   UNK N   1      38.618  12.681  10.551  0.00  0.00     0.157 HD
ENDBRANCH  30  34
ENDBRANCH  27  30
ENDBRANCH  23  24
ENDBRANCH   6  23
TORSDOF 8
ENDMDL
MODEL 9
REMARK VINA RESULT:      -5.8      3.898      6.714
REMARK  8 active torsions:
REMARK  status: ('A' for Active; 'I' for Inactive)
REMARK    1  A    between atoms: C_15  and  C_13 
REMARK    2  A    between atoms: C_19  and  C_13 
REMARK    3  A    between atoms: C_16  and  C_14 
REMARK    4  A    between atoms: C_20  and  C_14 
REMARK    5  A    between atoms: C_22  and  C_17 
REMARK    6  A    between atoms: C_23  and  C_18 
REMARK    7  A    between atoms: N_24  and  C_22 
REMARK    8  A    between atoms: N_27  and  C_23 
ROOT
HETATM    1  C   UNK N   1      33.807  10.387  12.744  0.00  0.00     0.001 C 
HETATM    2  C   UNK N   1      34.257   9.837  11.386  0.00  0.00     0.001 C 
HETATM    3  C   UNK N   1      34.898  10.206  13.809  0.00  0.00     0.012 C 
HETATM    4  C   UNK N   1      35.037  10.827  10.491  0.00  0.00     0.012 C 
HETATM    5  C   UNK N   1      35.986  11.289  13.738  0.00  0.00     0.060 C 
HETATM    6  C   UNK N   1      35.862  11.875  11.243  0.00  0.00     0.060 C 
HETATM    7  C   UNK N   1      36.613  11.215  12.380  0.00  0.00     0.135 C 
HETATM    8  O   UNK N   1      37.501  10.406  12.147  0.00  0.00    -0.297 OA
ENDROOT
BRANCH   5   9
HETATM    9  C   UNK N   1      37.011  11.175  14.879  0.00  0.00     0.050 C 
BRANCH   9  10
HETATM   10  C   UNK N   1      36.300  11.338  16.185  0.00  0.00    -0.057 A 
HETATM   11  C   UNK N   1      36.371  10.333  17.155  0.00  0.00     0.008 A 
HETATM   12  C   UNK N   1      35.875  10.569  18.441  0.00  0.00     0.016 A 
HETATM   13  C   UNK N   1      35.324  11.821  18.767  0.00  0.00     0.007 A 
HETATM   14  C   UNK N   1      35.230  12.809  17.780  0.00  0.00     0.016 A 
HETATM   15  C   UNK N   1      35.718  12.570  16.498  0.00  0.00     0.008 A 
BRANCH  13  16
HETATM   16  C   UNK N   1      34.890  12.123  20.146  0.00  0.00     0.102 C 
HETATM   17  N   UNK N   1      34.634  13.326  20.500  0.00  0.00    -0.385 N 
HETATM   18  H   UNK N   1      34.358  14.221  20.196  0.00  0.00     0.157 HD
ATOM     19  HN  UNK N   1      34.773  13.381  21.509  1.00  0.00     0.157 HD
BRANCH  16  20
HETATM   20  N   UNK N   1      34.653  11.066  21.059  0.00  0.00    -0.385 N 
HETATM   21  H   UNK N   1      35.106  10.975  21.928  0.00  0.00     0.157 HD
HETATM   22  H   UNK N   1      33.993  10.380  20.808  0.00  0.00     0.157 HD
ENDBRANCH  16  20
ENDBRANCH  13  16
ENDBRANCH   9  10
ENDBRANCH   5   9
BRANCH   6  23
HETATM   23  C   UNK N   1      36.774  12.647  10.280  0.00  0.00     0.050 C 
BRANCH  23  24
HETATM   24  C   UNK N   1      36.172  13.944   9.835  0.00  0.00    -0.057 A 
HETATM   25  C   UNK N   1      36.148  15.013  10.732  0.00  0.00     0.008 A 
HETATM   26  C   UNK N   1      35.489  16.195  10.398  0.00  0.00     0.016 A 
HETATM   27  C   UNK N   1      34.831  16.314   9.166  0.00  0.00     0.007 A 
HETATM   28  C   UNK N   1      34.868  15.243   8.259  0.00  0.00     0.016 A 
HETATM   29  C   UNK N   1      35.537  14.061   8.591  0.00  0.00     0.008 A 
BRANCH  27  30
HETATM   30  C   UNK N   1      34.087  17.547   8.835  0.00  0.00     0.102 C 
HETATM   31  N   UNK N   1      32.803  17.550   8.839  0.00  0.00    -0.385 N 
HETATM   32  H   UNK N   1      32.079  16.902   8.992  0.00  0.00     0.157 HD
ATOM     33  HN  UNK N   1      32.433  18.476   8.628  1.00  0.00     0.157 HD
BRANCH  30  34
HETATM   34  N   UNK N   1      34.781  18.720   8.462  0.00  0.00    -0.385 N 
HETATM   35  H   UNK N   1      35.435  19.250   8.973  0.00  0.00     0.157 HD
HETATM   36  H   UNK N   1      34.581  19.057   7.560  0.00  0.00     0.157 HD
ENDBRANCH  30  34
ENDBRANCH  27  30
ENDBRANCH  23  24
ENDBRANCH   6  23
TORSDOF 8
ENDMDL
