REMARK  8 active torsions:
REMARK  status: ('A' for Active; 'I' for Inactive)
REMARK    1  A    between atoms: C_3  and  N_1 
REMARK    2  A    between atoms: C_8  and  O_15 
REMARK    3  A    between atoms: C_13  and  C_18 
REMARK    4  A    between atoms: C_14  and  O_19 
REMARK    5  A    between atoms: C_18  and  O_21 
REMARK    6  A    between atoms: O_21  and  P_22 
REMARK    7  A    between atoms: P_22  and  O_23 
REMARK    8  A    between atoms: P_22  and  O_24 
ROOT
HETATM    1  C   UNK N   1      12.764 -11.782   0.206  0.00  0.00     0.261 C 
HETATM    2  O   UNK N   1      11.755 -12.004  -0.737  0.00  0.00    -0.353 OA
HETATM    3  C   UNK N   1      13.697 -12.951   0.078  0.00  0.00     0.198 C 
HETATM    4  C   UNK N   1      11.492 -13.382  -0.635  0.00  0.00     0.180 C 
HETATM    5  C   UNK N   1      12.648 -14.021   0.127  0.00  0.00     0.182 C 
ENDROOT
BRANCH   1   6
HETATM    6  N   UNK N   1      13.352 -10.461   0.025  0.00  0.00    -0.311 N 
HETATM    7  C   UNK N   1      12.660  -9.321   0.058  0.00  0.00     0.065 A 
HETATM    8  C   UNK N   1      13.505  -8.281  -0.128  0.00  0.00     0.060 A 
HETATM    9  C   UNK N   1      11.290  -9.150   0.239  0.00  0.00     0.039 A 
HETATM   10  C   UNK N   1      13.057  -6.964  -0.144  0.00  0.00     0.039 A 
HETATM   11  N   UNK N   1      14.763  -8.743  -0.285  0.00  0.00    -0.350 N 
HETATM   12  C   UNK N   1      11.672  -6.740   0.036  0.00  0.00    -0.054 A 
HETATM   13  C   UNK N   1      11.158  -5.341   0.021  0.00  0.00     0.049 C 
HETATM   14  C   UNK N   1      10.787  -7.841   0.224  0.00  0.00    -0.054 A 
HETATM   15  C   UNK N   1       9.321  -7.638   0.407  0.00  0.00     0.049 C 
HETATM   16  C   UNK N   1      14.644 -10.097  -0.188  0.00  0.00     0.186 A 
ATOM     17  HN  UNK N   1      15.612  -8.201  -0.441  1.00  0.00     0.166 HD
ENDBRANCH   1   6
BRANCH   3  18
HETATM   18  O   UNK N   1      14.553 -13.046   1.175  0.00  0.00    -0.388 OA
HETATM   19  H   UNK N   1      14.793 -13.594   1.938  0.00  0.00     0.210 HD
ENDBRANCH   3  18
BRANCH   4  20
HETATM   20  C   UNK N   1      10.187 -13.588   0.123  0.00  0.00     0.215 C 
BRANCH  20  21
HETATM   21  O   UNK N   1       9.143 -12.925  -0.537  0.00  0.00    -0.294 OA
BRANCH  21  22
HETATM   22  P   UNK N   1       7.922 -12.660   0.675  0.00  0.00     0.390 P 
HETATM   23  O   UNK N   1       7.315 -13.808  -0.175  0.00  0.00    -0.632 OA
BRANCH  22  24
HETATM   24  O   UNK N   1       6.361 -12.053   0.219  0.00  0.00    -0.307 OA
HETATM   25  H   UNK N   1       6.218 -11.128  -0.036  0.00  0.00     0.222 HD
ENDBRANCH  22  24
BRANCH  22  26
HETATM   26  O   UNK N   1       8.087 -11.223  -0.287  0.00  0.00    -0.307 OA
HETATM   27  H   UNK N   1       8.828 -10.901  -0.824  0.00  0.00     0.222 HD
ENDBRANCH  22  26
ENDBRANCH  21  22
ENDBRANCH  20  21
ENDBRANCH   4  20
BRANCH   5  28
HETATM   28  O   UNK N   1      13.084 -15.189  -0.496  0.00  0.00    -0.390 OA
HETATM   29  H   UNK N   1      12.532 -15.859  -0.929  0.00  0.00     0.210 HD
ENDBRANCH   5  28
TORSDOF 8
