REMARK  16 active torsions:
REMARK  status: ('A' for Active; 'I' for Inactive)
REMARK    1  A    between atoms: C_4  and  C_2 
REMARK    2  A    between atoms: C_9  and  C_2 
REMARK    3  A    between atoms: C_13  and  C_4 
REMARK    4  A    between atoms: C_14  and  C_6 
REMARK    5  A    between atoms: N_18  and  C_6 
REMARK    6  A    between atoms: C_10  and  C_7 
REMARK    7  A    between atoms: S_32  and  C_7 
REMARK    8  A    between atoms: N_20  and  C_8 
REMARK    9  A    between atoms: C_16  and  C_9 
REMARK   10  A    between atoms: C_9  and  N_17 
REMARK   11  A    between atoms: C_15  and  C_10 
REMARK   12  A    between atoms: C_10  and  N_19 
REMARK   13  A    between atoms: N_21  and  C_11 
REMARK   14  A    between atoms: S_32  and  C_12 
REMARK       I    between atoms: N_19  and  C_13 
REMARK   15  A    between atoms: O_23  and  C_14 
REMARK       I    between atoms: N_18  and  C_15 
REMARK   16  A    between atoms: O_26  and  C_16 
ROOT
HETATM    1  C   UNK N   1       5.315  -0.730  -1.068  0.00  0.00     0.186 C 
ENDROOT
BRANCH   1   2
HETATM    2  C   UNK N   1       4.817   0.675  -0.897  0.00  0.00     0.114 C 
BRANCH   2   3
HETATM    3  S   UNK N   1       4.723   1.042   0.888  0.00  0.00    -0.125 SA
BRANCH   3   4
HETATM    4  C   UNK N   1       4.002   2.554   0.401  0.00  0.00     0.033 A 
HETATM    5  C   UNK N   1       2.614   2.570   0.278  0.00  0.00     0.023 A 
HETATM    6  C   UNK N   1       1.962   3.728  -0.101  0.00  0.00     0.037 A 
HETATM    7  C   UNK N   1       2.693   4.888  -0.361  0.00  0.00     0.105 A 
HETATM    8  C   UNK N   1       4.096   4.858  -0.298  0.00  0.00     0.073 A 
HETATM    9  C   UNK N   1       4.777   3.694   0.077  0.00  0.00     0.122 A 
BRANCH   7  10
HETATM   10  N   UNK N   1       2.017   6.111  -0.595  0.00  0.00    -0.116 N 
HETATM   11  O   UNK N   1       0.820   6.141  -0.587  0.00  0.00    -0.532 OA
HETATM   12  O   UNK N   1       2.628   7.132  -0.640  0.00  0.00    -0.532 OA
ENDBRANCH   7  10
BRANCH   9  13
HETATM   13  N   UNK N   1       6.215   3.708   0.125  0.00  0.00    -0.114 N 
HETATM   14  O   UNK N   1       6.831   2.787   0.575  0.00  0.00    -0.532 OA
HETATM   15  O   UNK N   1       6.814   4.654  -0.284  0.00  0.00    -0.532 OA
ENDBRANCH   9  13
ENDBRANCH   3   4
ENDBRANCH   2   3
ENDBRANCH   1   2
BRANCH   1  16
HETATM   16  C   UNK N   1       4.314  -1.711  -0.481  0.00  0.00     0.241 C 
HETATM   17  N   UNK N   1       4.591  -3.028  -0.489  0.00  0.00    -0.349 N 
HETATM   18  H   UNK N   1       5.413  -3.349  -0.925  0.00  0.00     0.163 HD
HETATM   19  O   UNK N   1       3.257  -1.315  -0.000  0.00  0.00    -0.271 OA
BRANCH  17  20
HETATM   20  C   UNK N   1       3.699  -3.970   0.130  0.00  0.00     0.232 C 
BRANCH  20  21
HETATM   21  C   UNK N   1       4.394  -5.271   0.244  0.00  0.00     0.158 C 
HETATM   22  O   UNK N   1       3.890  -6.272  -0.233  0.00  0.00    -0.649 OA
BRANCH  21  23
HETATM   23  O   UNK N   1       5.585  -5.344   0.866  0.00  0.00    -0.775 OA
HETATM   24  H   UNK N   1       5.956  -6.088   1.299  0.00  0.00     0.167 HD
ENDBRANCH  21  23
ENDBRANCH  20  21
ENDBRANCH  17  20
ENDBRANCH   1  16
BRANCH   1  25
HETATM   25  N   UNK N   1       6.654  -0.740  -0.496  0.00  0.00    -0.347 N 
HETATM   26  C   UNK N   1       7.070  -1.275   0.683  0.00  0.00     0.218 C 
HETATM   27  O   UNK N   1       6.303  -1.877   1.415  0.00  0.00    -0.274 OA
HETATM   28  H   UNK N   1       7.351  -0.301  -1.035  0.00  0.00     0.163 HD
BRANCH  26  29
HETATM   29  C   UNK N   1       8.474  -1.028   1.143  0.00  0.00     0.105 C 
BRANCH  29  30
HETATM   30  C   UNK N   1       9.488  -1.002  -0.003  0.00  0.00     0.044 C 
BRANCH  30  31
HETATM   31  C   UNK N   1       9.505  -2.295  -0.817  0.00  0.00     0.173 C 
BRANCH  31  32
HETATM   32  C   UNK N   1       9.743  -3.475   0.078  0.00  0.00     0.163 C 
HETATM   33  O   UNK N   1       8.905  -4.358   0.162  0.00  0.00    -0.648 OA
BRANCH  32  34
HETATM   34  O   UNK N   1      10.869  -3.550   0.814  0.00  0.00    -0.775 OA
HETATM   35  H   UNK N   1      11.215  -4.253   1.327  0.00  0.00     0.167 HD
ENDBRANCH  32  34
ENDBRANCH  31  32
BRANCH  31  36
HETATM   36  N   UNK N   1      10.559  -2.215  -1.812  0.00  0.00    -0.418 N 
HETATM   37  H   UNK N   1      10.978  -2.829  -2.511  0.00  0.00     0.150 HD
HETATM   38  H   UNK N   1      11.001  -1.296  -1.812  0.00  0.00     0.150 HD
ENDBRANCH  31  36
ENDBRANCH  30  31
ENDBRANCH  29  30
ENDBRANCH  26  29
ENDBRANCH   1  25
TORSDOF 16
