MODEL 1
REMARK VINA RESULT:      -4.7      0.000      0.000
REMARK  8 active torsions:
REMARK  status: ('A' for Active; 'I' for Inactive)
REMARK    1  A    between atoms: C_3  and  C_2 
REMARK    2  A    between atoms: C_6  and  C_3 
REMARK    3  A    between atoms: C_5  and  C_4 
REMARK    4  A    between atoms: S_12  and  C_4 
REMARK    5  A    between atoms: C_7  and  C_5 
REMARK    6  A    between atoms: C_5  and  N_8 
REMARK    7  A    between atoms: S_12  and  C_6 
REMARK    8  A    between atoms: O_11  and  C_7 
ROOT
HETATM    1  C   UNK N   1      20.643  19.418   2.121  0.00  0.00     0.183 C 
ENDROOT
BRANCH   1   2
HETATM    2  C   UNK N   1      21.270  19.800   3.463  0.00  0.00     0.117 C 
BRANCH   2   3
HETATM    3  S   UNK N   1      22.849  18.938   3.787  0.00  0.00    -0.090 SA
BRANCH   3   4
HETATM    4  C   UNK N   1      23.993  20.212   3.205  0.00  0.00     0.186 C 
HETATM    5  O   UNK N   1      23.556  21.337   3.018  0.00  0.00    -0.286 OA
BRANCH   4   6
HETATM    6  C   UNK N   1      25.459  19.928   2.993  0.00  0.00     0.090 C 
BRANCH   6   7
HETATM    7  C   UNK N   1      26.317  20.442   4.146  0.00  0.00     0.004 C 
HETATM    8  C   UNK N   1      26.789  19.289   5.004  0.00  0.00     0.005 C 
ENDBRANCH   6   7
ENDBRANCH   4   6
ENDBRANCH   3   4
ENDBRANCH   2   3
ENDBRANCH   1   2
BRANCH   1   9
HETATM    9  C   UNK N   1      20.693  20.556   1.124  0.00  0.00     0.163 C 
HETATM   10  O   UNK N   1      20.824  21.710   1.503  0.00  0.00    -0.648 OA
BRANCH   9  11
HETATM   11  O   UNK N   1      20.565  20.307  -0.194  0.00  0.00    -0.775 OA
HETATM   12  H   UNK N   1      20.146  20.930  -0.754  0.00  0.00     0.167 HD
ENDBRANCH   9  11
ENDBRANCH   1   9
BRANCH   1  13
HETATM   13  N   UNK N   1      19.262  19.026   2.362  0.00  0.00    -0.417 N 
HETATM   14  H   UNK N   1      19.042  18.081   2.676  0.00  0.00     0.150 HD
HETATM   15  H   UNK N   1      18.511  19.700   2.216  0.00  0.00     0.150 HD
ENDBRANCH   1  13
TORSDOF 8
ENDMDL
MODEL 2
REMARK VINA RESULT:      -4.6     13.540     15.620
REMARK  8 active torsions:
REMARK  status: ('A' for Active; 'I' for Inactive)
REMARK    1  A    between atoms: C_3  and  C_2 
REMARK    2  A    between atoms: C_6  and  C_3 
REMARK    3  A    between atoms: C_5  and  C_4 
REMARK    4  A    between atoms: S_12  and  C_4 
REMARK    5  A    between atoms: C_7  and  C_5 
REMARK    6  A    between atoms: C_5  and  N_8 
REMARK    7  A    between atoms: S_12  and  C_6 
REMARK    8  A    between atoms: O_11  and  C_7 
ROOT
HETATM    1  C   UNK N   1      34.392  16.918   8.940  0.00  0.00     0.183 C 
ENDROOT
BRANCH   1   2
HETATM    2  C   UNK N   1      35.190  16.934  10.245  0.00  0.00     0.117 C 
BRANCH   2   3
HETATM    3  S   UNK N   1      36.252  15.462  10.452  0.00  0.00    -0.090 SA
BRANCH   3   4
HETATM    4  C   UNK N   1      35.463  14.745  11.913  0.00  0.00     0.186 C 
HETATM    5  O   UNK N   1      34.270  14.488  11.856  0.00  0.00    -0.286 OA
BRANCH   4   6
HETATM    6  C   UNK N   1      36.244  14.423  13.163  0.00  0.00     0.090 C 
BRANCH   6   7
HETATM    7  C   UNK N   1      35.501  13.446  14.070  0.00  0.00     0.004 C 
HETATM    8  C   UNK N   1      36.120  13.437  15.451  0.00  0.00     0.005 C 
ENDBRANCH   6   7
ENDBRANCH   4   6
ENDBRANCH   3   4
ENDBRANCH   2   3
ENDBRANCH   1   2
BRANCH   1   9
HETATM    9  C   UNK N   1      34.686  18.126   8.077  0.00  0.00     0.163 C 
HETATM   10  O   UNK N   1      34.384  18.135   6.894  0.00  0.00    -0.648 OA
BRANCH   9  11
HETATM   11  O   UNK N   1      35.312  19.197   8.604  0.00  0.00    -0.775 OA
HETATM   12  H   UNK N   1      35.840  19.105   9.372  0.00  0.00     0.167 HD
ENDBRANCH   9  11
ENDBRANCH   1   9
BRANCH   1  13
HETATM   13  N   UNK N   1      32.977  16.877   9.276  0.00  0.00    -0.417 N 
HETATM   14  H   UNK N   1      32.521  17.693   9.685  0.00  0.00     0.150 HD
HETATM   15  H   UNK N   1      32.438  16.029   9.103  0.00  0.00     0.150 HD
ENDBRANCH   1  13
TORSDOF 8
ENDMDL
MODEL 3
REMARK VINA RESULT:      -4.6      3.515      4.457
REMARK  8 active torsions:
REMARK  status: ('A' for Active; 'I' for Inactive)
REMARK    1  A    between atoms: C_3  and  C_2 
REMARK    2  A    between atoms: C_6  and  C_3 
REMARK    3  A    between atoms: C_5  and  C_4 
REMARK    4  A    between atoms: S_12  and  C_4 
REMARK    5  A    between atoms: C_7  and  C_5 
REMARK    6  A    between atoms: C_5  and  N_8 
REMARK    7  A    between atoms: S_12  and  C_6 
REMARK    8  A    between atoms: O_11  and  C_7 
ROOT
HETATM    1  C   UNK N   1      20.515  18.946   2.422  0.00  0.00     0.183 C 
ENDROOT
BRANCH   1   2
HETATM    2  C   UNK N   1      20.882  19.273   3.871  0.00  0.00     0.117 C 
BRANCH   2   3
HETATM    3  S   UNK N   1      21.977  18.023   4.631  0.00  0.00    -0.090 SA
BRANCH   3   4
HETATM    4  C   UNK N   1      21.182  17.895   6.250  0.00  0.00     0.186 C 
HETATM    5  O   UNK N   1      21.084  18.908   6.927  0.00  0.00    -0.286 OA
BRANCH   4   6
HETATM    6  C   UNK N   1      20.608  16.595   6.755  0.00  0.00     0.090 C 
BRANCH   6   7
HETATM    7  C   UNK N   1      20.265  16.655   8.241  0.00  0.00     0.004 C 
HETATM    8  C   UNK N   1      20.729  15.395   8.938  0.00  0.00     0.005 C 
ENDBRANCH   6   7
ENDBRANCH   4   6
ENDBRANCH   3   4
ENDBRANCH   2   3
ENDBRANCH   1   2
BRANCH   1   9
HETATM    9  C   UNK N   1      20.817  20.096   1.485  0.00  0.00     0.163 C 
HETATM   10  O   UNK N   1      21.193  21.173   1.922  0.00  0.00    -0.648 OA
BRANCH   9  11
HETATM   11  O   UNK N   1      20.644  19.949   0.157  0.00  0.00    -0.775 OA
HETATM   12  H   UNK N   1      20.412  19.114  -0.200  0.00  0.00     0.167 HD
ENDBRANCH   9  11
ENDBRANCH   1   9
BRANCH   1  13
HETATM   13  N   UNK N   1      19.097  18.625   2.377  0.00  0.00    -0.417 N 
HETATM   14  H   UNK N   1      18.441  19.100   2.997  0.00  0.00     0.150 HD
HETATM   15  H   UNK N   1      18.756  17.920   1.723  0.00  0.00     0.150 HD
ENDBRANCH   1  13
TORSDOF 8
ENDMDL
MODEL 4
REMARK VINA RESULT:      -4.6     10.958     12.961
REMARK  8 active torsions:
REMARK  status: ('A' for Active; 'I' for Inactive)
REMARK    1  A    between atoms: C_3  and  C_2 
REMARK    2  A    between atoms: C_6  and  C_3 
REMARK    3  A    between atoms: C_5  and  C_4 
REMARK    4  A    between atoms: S_12  and  C_4 
REMARK    5  A    between atoms: C_7  and  C_5 
REMARK    6  A    between atoms: C_5  and  N_8 
REMARK    7  A    between atoms: S_12  and  C_6 
REMARK    8  A    between atoms: O_11  and  C_7 
ROOT
HETATM    1  C   UNK N   1      34.107  17.214   9.115  0.00  0.00     0.183 C 
ENDROOT
BRANCH   1   2
HETATM    2  C   UNK N   1      34.087  15.808   8.512  0.00  0.00     0.117 C 
BRANCH   2   3
HETATM    3  S   UNK N   1      32.507  14.933   8.788  0.00  0.00    -0.090 SA
BRANCH   3   4
HETATM    4  C   UNK N   1      31.854  14.986   7.102  0.00  0.00     0.186 C 
HETATM    5  O   UNK N   1      31.661  13.926   6.525  0.00  0.00    -0.286 OA
BRANCH   4   6
HETATM    6  C   UNK N   1      31.508  16.287   6.422  0.00  0.00     0.090 C 
BRANCH   6   7
HETATM    7  C   UNK N   1      30.771  17.244   7.354  0.00  0.00     0.004 C 
HETATM    8  C   UNK N   1      29.275  17.121   7.158  0.00  0.00     0.005 C 
ENDBRANCH   6   7
ENDBRANCH   4   6
ENDBRANCH   3   4
ENDBRANCH   2   3
ENDBRANCH   1   2
BRANCH   1   9
HETATM    9  C   UNK N   1      34.636  18.244   8.141  0.00  0.00     0.163 C 
HETATM   10  O   UNK N   1      34.448  18.120   6.940  0.00  0.00    -0.648 OA
BRANCH   9  11
HETATM   11  O   UNK N   1      35.347  19.297   8.590  0.00  0.00    -0.775 OA
HETATM   12  H   UNK N   1      35.010  20.167   8.502  0.00  0.00     0.167 HD
ENDBRANCH   9  11
ENDBRANCH   1   9
BRANCH   1  13
HETATM   13  N   UNK N   1      34.938  17.182  10.309  0.00  0.00    -0.417 N 
HETATM   14  H   UNK N   1      35.913  16.886  10.249  0.00  0.00     0.150 HD
HETATM   15  H   UNK N   1      34.546  17.456  11.209  0.00  0.00     0.150 HD
ENDBRANCH   1  13
TORSDOF 8
ENDMDL
MODEL 5
REMARK VINA RESULT:      -4.5      9.772     12.045
REMARK  8 active torsions:
REMARK  status: ('A' for Active; 'I' for Inactive)
REMARK    1  A    between atoms: C_3  and  C_2 
REMARK    2  A    between atoms: C_6  and  C_3 
REMARK    3  A    between atoms: C_5  and  C_4 
REMARK    4  A    between atoms: S_12  and  C_4 
REMARK    5  A    between atoms: C_7  and  C_5 
REMARK    6  A    between atoms: C_5  and  N_8 
REMARK    7  A    between atoms: S_12  and  C_6 
REMARK    8  A    between atoms: O_11  and  C_7 
ROOT
HETATM    1  C   UNK N   1      33.418  17.561   8.812  0.00  0.00     0.183 C 
ENDROOT
BRANCH   1   2
HETATM    2  C   UNK N   1      32.482  16.679   7.985  0.00  0.00     0.117 C 
BRANCH   2   3
HETATM    3  S   UNK N   1      30.746  17.251   8.016  0.00  0.00    -0.090 SA
BRANCH   3   4
HETATM    4  C   UNK N   1      30.388  17.172   6.245  0.00  0.00     0.186 C 
HETATM    5  O   UNK N   1      29.335  17.648   5.848  0.00  0.00    -0.286 OA
BRANCH   4   6
HETATM    6  C   UNK N   1      31.365  16.580   5.260  0.00  0.00     0.090 C 
BRANCH   6   7
HETATM    7  C   UNK N   1      31.936  17.631   4.313  0.00  0.00     0.004 C 
HETATM    8  C   UNK N   1      32.630  16.964   3.145  0.00  0.00     0.005 C 
ENDBRANCH   6   7
ENDBRANCH   4   6
ENDBRANCH   3   4
ENDBRANCH   2   3
ENDBRANCH   1   2
BRANCH   1   9
HETATM    9  C   UNK N   1      34.431  18.283   7.948  0.00  0.00     0.163 C 
HETATM   10  O   UNK N   1      34.523  18.032   6.756  0.00  0.00    -0.648 OA
BRANCH   9  11
HETATM   11  O   UNK N   1      35.260  19.192   8.496  0.00  0.00    -0.775 OA
HETATM   12  H   UNK N   1      36.162  19.221   8.244  0.00  0.00     0.167 HD
ENDBRANCH   9  11
ENDBRANCH   1   9
BRANCH   1  13
HETATM   13  N   UNK N   1      34.101  16.714   9.778  0.00  0.00    -0.417 N 
HETATM   14  H   UNK N   1      33.795  16.692  10.751  0.00  0.00     0.150 HD
HETATM   15  H   UNK N   1      34.890  16.140   9.482  0.00  0.00     0.150 HD
ENDBRANCH   1  13
TORSDOF 8
ENDMDL
MODEL 6
REMARK VINA RESULT:      -4.4      2.052      2.717
REMARK  8 active torsions:
REMARK  status: ('A' for Active; 'I' for Inactive)
REMARK    1  A    between atoms: C_3  and  C_2 
REMARK    2  A    between atoms: C_6  and  C_3 
REMARK    3  A    between atoms: C_5  and  C_4 
REMARK    4  A    between atoms: S_12  and  C_4 
REMARK    5  A    between atoms: C_7  and  C_5 
REMARK    6  A    between atoms: C_5  and  N_8 
REMARK    7  A    between atoms: S_12  and  C_6 
REMARK    8  A    between atoms: O_11  and  C_7 
ROOT
HETATM    1  C   UNK N   1      19.951  17.343   2.301  0.00  0.00     0.183 C 
ENDROOT
BRANCH   1   2
HETATM    2  C   UNK N   1      21.162  17.678   3.173  0.00  0.00     0.117 C 
BRANCH   2   3
HETATM    3  S   UNK N   1      21.089  19.361   3.883  0.00  0.00    -0.090 SA
BRANCH   3   4
HETATM    4  C   UNK N   1      22.070  20.237   2.642  0.00  0.00     0.186 C 
HETATM    5  O   UNK N   1      21.580  20.408   1.536  0.00  0.00    -0.286 OA
BRANCH   4   6
HETATM    6  C   UNK N   1      23.438  20.789   2.953  0.00  0.00     0.090 C 
BRANCH   6   7
HETATM    7  C   UNK N   1      24.462  19.685   3.199  0.00  0.00     0.004 C 
HETATM    8  C   UNK N   1      25.497  20.142   4.204  0.00  0.00     0.005 C 
ENDBRANCH   6   7
ENDBRANCH   4   6
ENDBRANCH   3   4
ENDBRANCH   2   3
ENDBRANCH   1   2
BRANCH   1   9
HETATM    9  C   UNK N   1      20.342  17.063   0.866  0.00  0.00     0.163 C 
HETATM   10  O   UNK N   1      20.687  15.942   0.522  0.00  0.00    -0.648 OA
BRANCH   9  11
HETATM   11  O   UNK N   1      20.341  18.058  -0.043  0.00  0.00    -0.775 OA
HETATM   12  H   UNK N   1      20.818  17.966  -0.844  0.00  0.00     0.167 HD
ENDBRANCH   9  11
ENDBRANCH   1   9
BRANCH   1  13
HETATM   13  N   UNK N   1      19.030  18.469   2.355  0.00  0.00    -0.417 N 
HETATM   14  H   UNK N   1      19.290  19.324   2.846  0.00  0.00     0.150 HD
HETATM   15  H   UNK N   1      18.119  18.402   1.901  0.00  0.00     0.150 HD
ENDBRANCH   1  13
TORSDOF 8
ENDMDL
MODEL 7
REMARK VINA RESULT:      -4.4     11.756     13.707
REMARK  8 active torsions:
REMARK  status: ('A' for Active; 'I' for Inactive)
REMARK    1  A    between atoms: C_3  and  C_2 
REMARK    2  A    between atoms: C_6  and  C_3 
REMARK    3  A    between atoms: C_5  and  C_4 
REMARK    4  A    between atoms: S_12  and  C_4 
REMARK    5  A    between atoms: C_7  and  C_5 
REMARK    6  A    between atoms: C_5  and  N_8 
REMARK    7  A    between atoms: S_12  and  C_6 
REMARK    8  A    between atoms: O_11  and  C_7 
ROOT
HETATM    1  C   UNK N   1      34.408  16.050   9.480  0.00  0.00     0.183 C 
ENDROOT
BRANCH   1   2
HETATM    2  C   UNK N   1      33.006  15.927   8.881  0.00  0.00     0.117 C 
BRANCH   2   3
HETATM    3  S   UNK N   1      32.409  17.484   8.132  0.00  0.00    -0.090 SA
BRANCH   3   4
HETATM    4  C   UNK N   1      33.385  17.461   6.610  0.00  0.00     0.186 C 
HETATM    5  O   UNK N   1      34.467  18.028   6.610  0.00  0.00    -0.286 OA
BRANCH   4   6
HETATM    6  C   UNK N   1      32.917  16.731   5.376  0.00  0.00     0.090 C 
BRANCH   6   7
HETATM    7  C   UNK N   1      32.681  17.678   4.203  0.00  0.00     0.004 C 
HETATM    8  C   UNK N   1      32.214  16.905   2.989  0.00  0.00     0.005 C 
ENDBRANCH   6   7
ENDBRANCH   4   6
ENDBRANCH   3   4
ENDBRANCH   2   3
ENDBRANCH   1   2
BRANCH   1   9
HETATM    9  C   UNK N   1      34.541  15.284  10.779  0.00  0.00     0.163 C 
HETATM   10  O   UNK N   1      35.632  15.140  11.308  0.00  0.00    -0.648 OA
BRANCH   9  11
HETATM   11  O   UNK N   1      33.454  14.728  11.351  0.00  0.00    -0.775 OA
HETATM   12  H   UNK N   1      33.552  14.110  12.048  0.00  0.00     0.167 HD
ENDBRANCH   9  11
ENDBRANCH   1   9
BRANCH   1  13
HETATM   13  N   UNK N   1      34.682  17.461   9.703  0.00  0.00    -0.417 N 
HETATM   14  H   UNK N   1      34.368  17.918  10.560  0.00  0.00     0.150 HD
HETATM   15  H   UNK N   1      35.190  17.997   9.000  0.00  0.00     0.150 HD
ENDBRANCH   1  13
TORSDOF 8
ENDMDL
MODEL 8
REMARK VINA RESULT:      -4.3     14.414     16.917
REMARK  8 active torsions:
REMARK  status: ('A' for Active; 'I' for Inactive)
REMARK    1  A    between atoms: C_3  and  C_2 
REMARK    2  A    between atoms: C_6  and  C_3 
REMARK    3  A    between atoms: C_5  and  C_4 
REMARK    4  A    between atoms: S_12  and  C_4 
REMARK    5  A    between atoms: C_7  and  C_5 
REMARK    6  A    between atoms: C_5  and  N_8 
REMARK    7  A    between atoms: S_12  and  C_6 
REMARK    8  A    between atoms: O_11  and  C_7 
ROOT
HETATM    1  C   UNK N   1      34.826  15.528  10.310  0.00  0.00     0.183 C 
ENDROOT
BRANCH   1   2
HETATM    2  C   UNK N   1      35.930  15.518  11.368  0.00  0.00     0.117 C 
BRANCH   2   3
HETATM    3  S   UNK N   1      36.531  13.837  11.760  0.00  0.00    -0.090 SA
BRANCH   3   4
HETATM    4  C   UNK N   1      35.769  13.633  13.387  0.00  0.00     0.186 C 
HETATM    5  O   UNK N   1      34.584  13.336  13.435  0.00  0.00    -0.286 OA
BRANCH   4   6
HETATM    6  C   UNK N   1      36.562  13.776  14.661  0.00  0.00     0.090 C 
BRANCH   6   7
HETATM    7  C   UNK N   1      36.637  12.468  15.442  0.00  0.00     0.004 C 
HETATM    8  C   UNK N   1      37.365  11.415  14.635  0.00  0.00     0.005 C 
ENDBRANCH   6   7
ENDBRANCH   4   6
ENDBRANCH   3   4
ENDBRANCH   2   3
ENDBRANCH   1   2
BRANCH   1   9
HETATM    9  C   UNK N   1      34.581  16.916   9.756  0.00  0.00     0.163 C 
HETATM   10  O   UNK N   1      35.441  17.779   9.837  0.00  0.00    -0.648 OA
BRANCH   9  11
HETATM   11  O   UNK N   1      33.396  17.219   9.192  0.00  0.00    -0.775 OA
HETATM   12  H   UNK N   1      32.915  17.970   9.478  0.00  0.00     0.167 HD
ENDBRANCH   9  11
ENDBRANCH   1   9
BRANCH   1  13
HETATM   13  N   UNK N   1      33.610  15.013  10.921  0.00  0.00    -0.417 N 
HETATM   14  H   UNK N   1      32.713  15.465  10.742  0.00  0.00     0.150 HD
HETATM   15  H   UNK N   1      33.654  14.198  11.532  0.00  0.00     0.150 HD
ENDBRANCH   1  13
TORSDOF 8
ENDMDL
MODEL 9
REMARK VINA RESULT:      -4.3     13.830     15.444
REMARK  8 active torsions:
REMARK  status: ('A' for Active; 'I' for Inactive)
REMARK    1  A    between atoms: C_3  and  C_2 
REMARK    2  A    between atoms: C_6  and  C_3 
REMARK    3  A    between atoms: C_5  and  C_4 
REMARK    4  A    between atoms: S_12  and  C_4 
REMARK    5  A    between atoms: C_7  and  C_5 
REMARK    6  A    between atoms: C_5  and  N_8 
REMARK    7  A    between atoms: S_12  and  C_6 
REMARK    8  A    between atoms: O_11  and  C_7 
ROOT
HETATM    1  C   UNK N   1      34.411  17.088   9.220  0.00  0.00     0.183 C 
ENDROOT
BRANCH   1   2
HETATM    2  C   UNK N   1      34.846  15.707   8.727  0.00  0.00     0.117 C 
BRANCH   2   3
HETATM    3  S   UNK N   1      36.079  14.914   9.818  0.00  0.00    -0.090 SA
BRANCH   3   4
HETATM    4  C   UNK N   1      34.963  13.918  10.834  0.00  0.00     0.186 C 
HETATM    5  O   UNK N   1      34.373  14.469  11.752  0.00  0.00    -0.286 OA
BRANCH   4   6
HETATM    6  C   UNK N   1      34.717  12.458  10.550  0.00  0.00     0.090 C 
BRANCH   6   7
HETATM    7  C   UNK N   1      35.163  11.564  11.704  0.00  0.00     0.004 C 
HETATM    8  C   UNK N   1      36.660  11.668  11.900  0.00  0.00     0.005 C 
ENDBRANCH   6   7
ENDBRANCH   4   6
ENDBRANCH   3   4
ENDBRANCH   2   3
ENDBRANCH   1   2
BRANCH   1   9
HETATM    9  C   UNK N   1      34.746  18.179   8.225  0.00  0.00     0.163 C 
HETATM   10  O   UNK N   1      35.274  19.217   8.594  0.00  0.00    -0.648 OA
BRANCH   9  11
HETATM   11  O   UNK N   1      34.436  18.025   6.923  0.00  0.00    -0.775 OA
HETATM   12  H   UNK N   1      34.547  17.193   6.506  0.00  0.00     0.167 HD
ENDBRANCH   9  11
ENDBRANCH   1   9
BRANCH   1  13
HETATM   13  N   UNK N   1      35.078  17.346  10.487  0.00  0.00    -0.417 N 
HETATM   14  H   UNK N   1      34.533  17.458  11.342  0.00  0.00     0.150 HD
HETATM   15  H   UNK N   1      36.095  17.417  10.520  0.00  0.00     0.150 HD
ENDBRANCH   1  13
TORSDOF 8
ENDMDL
