MODEL 1
REMARK VINA RESULT:      -5.6      0.000      0.000
REMARK  9 active torsions:
REMARK  status: ('A' for Active; 'I' for Inactive)
REMARK    1  A    between atoms: N_2  and  C_3 
REMARK    2  A    between atoms: N_2  and  C_14 
REMARK    3  A    between atoms: C_3  and  C_4 
REMARK    4  A    between atoms: C_4  and  O_5 
REMARK    5  A    between atoms: P_6  and  O_5 
REMARK    6  A    between atoms: P_6  and  O_9 
REMARK    7  A    between atoms: O_9  and  P_10 
REMARK    8  A    between atoms: C_14  and  C_15 
REMARK    9  A    between atoms: C_15  and  C_16 
ROOT
HETATM    1  C   UNK N   1      34.856  14.011  11.672  0.00  0.00     0.211 C 
ENDROOT
BRANCH   1   2
HETATM    2  C   UNK N   1      35.951  14.568  12.591  0.00  0.00     0.298 C 
BRANCH   2   3
HETATM    3  N   UNK N   1      36.479  13.564  13.523  0.00  0.00     0.086 N 
HETATM    4  C   UNK N   1      37.046  12.446  12.771  0.00  0.00     0.310 C 
BRANCH   3   5
HETATM    5  C   UNK N   1      35.405  13.112  14.409  0.00  0.00     0.275 C 
BRANCH   5   6
HETATM    6  C   UNK N   1      35.773  13.310  15.873  0.00  0.00     0.057 C 
BRANCH   6   7
HETATM    7  C   UNK N   1      35.595  12.047  16.653  0.00  0.00    -0.023 C 
HETATM    8  C   UNK N   1      35.303  12.063  17.960  0.00  0.00    -0.091 C 
HETATM    9  C   UNK N   1      35.162  13.347  18.716  0.00  0.00     0.042 C 
HETATM   10  C   UNK N   1      35.126  10.776  18.685  0.00  0.00     0.042 C 
ENDBRANCH   6   7
ENDBRANCH   5   6
ENDBRANCH   3   5
ENDBRANCH   2   3
ENDBRANCH   1   2
BRANCH   1  11
HETATM   11  O   UNK N   1      33.991  15.032  11.260  0.00  0.00    -0.288 OA
BRANCH  11  12
HETATM   12  P   UNK N   1      33.772  14.853   9.532  0.00  0.00     0.418 P 
HETATM   13  O   UNK N   1      33.918  13.179   9.081  0.00  0.00    -0.624 OA
HETATM   14  O   UNK N   1      32.333  15.307   9.156  0.00  0.00    -0.624 OA
BRANCH  12  15
HETATM   15  O   UNK N   1      34.866  15.908   8.672  0.00  0.00    -0.173 OA
BRANCH  15  16
HETATM   16  P   UNK N   1      34.148  17.494   8.672  0.00  0.00     0.431 P 
HETATM   17  O   UNK N   1      34.965  18.839   7.942  0.00  0.00    -0.616 OA
HETATM   18  O   UNK N   1      34.743  17.094   7.089  0.00  0.00    -0.616 OA
HETATM   19  O   UNK N   1      35.348  17.696   9.634  0.00  0.00    -0.616 OA
ENDBRANCH  15  16
ENDBRANCH  12  15
ENDBRANCH  11  12
ENDBRANCH   1  11
TORSDOF 9
ENDMDL
MODEL 2
REMARK VINA RESULT:      -5.6      1.026      1.546
REMARK  9 active torsions:
REMARK  status: ('A' for Active; 'I' for Inactive)
REMARK    1  A    between atoms: N_2  and  C_3 
REMARK    2  A    between atoms: N_2  and  C_14 
REMARK    3  A    between atoms: C_3  and  C_4 
REMARK    4  A    between atoms: C_4  and  O_5 
REMARK    5  A    between atoms: P_6  and  O_5 
REMARK    6  A    between atoms: P_6  and  O_9 
REMARK    7  A    between atoms: O_9  and  P_10 
REMARK    8  A    between atoms: C_14  and  C_15 
REMARK    9  A    between atoms: C_15  and  C_16 
ROOT
HETATM    1  C   UNK N   1      35.005  13.945  11.532  0.00  0.00     0.211 C 
ENDROOT
BRANCH   1   2
HETATM    2  C   UNK N   1      35.854  14.225  12.779  0.00  0.00     0.298 C 
BRANCH   2   3
HETATM    3  N   UNK N   1      36.426  13.007  13.365  0.00  0.00     0.086 N 
HETATM    4  C   UNK N   1      35.546  11.871  13.095  0.00  0.00     0.310 C 
BRANCH   3   5
HETATM    5  C   UNK N   1      36.608  13.200  14.805  0.00  0.00     0.275 C 
BRANCH   5   6
HETATM    6  C   UNK N   1      35.595  12.393  15.606  0.00  0.00     0.057 C 
BRANCH   6   7
HETATM    7  C   UNK N   1      35.406  12.964  16.975  0.00  0.00    -0.023 C 
HETATM    8  C   UNK N   1      35.276  12.179  18.052  0.00  0.00    -0.091 C 
HETATM    9  C   UNK N   1      35.289  10.686  17.940  0.00  0.00     0.042 C 
HETATM   10  C   UNK N   1      35.102  12.801  19.392  0.00  0.00     0.042 C 
ENDBRANCH   6   7
ENDBRANCH   5   6
ENDBRANCH   3   5
ENDBRANCH   2   3
ENDBRANCH   1   2
BRANCH   1  11
HETATM   11  O   UNK N   1      34.000  14.908  11.391  0.00  0.00    -0.288 OA
BRANCH  11  12
HETATM   12  P   UNK N   1      33.904  15.306   9.689  0.00  0.00     0.418 P 
HETATM   13  O   UNK N   1      35.386  14.867   8.888  0.00  0.00    -0.624 OA
HETATM   14  O   UNK N   1      32.764  14.473   9.039  0.00  0.00    -0.624 OA
BRANCH  12  15
HETATM   15  O   UNK N   1      33.470  16.986   9.484  0.00  0.00    -0.173 OA
BRANCH  15  16
HETATM   16  P   UNK N   1      34.518  17.635   8.256  0.00  0.00     0.431 P 
HETATM   17  O   UNK N   1      35.242  19.201   8.442  0.00  0.00    -0.616 OA
HETATM   18  O   UNK N   1      35.233  17.822   9.828  0.00  0.00    -0.616 OA
HETATM   19  O   UNK N   1      33.286  18.570   8.139  0.00  0.00    -0.616 OA
ENDBRANCH  15  16
ENDBRANCH  12  15
ENDBRANCH  11  12
ENDBRANCH   1  11
TORSDOF 9
ENDMDL
MODEL 3
REMARK VINA RESULT:      -5.5      7.364     10.296
REMARK  9 active torsions:
REMARK  status: ('A' for Active; 'I' for Inactive)
REMARK    1  A    between atoms: N_2  and  C_3 
REMARK    2  A    between atoms: N_2  and  C_14 
REMARK    3  A    between atoms: C_3  and  C_4 
REMARK    4  A    between atoms: C_4  and  O_5 
REMARK    5  A    between atoms: P_6  and  O_5 
REMARK    6  A    between atoms: P_6  and  O_9 
REMARK    7  A    between atoms: O_9  and  P_10 
REMARK    8  A    between atoms: C_14  and  C_15 
REMARK    9  A    between atoms: C_15  and  C_16 
ROOT
HETATM    1  C   UNK N   1      31.916  17.076   8.322  0.00  0.00     0.211 C 
ENDROOT
BRANCH   1   2
HETATM    2  C   UNK N   1      31.071  16.906   7.053  0.00  0.00     0.298 C 
BRANCH   2   3
HETATM    3  N   UNK N   1      29.880  17.764   7.040  0.00  0.00     0.086 N 
HETATM    4  C   UNK N   1      29.020  17.426   8.173  0.00  0.00     0.310 C 
BRANCH   3   5
HETATM    5  C   UNK N   1      29.171  17.591   5.771  0.00  0.00     0.275 C 
BRANCH   5   6
HETATM    6  C   UNK N   1      27.696  17.946   5.907  0.00  0.00     0.057 C 
BRANCH   6   7
HETATM    7  C   UNK N   1      27.172  18.578   4.657  0.00  0.00    -0.023 C 
HETATM    8  C   UNK N   1      27.009  19.903   4.556  0.00  0.00    -0.091 C 
HETATM    9  C   UNK N   1      27.319  20.821   5.697  0.00  0.00     0.042 C 
HETATM   10  C   UNK N   1      26.494  20.480   3.284  0.00  0.00     0.042 C 
ENDBRANCH   6   7
ENDBRANCH   5   6
ENDBRANCH   3   5
ENDBRANCH   2   3
ENDBRANCH   1   2
BRANCH   1  11
HETATM   11  O   UNK N   1      32.671  18.253   8.259  0.00  0.00    -0.288 OA
BRANCH  11  12
HETATM   12  P   UNK N   1      34.350  17.797   8.457  0.00  0.00     0.418 P 
HETATM   13  O   UNK N   1      34.844  16.755   7.154  0.00  0.00    -0.624 OA
HETATM   14  O   UNK N   1      35.232  19.076   8.384  0.00  0.00    -0.624 OA
BRANCH  12  15
HETATM   15  O   UNK N   1      34.606  17.107  10.041  0.00  0.00    -0.173 OA
BRANCH  15  16
HETATM   16  P   UNK N   1      35.499  15.630   9.812  0.00  0.00     0.431 P 
HETATM   17  O   UNK N   1      35.758  14.536  11.133  0.00  0.00    -0.616 OA
HETATM   18  O   UNK N   1      34.028  15.324  10.684  0.00  0.00    -0.616 OA
HETATM   19  O   UNK N   1      36.467  16.443  10.712  0.00  0.00    -0.616 OA
ENDBRANCH  15  16
ENDBRANCH  12  15
ENDBRANCH  11  12
ENDBRANCH   1  11
TORSDOF 9
ENDMDL
MODEL 4
REMARK VINA RESULT:      -5.5      8.735     11.147
REMARK  9 active torsions:
REMARK  status: ('A' for Active; 'I' for Inactive)
REMARK    1  A    between atoms: N_2  and  C_3 
REMARK    2  A    between atoms: N_2  and  C_14 
REMARK    3  A    between atoms: C_3  and  C_4 
REMARK    4  A    between atoms: C_4  and  O_5 
REMARK    5  A    between atoms: P_6  and  O_5 
REMARK    6  A    between atoms: P_6  and  O_9 
REMARK    7  A    between atoms: O_9  and  P_10 
REMARK    8  A    between atoms: C_14  and  C_15 
REMARK    9  A    between atoms: C_15  and  C_16 
ROOT
HETATM    1  C   UNK N   1      30.397  15.946   5.587  0.00  0.00     0.211 C 
ENDROOT
BRANCH   1   2
HETATM    2  C   UNK N   1      28.996  16.534   5.799  0.00  0.00     0.298 C 
BRANCH   2   3
HETATM    3  N   UNK N   1      29.009  17.991   5.980  0.00  0.00     0.086 N 
HETATM    4  C   UNK N   1      28.129  18.356   7.089  0.00  0.00     0.310 C 
BRANCH   3   5
HETATM    5  C   UNK N   1      28.586  18.639   4.737  0.00  0.00     0.275 C 
BRANCH   5   6
HETATM    6  C   UNK N   1      27.828  19.930   5.015  0.00  0.00     0.057 C 
BRANCH   6   7
HETATM    7  C   UNK N   1      27.002  20.339   3.837  0.00  0.00    -0.023 C 
HETATM    8  C   UNK N   1      25.699  20.042   3.755  0.00  0.00    -0.091 C 
HETATM    9  C   UNK N   1      25.003  19.263   4.828  0.00  0.00     0.042 C 
HETATM   10  C   UNK N   1      24.923  20.483   2.565  0.00  0.00     0.042 C 
ENDBRANCH   6   7
ENDBRANCH   5   6
ENDBRANCH   3   5
ENDBRANCH   2   3
ENDBRANCH   1   2
BRANCH   1  11
HETATM   11  O   UNK N   1      31.375  16.802   6.107  0.00  0.00    -0.288 OA
BRANCH  11  12
HETATM   12  P   UNK N   1      31.997  16.049   7.560  0.00  0.00     0.418 P 
HETATM   13  O   UNK N   1      30.980  16.438   8.917  0.00  0.00    -0.624 OA
HETATM   14  O   UNK N   1      31.960  14.505   7.384  0.00  0.00    -0.624 OA
BRANCH  12  15
HETATM   15  O   UNK N   1      33.674  16.482   7.795  0.00  0.00    -0.173 OA
BRANCH  15  16
HETATM   16  P   UNK N   1      33.703  18.156   8.272  0.00  0.00     0.431 P 
HETATM   17  O   UNK N   1      35.196  19.038   8.326  0.00  0.00    -0.616 OA
HETATM   18  O   UNK N   1      34.636  17.918   6.826  0.00  0.00    -0.616 OA
HETATM   19  O   UNK N   1      34.427  17.480   9.465  0.00  0.00    -0.616 OA
ENDBRANCH  15  16
ENDBRANCH  12  15
ENDBRANCH  11  12
ENDBRANCH   1  11
TORSDOF 9
ENDMDL
MODEL 5
REMARK VINA RESULT:      -5.5      1.931      3.225
REMARK  9 active torsions:
REMARK  status: ('A' for Active; 'I' for Inactive)
REMARK    1  A    between atoms: N_2  and  C_3 
REMARK    2  A    between atoms: N_2  and  C_14 
REMARK    3  A    between atoms: C_3  and  C_4 
REMARK    4  A    between atoms: C_4  and  O_5 
REMARK    5  A    between atoms: P_6  and  O_5 
REMARK    6  A    between atoms: P_6  and  O_9 
REMARK    7  A    between atoms: O_9  and  P_10 
REMARK    8  A    between atoms: C_14  and  C_15 
REMARK    9  A    between atoms: C_15  and  C_16 
ROOT
HETATM    1  C   UNK N   1      35.176  15.760   9.691  0.00  0.00     0.211 C 
ENDROOT
BRANCH   1   2
HETATM    2  C   UNK N   1      36.351  15.245  10.532  0.00  0.00     0.298 C 
BRANCH   2   3
HETATM    3  N   UNK N   1      36.084  13.939  11.147  0.00  0.00     0.086 N 
HETATM    4  C   UNK N   1      35.006  13.267  10.423  0.00  0.00     0.310 C 
BRANCH   3   5
HETATM    5  C   UNK N   1      35.734  14.128  12.555  0.00  0.00     0.275 C 
BRANCH   5   6
HETATM    6  C   UNK N   1      36.552  13.216  13.459  0.00  0.00     0.057 C 
BRANCH   6   7
HETATM    7  C   UNK N   1      35.848  12.958  14.752  0.00  0.00    -0.023 C 
HETATM    8  C   UNK N   1      36.101  13.685  15.848  0.00  0.00    -0.091 C 
HETATM    9  C   UNK N   1      37.121  14.781  15.843  0.00  0.00     0.042 C 
HETATM   10  C   UNK N   1      35.362  13.392  17.105  0.00  0.00     0.042 C 
ENDBRANCH   6   7
ENDBRANCH   5   6
ENDBRANCH   3   5
ENDBRANCH   2   3
ENDBRANCH   1   2
BRANCH   1  11
HETATM   11  O   UNK N   1      34.925  17.108   9.967  0.00  0.00    -0.288 OA
BRANCH  11  12
HETATM   12  P   UNK N   1      34.354  17.840   8.483  0.00  0.00     0.418 P 
HETATM   13  O   UNK N   1      32.633  18.091   8.563  0.00  0.00    -0.624 OA
HETATM   14  O   UNK N   1      35.016  19.238   8.321  0.00  0.00    -0.624 OA
BRANCH  12  15
HETATM   15  O   UNK N   1      34.858  16.889   7.107  0.00  0.00    -0.173 OA
BRANCH  15  16
HETATM   16  P   UNK N   1      33.439  16.600   6.142  0.00  0.00     0.431 P 
HETATM   17  O   UNK N   1      33.578  16.126   4.479  0.00  0.00    -0.616 OA
HETATM   18  O   UNK N   1      34.586  15.310   5.941  0.00  0.00    -0.616 OA
HETATM   19  O   UNK N   1      34.001  17.890   5.490  0.00  0.00    -0.616 OA
ENDBRANCH  15  16
ENDBRANCH  12  15
ENDBRANCH  11  12
ENDBRANCH   1  11
TORSDOF 9
ENDMDL
MODEL 6
REMARK VINA RESULT:      -5.4      8.633     10.614
REMARK  9 active torsions:
REMARK  status: ('A' for Active; 'I' for Inactive)
REMARK    1  A    between atoms: N_2  and  C_3 
REMARK    2  A    between atoms: N_2  and  C_14 
REMARK    3  A    between atoms: C_3  and  C_4 
REMARK    4  A    between atoms: C_4  and  O_5 
REMARK    5  A    between atoms: P_6  and  O_5 
REMARK    6  A    between atoms: P_6  and  O_9 
REMARK    7  A    between atoms: O_9  and  P_10 
REMARK    8  A    between atoms: C_14  and  C_15 
REMARK    9  A    between atoms: C_15  and  C_16 
ROOT
HETATM    1  C   UNK N   1      31.060  16.967   5.906  0.00  0.00     0.211 C 
ENDROOT
BRANCH   1   2
HETATM    2  C   UNK N   1      30.468  15.891   4.987  0.00  0.00     0.298 C 
BRANCH   2   3
HETATM    3  N   UNK N   1      29.038  16.091   4.721  0.00  0.00     0.086 N 
HETATM    4  C   UNK N   1      28.822  16.241   3.283  0.00  0.00     0.310 C 
BRANCH   3   5
HETATM    5  C   UNK N   1      28.569  17.272   5.450  0.00  0.00     0.275 C 
BRANCH   5   6
HETATM    6  C   UNK N   1      28.162  18.387   4.497  0.00  0.00     0.057 C 
BRANCH   6   7
HETATM    7  C   UNK N   1      28.106  19.707   5.197  0.00  0.00    -0.023 C 
HETATM    8  C   UNK N   1      26.947  20.342   5.408  0.00  0.00    -0.091 C 
HETATM    9  C   UNK N   1      25.644  19.776   4.934  0.00  0.00     0.042 C 
HETATM   10  C   UNK N   1      26.949  21.648   6.121  0.00  0.00     0.042 C 
ENDBRANCH   6   7
ENDBRANCH   5   6
ENDBRANCH   3   5
ENDBRANCH   2   3
ENDBRANCH   1   2
BRANCH   1  11
HETATM   11  O   UNK N   1      32.166  16.467   6.604  0.00  0.00    -0.288 OA
BRANCH  11  12
HETATM   12  P   UNK N   1      33.597  16.984   5.738  0.00  0.00     0.418 P 
HETATM   13  O   UNK N   1      34.386  15.611   5.015  0.00  0.00    -0.624 OA
HETATM   14  O   UNK N   1      33.172  17.933   4.581  0.00  0.00    -0.624 OA
BRANCH  12  15
HETATM   15  O   UNK N   1      34.636  17.915   6.789  0.00  0.00    -0.173 OA
BRANCH  15  16
HETATM   16  P   UNK N   1      34.098  17.627   8.419  0.00  0.00     0.431 P 
HETATM   17  O   UNK N   1      35.207  17.727   9.750  0.00  0.00    -0.616 OA
HETATM   18  O   UNK N   1      35.060  19.072   8.340  0.00  0.00    -0.616 OA
HETATM   19  O   UNK N   1      35.006  16.394   8.168  0.00  0.00    -0.616 OA
ENDBRANCH  15  16
ENDBRANCH  12  15
ENDBRANCH  11  12
ENDBRANCH   1  11
TORSDOF 9
ENDMDL
MODEL 7
REMARK VINA RESULT:      -5.3      7.475     10.378
REMARK  9 active torsions:
REMARK  status: ('A' for Active; 'I' for Inactive)
REMARK    1  A    between atoms: N_2  and  C_3 
REMARK    2  A    between atoms: N_2  and  C_14 
REMARK    3  A    between atoms: C_3  and  C_4 
REMARK    4  A    between atoms: C_4  and  O_5 
REMARK    5  A    between atoms: P_6  and  O_5 
REMARK    6  A    between atoms: P_6  and  O_9 
REMARK    7  A    between atoms: O_9  and  P_10 
REMARK    8  A    between atoms: C_14  and  C_15 
REMARK    9  A    between atoms: C_15  and  C_16 
ROOT
HETATM    1  C   UNK N   1      31.516  17.523   8.677  0.00  0.00     0.211 C 
ENDROOT
BRANCH   1   2
HETATM    2  C   UNK N   1      30.363  17.539   7.665  0.00  0.00     0.298 C 
BRANCH   2   3
HETATM    3  N   UNK N   1      29.279  18.451   8.049  0.00  0.00     0.086 N 
HETATM    4  C   UNK N   1      28.875  18.180   9.428  0.00  0.00     0.310 C 
BRANCH   3   5
HETATM    5  C   UNK N   1      28.153  18.282   7.129  0.00  0.00     0.275 C 
BRANCH   5   6
HETATM    6  C   UNK N   1      28.618  18.279   5.678  0.00  0.00     0.057 C 
BRANCH   6   7
HETATM    7  C   UNK N   1      28.040  19.430   4.920  0.00  0.00    -0.023 C 
HETATM    8  C   UNK N   1      27.024  19.268   4.063  0.00  0.00    -0.091 C 
HETATM    9  C   UNK N   1      26.427  17.920   3.800  0.00  0.00     0.042 C 
HETATM   10  C   UNK N   1      26.479  20.451   3.343  0.00  0.00     0.042 C 
ENDBRANCH   6   7
ENDBRANCH   5   6
ENDBRANCH   3   5
ENDBRANCH   2   3
ENDBRANCH   1   2
BRANCH   1  11
HETATM   11  O   UNK N   1      32.513  18.433   8.304  0.00  0.00    -0.288 OA
BRANCH  11  12
HETATM   12  P   UNK N   1      34.011  17.535   8.186  0.00  0.00     0.418 P 
HETATM   13  O   UNK N   1      35.178  18.170   9.310  0.00  0.00    -0.624 OA
HETATM   14  O   UNK N   1      33.745  16.055   8.585  0.00  0.00    -0.624 OA
BRANCH  12  15
HETATM   15  O   UNK N   1      34.573  17.510   6.532  0.00  0.00    -0.173 OA
BRANCH  15  16
HETATM   16  P   UNK N   1      33.475  16.497   5.638  0.00  0.00     0.431 P 
HETATM   17  O   UNK N   1      33.881  15.936   4.048  0.00  0.00    -0.616 OA
HETATM   18  O   UNK N   1      35.086  15.848   5.584  0.00  0.00    -0.616 OA
HETATM   19  O   UNK N   1      33.426  17.812   4.816  0.00  0.00    -0.616 OA
ENDBRANCH  15  16
ENDBRANCH  12  15
ENDBRANCH  11  12
ENDBRANCH   1  11
TORSDOF 9
ENDMDL
MODEL 8
REMARK VINA RESULT:      -5.3      1.790      2.409
REMARK  9 active torsions:
REMARK  status: ('A' for Active; 'I' for Inactive)
REMARK    1  A    between atoms: N_2  and  C_3 
REMARK    2  A    between atoms: N_2  and  C_14 
REMARK    3  A    between atoms: C_3  and  C_4 
REMARK    4  A    between atoms: C_4  and  O_5 
REMARK    5  A    between atoms: P_6  and  O_5 
REMARK    6  A    between atoms: P_6  and  O_9 
REMARK    7  A    between atoms: O_9  and  P_10 
REMARK    8  A    between atoms: C_14  and  C_15 
REMARK    9  A    between atoms: C_15  and  C_16 
ROOT
HETATM    1  C   UNK N   1      34.855  12.559  13.164  0.00  0.00     0.211 C 
ENDROOT
BRANCH   1   2
HETATM    2  C   UNK N   1      34.882  13.001  14.633  0.00  0.00     0.298 C 
BRANCH   2   3
HETATM    3  N   UNK N   1      36.203  13.475  15.063  0.00  0.00     0.086 N 
HETATM    4  C   UNK N   1      37.187  12.407  14.890  0.00  0.00     0.310 C 
BRANCH   3   5
HETATM    5  C   UNK N   1      36.134  13.905  16.460  0.00  0.00     0.275 C 
BRANCH   5   6
HETATM    6  C   UNK N   1      34.906  13.334  17.157  0.00  0.00     0.057 C 
BRANCH   6   7
HETATM    7  C   UNK N   1      35.258  12.749  18.486  0.00  0.00    -0.023 C 
HETATM    8  C   UNK N   1      35.355  11.426  18.669  0.00  0.00    -0.091 C 
HETATM    9  C   UNK N   1      35.092  10.460  17.556  0.00  0.00     0.042 C 
HETATM   10  C   UNK N   1      35.720  10.898  20.011  0.00  0.00     0.042 C 
ENDBRANCH   6   7
ENDBRANCH   5   6
ENDBRANCH   3   5
ENDBRANCH   2   3
ENDBRANCH   1   2
BRANCH   1  11
HETATM   11  O   UNK N   1      34.671  13.661  12.320  0.00  0.00    -0.288 OA
BRANCH  11  12
HETATM   12  P   UNK N   1      35.383  13.248  10.774  0.00  0.00     0.418 P 
HETATM   13  O   UNK N   1      36.806  12.275  11.012  0.00  0.00    -0.624 OA
HETATM   14  O   UNK N   1      34.369  12.392   9.964  0.00  0.00    -0.624 OA
BRANCH  12  15
HETATM   15  O   UNK N   1      35.673  14.694   9.837  0.00  0.00    -0.173 OA
BRANCH  15  16
HETATM   16  P   UNK N   1      35.311  16.048  10.869  0.00  0.00     0.431 P 
HETATM   17  O   UNK N   1      35.503  17.675  10.298  0.00  0.00    -0.616 OA
HETATM   18  O   UNK N   1      34.588  16.264   9.304  0.00  0.00    -0.616 OA
HETATM   19  O   UNK N   1      36.853  16.159  10.739  0.00  0.00    -0.616 OA
ENDBRANCH  15  16
ENDBRANCH  12  15
ENDBRANCH  11  12
ENDBRANCH   1  11
TORSDOF 9
ENDMDL
MODEL 9
REMARK VINA RESULT:      -5.3     13.943     15.338
REMARK  9 active torsions:
REMARK  status: ('A' for Active; 'I' for Inactive)
REMARK    1  A    between atoms: N_2  and  C_3 
REMARK    2  A    between atoms: N_2  and  C_14 
REMARK    3  A    between atoms: C_3  and  C_4 
REMARK    4  A    between atoms: C_4  and  O_5 
REMARK    5  A    between atoms: P_6  and  O_5 
REMARK    6  A    between atoms: P_6  and  O_9 
REMARK    7  A    between atoms: O_9  and  P_10 
REMARK    8  A    between atoms: C_14  and  C_15 
REMARK    9  A    between atoms: C_15  and  C_16 
ROOT
HETATM    1  C   UNK N   1      21.686  17.049   6.334  0.00  0.00     0.211 C 
ENDROOT
BRANCH   1   2
HETATM    2  C   UNK N   1      20.619  17.470   7.352  0.00  0.00     0.298 C 
BRANCH   2   3
HETATM    3  N   UNK N   1      19.902  16.328   7.933  0.00  0.00     0.086 N 
HETATM    4  C   UNK N   1      18.633  16.781   8.499  0.00  0.00     0.310 C 
BRANCH   3   5
HETATM    5  C   UNK N   1      20.740  15.699   8.956  0.00  0.00     0.275 C 
BRANCH   5   6
HETATM    6  C   UNK N   1      20.780  14.186   8.788  0.00  0.00     0.057 C 
BRANCH   6   7
HETATM    7  C   UNK N   1      21.954  13.592   9.498  0.00  0.00    -0.023 C 
HETATM    8  C   UNK N   1      21.801  12.784  10.554  0.00  0.00    -0.091 C 
HETATM    9  C   UNK N   1      20.447  12.450  11.097  0.00  0.00     0.042 C 
HETATM   10  C   UNK N   1      23.005  12.211  11.216  0.00  0.00     0.042 C 
ENDBRANCH   6   7
ENDBRANCH   5   6
ENDBRANCH   3   5
ENDBRANCH   2   3
ENDBRANCH   1   2
BRANCH   1  11
HETATM   11  O   UNK N   1      22.523  18.127   6.021  0.00  0.00    -0.288 OA
BRANCH  11  12
HETATM   12  P   UNK N   1      22.405  18.384   4.293  0.00  0.00     0.418 P 
HETATM   13  O   UNK N   1      23.995  18.457   3.590  0.00  0.00    -0.624 OA
HETATM   14  O   UNK N   1      21.672  17.172   3.651  0.00  0.00    -0.624 OA
BRANCH  12  15
HETATM   15  O   UNK N   1      21.426  19.792   3.957  0.00  0.00    -0.173 OA
BRANCH  15  16
HETATM   16  P   UNK N   1      21.267  19.897   2.227  0.00  0.00     0.431 P 
HETATM   17  O   UNK N   1      20.746  21.369   1.471  0.00  0.00    -0.616 OA
HETATM   18  O   UNK N   1      22.133  21.270   2.844  0.00  0.00    -0.616 OA
HETATM   19  O   UNK N   1      19.786  19.980   2.681  0.00  0.00    -0.616 OA
ENDBRANCH  15  16
ENDBRANCH  12  15
ENDBRANCH  11  12
ENDBRANCH   1  11
TORSDOF 9
ENDMDL
