MODEL 1
REMARK VINA RESULT:      -5.3      0.000      0.000
REMARK  4 active torsions:
REMARK  status: ('A' for Active; 'I' for Inactive)
REMARK    1  A    between atoms: O_1  and  C_2 
REMARK    2  A    between atoms: C_2  and  C_4 
REMARK    3  A    between atoms: C_4  and  C_5 
REMARK    4  A    between atoms: C_5  and  C_6 
ROOT
HETATM    1  C   UNK N   1      30.719  17.521   7.998  0.00  0.00    -0.058 A 
HETATM    2  C   UNK N   1      30.534  18.246   9.179  0.00  0.00     0.007 A 
HETATM    3  C   UNK N   1      29.245  18.543   9.627  0.00  0.00     0.001 A 
HETATM    4  C   UNK N   1      28.134  18.116   8.894  0.00  0.00     0.000 A 
HETATM    5  C   UNK N   1      28.311  17.391   7.712  0.00  0.00     0.001 A 
HETATM    6  C   UNK N   1      29.601  17.093   7.264  0.00  0.00     0.007 A 
ENDROOT
BRANCH   1   7
HETATM    7  C   UNK N   1      32.118  17.227   7.557  0.00  0.00     0.049 C 
BRANCH   7   8
HETATM    8  C   UNK N   1      33.189  17.697   8.536  0.00  0.00     0.114 C 
BRANCH   8   9
HETATM    9  C   UNK N   1      34.375  18.277   7.827  0.00  0.00     0.139 C 
HETATM   10  O   UNK N   1      34.610  17.996   6.662  0.00  0.00    -0.650 OA
BRANCH   9  11
HETATM   11  O   UNK N   1      35.191  19.117   8.487  0.00  0.00    -0.776 OA
HETATM   12  H   UNK N   1      35.046  19.294   9.396  0.00  0.00     0.167 HD
ENDBRANCH   9  11
ENDBRANCH   8   9
ENDBRANCH   7   8
ENDBRANCH   1   7
TORSDOF 4
ENDMDL
MODEL 2
REMARK VINA RESULT:      -5.2      0.151      1.467
REMARK  4 active torsions:
REMARK  status: ('A' for Active; 'I' for Inactive)
REMARK    1  A    between atoms: O_1  and  C_2 
REMARK    2  A    between atoms: C_2  and  C_4 
REMARK    3  A    between atoms: C_4  and  C_5 
REMARK    4  A    between atoms: C_5  and  C_6 
ROOT
HETATM    1  C   UNK N   1      30.787  17.503   8.010  0.00  0.00    -0.058 A 
HETATM    2  C   UNK N   1      29.722  17.077   7.212  0.00  0.00     0.007 A 
HETATM    3  C   UNK N   1      28.413  17.445   7.530  0.00  0.00     0.001 A 
HETATM    4  C   UNK N   1      28.164  18.243   8.651  0.00  0.00     0.000 A 
HETATM    5  C   UNK N   1      29.224  18.674   9.454  0.00  0.00     0.001 A 
HETATM    6  C   UNK N   1      30.534  18.305   9.135  0.00  0.00     0.007 A 
ENDROOT
BRANCH   1   7
HETATM    7  C   UNK N   1      32.172  17.084   7.630  0.00  0.00     0.049 C 
BRANCH   7   8
HETATM    8  C   UNK N   1      33.256  17.595   8.573  0.00  0.00     0.114 C 
BRANCH   8   9
HETATM    9  C   UNK N   1      34.377  18.253   7.828  0.00  0.00     0.139 C 
HETATM   10  O   UNK N   1      34.555  18.036   6.639  0.00  0.00    -0.650 OA
BRANCH   9  11
HETATM   11  O   UNK N   1      35.198  19.095   8.481  0.00  0.00    -0.776 OA
HETATM   12  H   UNK N   1      35.565  18.844   9.305  0.00  0.00     0.167 HD
ENDBRANCH   9  11
ENDBRANCH   8   9
ENDBRANCH   7   8
ENDBRANCH   1   7
TORSDOF 4
ENDMDL
MODEL 3
REMARK VINA RESULT:      -5.0     10.403     11.432
REMARK  4 active torsions:
REMARK  status: ('A' for Active; 'I' for Inactive)
REMARK    1  A    between atoms: O_1  and  C_2 
REMARK    2  A    between atoms: C_2  and  C_4 
REMARK    3  A    between atoms: C_4  and  C_5 
REMARK    4  A    between atoms: C_5  and  C_6 
ROOT
HETATM    1  C   UNK N   1      35.231  12.396  17.243  0.00  0.00    -0.058 A 
HETATM    2  C   UNK N   1      35.179  13.298  18.310  0.00  0.00     0.007 A 
HETATM    3  C   UNK N   1      35.197  12.833  19.626  0.00  0.00     0.001 A 
HETATM    4  C   UNK N   1      35.267  11.460  19.881  0.00  0.00     0.000 A 
HETATM    5  C   UNK N   1      35.319  10.552  18.820  0.00  0.00     0.001 A 
HETATM    6  C   UNK N   1      35.301  11.018  17.503  0.00  0.00     0.007 A 
ENDROOT
BRANCH   1   7
HETATM    7  C   UNK N   1      35.209  12.942  15.850  0.00  0.00     0.049 C 
BRANCH   7   8
HETATM    8  C   UNK N   1      36.587  13.055  15.206  0.00  0.00     0.114 C 
BRANCH   8   9
HETATM    9  C   UNK N   1      37.009  14.483  15.040  0.00  0.00     0.139 C 
HETATM   10  O   UNK N   1      37.575  15.080  15.942  0.00  0.00    -0.650 OA
BRANCH   9  11
HETATM   11  O   UNK N   1      36.758  15.113  13.878  0.00  0.00    -0.776 OA
HETATM   12  H   UNK N   1      35.942  15.556  13.753  0.00  0.00     0.167 HD
ENDBRANCH   9  11
ENDBRANCH   8   9
ENDBRANCH   7   8
ENDBRANCH   1   7
TORSDOF 4
ENDMDL
MODEL 4
REMARK VINA RESULT:      -5.0     10.114     11.215
REMARK  4 active torsions:
REMARK  status: ('A' for Active; 'I' for Inactive)
REMARK    1  A    between atoms: O_1  and  C_2 
REMARK    2  A    between atoms: C_2  and  C_4 
REMARK    3  A    between atoms: C_4  and  C_5 
REMARK    4  A    between atoms: C_5  and  C_6 
ROOT
HETATM    1  C   UNK N   1      35.193  12.501  17.172  0.00  0.00    -0.058 A 
HETATM    2  C   UNK N   1      35.555  11.154  17.270  0.00  0.00     0.007 A 
HETATM    3  C   UNK N   1      35.803  10.582  18.520  0.00  0.00     0.001 A 
HETATM    4  C   UNK N   1      35.689  11.356  19.678  0.00  0.00     0.000 A 
HETATM    5  C   UNK N   1      35.327  12.703  19.588  0.00  0.00     0.001 A 
HETATM    6  C   UNK N   1      35.079  13.276  18.338  0.00  0.00     0.007 A 
ENDROOT
BRANCH   1   7
HETATM    7  C   UNK N   1      34.937  13.070  15.812  0.00  0.00     0.049 C 
BRANCH   7   8
HETATM    8  C   UNK N   1      36.193  13.554  15.096  0.00  0.00     0.114 C 
BRANCH   8   9
HETATM    9  C   UNK N   1      35.965  13.727  13.625  0.00  0.00     0.139 C 
HETATM   10  O   UNK N   1      34.839  13.680  13.154  0.00  0.00    -0.650 OA
BRANCH   9  11
HETATM   11  O   UNK N   1      37.017  13.936  12.815  0.00  0.00    -0.776 OA
HETATM   12  H   UNK N   1      37.362  14.801  12.709  0.00  0.00     0.167 HD
ENDBRANCH   9  11
ENDBRANCH   8   9
ENDBRANCH   7   8
ENDBRANCH   1   7
TORSDOF 4
ENDMDL
MODEL 5
REMARK VINA RESULT:      -4.8     10.667     11.799
REMARK  4 active torsions:
REMARK  status: ('A' for Active; 'I' for Inactive)
REMARK    1  A    between atoms: O_1  and  C_2 
REMARK    2  A    between atoms: C_2  and  C_4 
REMARK    3  A    between atoms: C_4  and  C_5 
REMARK    4  A    between atoms: C_5  and  C_6 
ROOT
HETATM    1  C   UNK N   1      35.316  13.245  18.085  0.00  0.00    -0.058 A 
HETATM    2  C   UNK N   1      35.304  12.307  17.049  0.00  0.00     0.007 A 
HETATM    3  C   UNK N   1      35.262  10.941  17.338  0.00  0.00     0.001 A 
HETATM    4  C   UNK N   1      35.230  10.507  18.666  0.00  0.00     0.000 A 
HETATM    5  C   UNK N   1      35.241  11.440  19.708  0.00  0.00     0.001 A 
HETATM    6  C   UNK N   1      35.284  12.806  19.419  0.00  0.00     0.007 A 
ENDROOT
BRANCH   1   7
HETATM    7  C   UNK N   1      35.362  14.697  17.728  0.00  0.00     0.049 C 
BRANCH   7   8
HETATM    8  C   UNK N   1      36.760  15.304  17.776  0.00  0.00     0.114 C 
BRANCH   8   9
HETATM    9  C   UNK N   1      37.285  15.604  16.405  0.00  0.00     0.139 C 
HETATM   10  O   UNK N   1      37.458  16.756  16.037  0.00  0.00    -0.650 OA
BRANCH   9  11
HETATM   11  O   UNK N   1      37.568  14.588  15.572  0.00  0.00    -0.776 OA
HETATM   12  H   UNK N   1      36.986  14.384  14.867  0.00  0.00     0.167 HD
ENDBRANCH   9  11
ENDBRANCH   8   9
ENDBRANCH   7   8
ENDBRANCH   1   7
TORSDOF 4
ENDMDL
MODEL 6
REMARK VINA RESULT:      -4.8      3.494      4.635
REMARK  4 active torsions:
REMARK  status: ('A' for Active; 'I' for Inactive)
REMARK    1  A    between atoms: O_1  and  C_2 
REMARK    2  A    between atoms: C_2  and  C_4 
REMARK    3  A    between atoms: C_4  and  C_5 
REMARK    4  A    between atoms: C_5  and  C_6 
ROOT
HETATM    1  C   UNK N   1      33.610  16.592   5.386  0.00  0.00    -0.058 A 
HETATM    2  C   UNK N   1      32.694  17.579   5.012  0.00  0.00     0.007 A 
HETATM    3  C   UNK N   1      32.143  17.577   3.729  0.00  0.00     0.001 A 
HETATM    4  C   UNK N   1      32.508  16.586   2.812  0.00  0.00     0.000 A 
HETATM    5  C   UNK N   1      33.424  15.596   3.179  0.00  0.00     0.001 A 
HETATM    6  C   UNK N   1      33.975  15.598   4.464  0.00  0.00     0.007 A 
ENDROOT
BRANCH   1   7
HETATM    7  C   UNK N   1      34.173  16.634   6.772  0.00  0.00     0.049 C 
BRANCH   7   8
HETATM    8  C   UNK N   1      33.768  17.869   7.569  0.00  0.00     0.114 C 
BRANCH   8   9
HETATM    9  C   UNK N   1      34.785  18.217   8.613  0.00  0.00     0.139 C 
HETATM   10  O   UNK N   1      35.058  17.435   9.510  0.00  0.00    -0.650 OA
BRANCH   9  11
HETATM   11  O   UNK N   1      35.405  19.409   8.558  0.00  0.00    -0.776 OA
HETATM   12  H   UNK N   1      34.903  20.200   8.590  0.00  0.00     0.167 HD
ENDBRANCH   9  11
ENDBRANCH   8   9
ENDBRANCH   7   8
ENDBRANCH   1   7
TORSDOF 4
ENDMDL
MODEL 7
REMARK VINA RESULT:      -4.8     10.473     11.857
REMARK  4 active torsions:
REMARK  status: ('A' for Active; 'I' for Inactive)
REMARK    1  A    between atoms: O_1  and  C_2 
REMARK    2  A    between atoms: C_2  and  C_4 
REMARK    3  A    between atoms: C_4  and  C_5 
REMARK    4  A    between atoms: C_5  and  C_6 
ROOT
HETATM    1  C   UNK N   1      21.297  13.548   9.942  0.00  0.00    -0.058 A 
HETATM    2  C   UNK N   1      20.882  12.667  10.945  0.00  0.00     0.007 A 
HETATM    3  C   UNK N   1      21.804  11.818  11.561  0.00  0.00     0.001 A 
HETATM    4  C   UNK N   1      23.148  11.847  11.176  0.00  0.00     0.000 A 
HETATM    5  C   UNK N   1      23.570  12.726  10.174  0.00  0.00     0.001 A 
HETATM    6  C   UNK N   1      22.647  13.576   9.558  0.00  0.00     0.007 A 
ENDROOT
BRANCH   1   7
HETATM    7  C   UNK N   1      20.274  14.439   9.311  0.00  0.00     0.049 C 
BRANCH   7   8
HETATM    8  C   UNK N   1      20.848  15.719   8.715  0.00  0.00     0.114 C 
BRANCH   8   9
HETATM    9  C   UNK N   1      19.818  16.804   8.627  0.00  0.00     0.139 C 
HETATM   10  O   UNK N   1      20.121  17.974   8.803  0.00  0.00    -0.650 OA
BRANCH   9  11
HETATM   11  O   UNK N   1      18.543  16.481   8.350  0.00  0.00    -0.776 OA
HETATM   12  H   UNK N   1      17.851  17.070   8.577  0.00  0.00     0.167 HD
ENDBRANCH   9  11
ENDBRANCH   8   9
ENDBRANCH   7   8
ENDBRANCH   1   7
TORSDOF 4
ENDMDL
MODEL 8
REMARK VINA RESULT:      -4.7     16.210     17.002
REMARK  4 active torsions:
REMARK  status: ('A' for Active; 'I' for Inactive)
REMARK    1  A    between atoms: O_1  and  C_2 
REMARK    2  A    between atoms: C_2  and  C_4 
REMARK    3  A    between atoms: C_4  and  C_5 
REMARK    4  A    between atoms: C_5  and  C_6 
ROOT
HETATM    1  C   UNK N   1      25.865  27.387  -5.339  0.00  0.00    -0.058 A 
HETATM    2  C   UNK N   1      25.598  28.135  -4.189  0.00  0.00     0.007 A 
HETATM    3  C   UNK N   1      26.306  29.311  -3.934  0.00  0.00     0.001 A 
HETATM    4  C   UNK N   1      27.287  29.745  -4.831  0.00  0.00     0.000 A 
HETATM    5  C   UNK N   1      27.560  29.003  -5.983  0.00  0.00     0.001 A 
HETATM    6  C   UNK N   1      26.851  27.825  -6.238  0.00  0.00     0.007 A 
ENDROOT
BRANCH   1   7
HETATM    7  C   UNK N   1      25.081  26.134  -5.570  0.00  0.00     0.049 C 
BRANCH   7   8
HETATM    8  C   UNK N   1      25.939  24.880  -5.695  0.00  0.00     0.114 C 
BRANCH   8   9
HETATM    9  C   UNK N   1      26.702  24.598  -4.437  0.00  0.00     0.139 C 
HETATM   10  O   UNK N   1      26.125  24.280  -3.408  0.00  0.00    -0.650 OA
BRANCH   9  11
HETATM   11  O   UNK N   1      28.043  24.699  -4.443  0.00  0.00    -0.776 OA
HETATM   12  H   UNK N   1      28.478  25.196  -3.780  0.00  0.00     0.167 HD
ENDBRANCH   9  11
ENDBRANCH   8   9
ENDBRANCH   7   8
ENDBRANCH   1   7
TORSDOF 4
ENDMDL
MODEL 9
REMARK VINA RESULT:      -4.6     16.512     17.460
REMARK  4 active torsions:
REMARK  status: ('A' for Active; 'I' for Inactive)
REMARK    1  A    between atoms: O_1  and  C_2 
REMARK    2  A    between atoms: C_2  and  C_4 
REMARK    3  A    between atoms: C_4  and  C_5 
REMARK    4  A    between atoms: C_5  and  C_6 
ROOT
HETATM    1  C   UNK N   1      25.789  25.085  -5.280  0.00  0.00    -0.058 A 
HETATM    2  C   UNK N   1      25.143  26.176  -5.869  0.00  0.00     0.007 A 
HETATM    3  C   UNK N   1      25.111  27.411  -5.216  0.00  0.00     0.001 A 
HETATM    4  C   UNK N   1      25.726  27.558  -3.969  0.00  0.00     0.000 A 
HETATM    5  C   UNK N   1      26.373  26.472  -3.374  0.00  0.00     0.001 A 
HETATM    6  C   UNK N   1      26.405  25.237  -4.027  0.00  0.00     0.007 A 
ENDROOT
BRANCH   1   7
HETATM    7  C   UNK N   1      25.797  23.783  -6.017  0.00  0.00     0.049 C 
BRANCH   7   8
HETATM    8  C   UNK N   1      26.246  23.895  -7.470  0.00  0.00     0.114 C 
BRANCH   8   9
HETATM    9  C   UNK N   1      25.154  23.512  -8.422  0.00  0.00     0.139 C 
HETATM   10  O   UNK N   1      24.401  22.583  -8.174  0.00  0.00    -0.650 OA
BRANCH   9  11
HETATM   11  O   UNK N   1      25.003  24.205  -9.564  0.00  0.00    -0.776 OA
HETATM   12  H   UNK N   1      24.514  25.004  -9.567  0.00  0.00     0.167 HD
ENDBRANCH   9  11
ENDBRANCH   8   9
ENDBRANCH   7   8
ENDBRANCH   1   7
TORSDOF 4
ENDMDL
