MODEL 1
REMARK VINA RESULT:      -3.1      0.000      0.000
REMARK  1 active torsions:
REMARK  status: ('A' for Active; 'I' for Inactive)
REMARK    1  A    between atoms: N_1  and  C_2 
ROOT
HETATM    1  C   UNK N   1      20.647  20.148   1.536  0.00  0.00     0.133 A 
HETATM    2  N   UNK N   1      19.786  19.259   1.840  0.00  0.00    -0.370 N 
ATOM      3  HN  UNK N   1      18.995  19.050   1.230  1.00  0.00     0.161 HD
HETATM    4  C   UNK N   1      19.984  18.568   3.080  0.00  0.00     0.132 A 
HETATM    5  C   UNK N   1      21.249  19.122   3.735  0.00  0.00     0.102 A 
HETATM    6  S   UNK N   1      21.978  20.421   2.678  0.00  0.00    -0.093 SA
ENDROOT
BRANCH   1   7
HETATM    7  N   UNK N   1      20.541  20.882   0.338  0.00  0.00    -0.380 N 
HETATM    8  H   UNK N   1      20.820  21.827   0.313  0.00  0.00     0.158 HD
HETATM    9  H   UNK N   1      20.189  20.452  -0.474  0.00  0.00     0.158 HD
ENDBRANCH   1   7
TORSDOF 1
ENDMDL
MODEL 2
REMARK VINA RESULT:      -3.1     11.274     12.097
REMARK  1 active torsions:
REMARK  status: ('A' for Active; 'I' for Inactive)
REMARK    1  A    between atoms: N_1  and  C_2 
ROOT
HETATM    1  C   UNK N   1      23.127  12.097  11.612  0.00  0.00     0.133 A 
HETATM    2  N   UNK N   1      24.368  12.235  11.356  0.00  0.00    -0.370 N 
ATOM      3  HN  UNK N   1      25.087  11.953  12.023  1.00  0.00     0.161 HD
HETATM    4  C   UNK N   1      24.703  12.807  10.085  0.00  0.00     0.132 A 
HETATM    5  C   UNK N   1      23.401  13.111   9.344  0.00  0.00     0.102 A 
HETATM    6  S   UNK N   1      21.972  12.625  10.373  0.00  0.00    -0.093 SA
ENDROOT
BRANCH   1   7
HETATM    7  N   UNK N   1      22.695  11.545  12.835  0.00  0.00    -0.380 N 
HETATM    8  H   UNK N   1      21.737  11.543  13.063  0.00  0.00     0.158 HD
HETATM    9  H   UNK N   1      23.350  11.160  13.461  0.00  0.00     0.158 HD
ENDBRANCH   1   7
TORSDOF 1
ENDMDL
MODEL 3
REMARK VINA RESULT:      -3.0     11.328     11.771
REMARK  1 active torsions:
REMARK  status: ('A' for Active; 'I' for Inactive)
REMARK    1  A    between atoms: N_1  and  C_2 
ROOT
HETATM    1  C   UNK N   1      23.378  12.338  11.061  0.00  0.00     0.133 A 
HETATM    2  N   UNK N   1      22.498  11.849  11.843  0.00  0.00    -0.370 N 
ATOM      3  HN  UNK N   1      22.759  11.317  12.674  1.00  0.00     0.161 HD
HETATM    4  C   UNK N   1      21.128  12.084  11.498  0.00  0.00     0.132 A 
HETATM    5  C   UNK N   1      21.097  12.906  10.209  0.00  0.00     0.102 A 
HETATM    6  S   UNK N   1      22.802  13.245   9.649  0.00  0.00    -0.093 SA
ENDROOT
BRANCH   1   7
HETATM    7  N   UNK N   1      24.753  12.163  11.313  0.00  0.00    -0.380 N 
HETATM    8  H   UNK N   1      25.322  12.944  11.504  0.00  0.00     0.158 HD
HETATM    9  H   UNK N   1      25.145  11.260  11.299  0.00  0.00     0.158 HD
ENDBRANCH   1   7
TORSDOF 1
ENDMDL
MODEL 4
REMARK VINA RESULT:      -2.9      1.335      2.480
REMARK  1 active torsions:
REMARK  status: ('A' for Active; 'I' for Inactive)
REMARK    1  A    between atoms: N_1  and  C_2 
ROOT
HETATM    1  C   UNK N   1      20.046  18.721   2.678  0.00  0.00     0.133 A 
HETATM    2  N   UNK N   1      20.016  19.310   1.549  0.00  0.00    -0.370 N 
ATOM      3  HN  UNK N   1      19.344  19.048   0.827  1.00  0.00     0.161 HD
HETATM    4  C   UNK N   1      20.972  20.358   1.343  0.00  0.00     0.132 A 
HETATM    5  C   UNK N   1      21.814  20.487   2.612  0.00  0.00     0.102 A 
HETATM    6  S   UNK N   1      21.260  19.266   3.852  0.00  0.00    -0.093 SA
ENDROOT
BRANCH   1   7
HETATM    7  N   UNK N   1      19.148  17.677   2.978  0.00  0.00    -0.380 N 
HETATM    8  H   UNK N   1      18.242  17.681   2.591  0.00  0.00     0.158 HD
HETATM    9  H   UNK N   1      19.425  16.944   3.574  0.00  0.00     0.158 HD
ENDBRANCH   1   7
TORSDOF 1
ENDMDL
MODEL 5
REMARK VINA RESULT:      -2.9     21.675     22.117
REMARK  1 active torsions:
REMARK  status: ('A' for Active; 'I' for Inactive)
REMARK    1  A    between atoms: N_1  and  C_2 
ROOT
HETATM    1  C   UNK N   1      43.097  23.041   3.010  0.00  0.00     0.133 A 
HETATM    2  N   UNK N   1      42.153  23.513   2.296  0.00  0.00    -0.370 N 
ATOM      3  HN  UNK N   1      42.120  24.499   2.037  1.00  0.00     0.161 HD
HETATM    4  C   UNK N   1      41.140  22.590   1.876  0.00  0.00     0.132 A 
HETATM    5  C   UNK N   1      41.494  21.211   2.434  0.00  0.00     0.102 A 
HETATM    6  S   UNK N   1      43.044  21.310   3.396  0.00  0.00    -0.093 SA
ENDROOT
BRANCH   1   7
HETATM    7  N   UNK N   1      44.140  23.868   3.474  0.00  0.00    -0.380 N 
HETATM    8  H   UNK N   1      44.519  23.725   4.372  0.00  0.00     0.158 HD
HETATM    9  H   UNK N   1      44.490  24.587   2.900  0.00  0.00     0.158 HD
ENDBRANCH   1   7
TORSDOF 1
ENDMDL
MODEL 6
REMARK VINA RESULT:      -2.8     14.396     14.962
REMARK  1 active torsions:
REMARK  status: ('A' for Active; 'I' for Inactive)
REMARK    1  A    between atoms: N_1  and  C_2 
ROOT
HETATM    1  C   UNK N   1      34.121  17.051   9.400  0.00  0.00     0.133 A 
HETATM    2  N   UNK N   1      33.132  16.250   9.342  0.00  0.00    -0.370 N 
ATOM      3  HN  UNK N   1      32.944  15.577  10.086  1.00  0.00     0.161 HD
HETATM    4  C   UNK N   1      32.298  16.341   8.181  0.00  0.00     0.132 A 
HETATM    5  C   UNK N   1      32.858  17.440   7.278  0.00  0.00     0.102 A 
HETATM    6  S   UNK N   1      34.344  18.175   8.045  0.00  0.00    -0.093 SA
ENDROOT
BRANCH   1   7
HETATM    7  N   UNK N   1      35.001  17.041  10.501  0.00  0.00    -0.380 N 
HETATM    8  H   UNK N   1      34.862  17.667  11.249  0.00  0.00     0.158 HD
HETATM    9  H   UNK N   1      35.755  16.408  10.523  0.00  0.00     0.158 HD
ENDBRANCH   1   7
TORSDOF 1
ENDMDL
MODEL 7
REMARK VINA RESULT:      -2.7     32.823     33.296
REMARK  1 active torsions:
REMARK  status: ('A' for Active; 'I' for Inactive)
REMARK    1  A    between atoms: N_1  and  C_2 
ROOT
HETATM    1  C   UNK N   1      52.282  24.204  11.715  0.00  0.00     0.133 A 
HETATM    2  N   UNK N   1      51.165  23.719  12.090  0.00  0.00    -0.370 N 
ATOM      3  HN  UNK N   1      50.281  24.176  11.863  1.00  0.00     0.161 HD
HETATM    4  C   UNK N   1      51.212  22.502  12.845  0.00  0.00     0.132 A 
HETATM    5  C   UNK N   1      52.677  22.097  13.002  0.00  0.00     0.102 A 
HETATM    6  S   UNK N   1      53.751  23.319  12.171  0.00  0.00    -0.093 SA
ENDROOT
BRANCH   1   7
HETATM    7  N   UNK N   1      52.343  25.397  10.968  0.00  0.00    -0.380 N 
HETATM    8  H   UNK N   1      51.531  25.749  10.535  0.00  0.00     0.158 HD
HETATM    9  H   UNK N   1      53.197  25.879  10.878  0.00  0.00     0.158 HD
ENDBRANCH   1   7
TORSDOF 1
ENDMDL
MODEL 8
REMARK VINA RESULT:      -2.7     10.560     11.029
REMARK  1 active torsions:
REMARK  status: ('A' for Active; 'I' for Inactive)
REMARK    1  A    between atoms: N_1  and  C_2 
ROOT
HETATM    1  C   UNK N   1      25.788  27.399  -3.963  0.00  0.00     0.133 A 
HETATM    2  N   UNK N   1      26.369  26.423  -3.385  0.00  0.00    -0.370 N 
ATOM      3  HN  UNK N   1      26.828  26.534  -2.481  1.00  0.00     0.161 HD
HETATM    4  C   UNK N   1      26.346  25.164  -4.069  0.00  0.00     0.132 A 
HETATM    5  C   UNK N   1      25.584  25.350  -5.381  0.00  0.00     0.102 A 
HETATM    6  S   UNK N   1      25.025  27.082  -5.534  0.00  0.00    -0.093 SA
ENDROOT
BRANCH   1   7
HETATM    7  N   UNK N   1      25.756  28.678  -3.373  0.00  0.00    -0.380 N 
HETATM    8  H   UNK N   1      26.503  28.978  -2.806  0.00  0.00     0.158 HD
HETATM    9  H   UNK N   1      24.986  29.272  -3.528  0.00  0.00     0.158 HD
ENDBRANCH   1   7
TORSDOF 1
ENDMDL
MODEL 9
REMARK VINA RESULT:      -2.7     23.110     23.535
REMARK  1 active torsions:
REMARK  status: ('A' for Active; 'I' for Inactive)
REMARK    1  A    between atoms: N_1  and  C_2 
ROOT
HETATM    1  C   UNK N   1      44.653  21.281   3.794  0.00  0.00     0.133 A 
HETATM    2  N   UNK N   1      43.430  21.585   3.979  0.00  0.00    -0.370 N 
ATOM      3  HN  UNK N   1      43.159  22.439   4.467  1.00  0.00     0.161 HD
HETATM    4  C   UNK N   1      42.454  20.669   3.466  0.00  0.00     0.132 A 
HETATM    5  C   UNK N   1      43.195  19.510   2.800  0.00  0.00     0.102 A 
HETATM    6  S   UNK N   1      44.999  19.770   2.931  0.00  0.00    -0.093 SA
ENDROOT
BRANCH   1   7
HETATM    7  N   UNK N   1      45.688  22.117   4.260  0.00  0.00    -0.380 N 
HETATM    8  H   UNK N   1      45.501  23.060   4.474  0.00  0.00     0.158 HD
HETATM    9  H   UNK N   1      46.598  21.759   4.371  0.00  0.00     0.158 HD
ENDBRANCH   1   7
TORSDOF 1
ENDMDL
