REMARK  2 active torsions:
REMARK  status: ('A' for Active; 'I' for Inactive)
REMARK       I    between atoms: N_1  and  C_2 
REMARK    1  A    between atoms: C_9  and  C_10 
REMARK    2  A    between atoms: C_10  and  O_11 
ROOT
HETATM    1  N   UNK N   1      -3.034  -2.204   0.000  0.00  0.00    -0.234 N 
HETATM    2  C   UNK N   1      -1.791  -1.542   0.000  0.00  0.00     0.680 A 
HETATM    3  N   UNK N   1      -0.642  -2.264   0.000  0.00  0.00    -0.175 N 
ATOM      4  HN  UNK N   1      -0.688  -3.283   0.000  1.00  0.00     0.186 HD
HETATM    5  C   UNK N   1       0.567  -1.650   0.000  0.00  0.00     0.149 A 
HETATM    6  C   UNK N   1       0.650  -0.259  -0.000  0.00  0.00     0.146 A 
HETATM    7  N   UNK N   1       1.921   0.376  -0.000  0.00  0.00    -0.352 N 
ATOM      8  HN  UNK N   1       1.961   1.396  -0.000  1.00  0.00     0.166 HD
HETATM    9  C   UNK N   1       3.032  -0.293   0.000  0.00  0.00     0.028 A 
HETATM   10  C   UNK N   1       3.062  -1.807   0.000  0.00  0.00     0.176 A 
HETATM   11  N   UNK N   1       1.750  -2.418   0.000  0.00  0.00    -0.368 N 
HETATM   12  C   UNK N   1      -0.541   0.478  -0.000  0.00  0.00     0.290 A 
HETATM   13  O   UNK N   1      -0.519   1.696  -0.000  0.00  0.00    -0.265 OA
HETATM   14  N   UNK N   1      -1.744  -0.182  -0.000  0.00  0.00    -0.154 N 
HETATM   15  H   UNK N   1      -3.869  -1.683   0.000  0.00  0.00     0.174 HD
HETATM   16  H   UNK N   1      -3.067  -3.188   0.000  0.00  0.00     0.174 HD
HETATM   17  H   UNK N   1       1.681  -3.400   0.000  0.00  0.00     0.161 HD
HETATM   18  H   UNK N   1      -2.582   0.334  -0.000  0.00  0.00     0.187 HD
ENDROOT
BRANCH   9  19
HETATM   19  C   UNK N   1       4.351   0.420  -0.000  0.00  0.00     0.218 C 
BRANCH  19  20
HETATM   20  O   UNK N   1       4.188   1.805  -0.000  0.00  0.00    -0.395 OA
HETATM   21  H   UNK N   1       4.966   2.385  -0.000  0.00  0.00     0.209 HD
ENDBRANCH  19  20
ENDBRANCH   9  19
TORSDOF 2
