REMARK  11 active torsions:
REMARK  status: ('A' for Active; 'I' for Inactive)
REMARK    1  A    between atoms: C_2  and  C_5 
REMARK    2  A    between atoms: C_6  and  C_7 
REMARK    3  A    between atoms: C_7  and  C_8 
REMARK    4  A    between atoms: C_8  and  N_9 
REMARK    5  A    between atoms: C_8  and  C_10 
REMARK    6  A    between atoms: C_10  and  O_11 
REMARK    7  A    between atoms: C_13  and  O_14 
REMARK    8  A    between atoms: O_14  and  C_15 
REMARK    9  A    between atoms: C_15  and  P_16 
REMARK   10  A    between atoms: P_16  and  O_17 
REMARK   11  A    between atoms: P_16  and  O_18 
ROOT
HETATM    1  C   UNK N   1       0.828  -0.946   0.206  0.00  0.00     0.094 A 
HETATM    2  C   UNK N   1       0.428   0.371  -0.063  0.00  0.00     0.029 A 
HETATM    3  C   UNK N   1       1.561   1.120   0.240  0.00  0.00     0.172 A 
HETATM    4  N   UNK N   1       2.537   0.299   0.656  0.00  0.00    -0.238 N 
ATOM      5  HN  UNK N   1       3.471   0.579   0.953  1.00  0.00     0.197 HD
HETATM    6  O   UNK N   1       2.080  -0.913   0.612  0.00  0.00    -0.239 OA
ENDROOT
BRANCH   2   7
HETATM    7  C   UNK N   1      -0.888   0.911  -0.578  0.00  0.00     0.081 C 
BRANCH   7   8
HETATM    8  C   UNK N   1      -2.091   0.716   0.349  0.00  0.00     0.177 C 
BRANCH   8   9
HETATM    9  N   UNK N   1      -2.778  -0.519   0.009  0.00  0.00    -0.417 N 
HETATM   10  H   UNK N   1      -3.769  -0.535  -0.230  0.00  0.00     0.150 HD
HETATM   11  H   UNK N   1      -2.254  -1.394   0.009  0.00  0.00     0.150 HD
ENDBRANCH   8   9
BRANCH   8  12
HETATM   12  C   UNK N   1      -3.051   1.865   0.198  0.00  0.00     0.163 C 
HETATM   13  O   UNK N   1      -2.689   2.999   0.463  0.00  0.00    -0.648 OA
BRANCH  12  14
HETATM   14  O   UNK N   1      -4.319   1.652  -0.213  0.00  0.00    -0.775 OA
HETATM   15  H   UNK N   1      -4.887   2.340  -0.499  0.00  0.00     0.167 HD
ENDBRANCH  12  14
ENDBRANCH   8  12
ENDBRANCH   7   8
ENDBRANCH   2   7
BRANCH   1  16
HETATM   16  C   UNK N   1       0.057  -2.239   0.121  0.00  0.00     0.001 C 
HETATM   17  C   UNK N   1      -0.595  -2.403  -1.238  0.00  0.00     0.021 C 
HETATM   18  C   UNK N   1       0.988  -3.420   0.340  0.00  0.00     0.021 C 
HETATM   19  C   UNK N   1      -0.980  -2.296   1.223  0.00  0.00     0.021 C 
ENDBRANCH   1  16
BRANCH   3  20
HETATM   20  O   UNK N   1       1.746   2.453   0.186  0.00  0.00    -0.322 OA
BRANCH  20  21
HETATM   21  C   UNK N   1       1.329   3.276  -0.827  0.00  0.00     0.301 C 
BRANCH  21  22
HETATM   22  P   UNK N   1       1.613   5.019  -0.245  0.00  0.00     0.260 P 
HETATM   23  O   UNK N   1       0.350   5.479   0.527  0.00  0.00    -0.652 OA
BRANCH  22  24
HETATM   24  O   UNK N   1       1.847   6.253  -1.443  0.00  0.00    -0.328 OA
HETATM   25  H   UNK N   1       2.509   6.485  -2.113  0.00  0.00     0.220 HD
ENDBRANCH  22  24
BRANCH  22  26
HETATM   26  O   UNK N   1       2.876   5.190   0.935  0.00  0.00    -0.328 OA
HETATM   27  H   UNK N   1       3.312   4.627   1.594  0.00  0.00     0.220 HD
ENDBRANCH  22  26
ENDBRANCH  21  22
ENDBRANCH  20  21
ENDBRANCH   3  20
TORSDOF 11
