REMARK  15 active torsions:
REMARK  status: ('A' for Active; 'I' for Inactive)
REMARK    1  A    between atoms: C_4  and  C_1 
REMARK    2  A    between atoms: O_27  and  C_1 
REMARK    3  A    between atoms: C_6  and  O_19 
REMARK    4  A    between atoms: C_7  and  O_20 
REMARK    5  A    between atoms: N_11  and  C_8 
REMARK    6  A    between atoms: C_10  and  N_18 
REMARK    7  A    between atoms: P_31  and  O_21 
REMARK    8  A    between atoms: P_31  and  O_22 
REMARK    9  A    between atoms: P_32  and  O_24 
REMARK   10  A    between atoms: P_33  and  O_26 
REMARK   11  A    between atoms: P_33  and  O_27 
REMARK   12  A    between atoms: P_31  and  O_29 
REMARK   13  A    between atoms: P_32  and  O_29 
REMARK   14  A    between atoms: P_32  and  O_30 
REMARK   15  A    between atoms: P_33  and  O_30 
ROOT
HETATM    1  C   UNK N   1       0.960  -2.061  -0.417  0.00  0.00     0.179 C 
HETATM    2  C   UNK N   1       2.060  -2.391   0.578  0.00  0.00     0.182 C 
HETATM    3  C   UNK N   1       2.697  -1.044   0.653  0.00  0.00     0.198 C 
HETATM    4  C   UNK N   1       1.431  -0.200   0.794  0.00  0.00     0.262 C 
HETATM    5  O   UNK N   1       0.468  -0.773  -0.080  0.00  0.00    -0.353 OA
ENDROOT
BRANCH   1   6
HETATM    6  C   UNK N   1      -0.123  -3.139  -0.416  0.00  0.00     0.213 C 
BRANCH   6   7
HETATM    7  O   UNK N   1      -1.300  -2.714   0.213  0.00  0.00    -0.311 OA
BRANCH   7   8
HETATM    8  P   UNK N   1      -2.542  -2.946  -0.990  0.00  0.00     0.335 P 
HETATM    9  S   UNK N   1      -2.429  -1.675  -2.223  0.00  0.00    -0.007 SA
BRANCH   8  10
HETATM   10  O   UNK N   1      -2.241  -4.436  -1.831  0.00  0.00    -0.324 OA
HETATM   11  H   UNK N   1      -2.877  -4.998  -2.301  0.00  0.00     0.220 HD
ENDBRANCH   8  10
BRANCH   8  12
HETATM   12  O   UNK N   1      -4.156  -3.072  -0.316  0.00  0.00    -0.212 OA
BRANCH  12  13
HETATM   13  P   UNK N   1      -4.765  -1.492   0.127  0.00  0.00     0.409 P 
HETATM   14  O   UNK N   1      -5.031  -0.665  -1.161  0.00  0.00    -0.631 OA
BRANCH  13  15
HETATM   15  O   UNK N   1      -3.659  -0.597   1.121  0.00  0.00    -0.307 OA
HETATM   16  H   UNK N   1      -2.916  -0.882   1.677  0.00  0.00     0.222 HD
ENDBRANCH  13  15
BRANCH  13  17
HETATM   17  O   UNK N   1      -6.304  -1.662   0.931  0.00  0.00    -0.195 OA
BRANCH  17  18
HETATM   18  P   UNK N   1      -7.281  -2.626  -0.144  0.00  0.00     0.399 P 
HETATM   19  O   UNK N   1      -6.953  -3.636   0.988  0.00  0.00    -0.631 OA
BRANCH  18  20
HETATM   20  O   UNK N   1      -8.850  -3.188   0.338  0.00  0.00    -0.307 OA
HETATM   21  H   UNK N   1      -9.561  -2.585   0.608  0.00  0.00     0.222 HD
ENDBRANCH  18  20
BRANCH  18  22
HETATM   22  O   UNK N   1      -8.225  -1.318   0.499  0.00  0.00    -0.307 OA
HETATM   23  H   UNK N   1      -7.856  -0.497   0.859  0.00  0.00     0.222 HD
ENDBRANCH  18  22
ENDBRANCH  17  18
ENDBRANCH  13  17
ENDBRANCH  12  13
ENDBRANCH   8  12
ENDBRANCH   7   8
ENDBRANCH   6   7
ENDBRANCH   1   6
BRANCH   2  24
HETATM   24  O   UNK N   1       2.931  -3.381   0.114  0.00  0.00    -0.390 OA
HETATM   25  H   UNK N   1       2.638  -4.247  -0.208  0.00  0.00     0.210 HD
ENDBRANCH   2  24
BRANCH   3  26
HETATM   26  O   UNK N   1       3.571  -0.915   1.734  0.00  0.00    -0.388 OA
HETATM   27  H   UNK N   1       3.953  -1.396   2.486  0.00  0.00     0.210 HD
ENDBRANCH   3  26
BRANCH   4  28
HETATM   28  N   UNK N   1       1.614   1.229   0.495  0.00  0.00    -0.297 N 
HETATM   29  C   UNK N   1       0.605   2.140   0.487  0.00  0.00     0.188 A 
HETATM   30  N   UNK N   1       1.056   3.386   0.168  0.00  0.00    -0.346 N 
HETATM   31  C   UNK N   1       2.377   3.225  -0.015  0.00  0.00     0.122 A 
ATOM     32  HN  UNK N   1       0.513   4.245   0.087  1.00  0.00     0.167 HD
HETATM   33  C   UNK N   1       3.345   4.158  -0.355  0.00  0.00     0.131 A 
HETATM   34  C   UNK N   1       2.716   1.936   0.183  0.00  0.00     0.142 A 
HETATM   35  N   UNK N   1       4.636   3.728  -0.473  0.00  0.00    -0.337 N 
HETATM   36  C   UNK N   1       4.963   2.411  -0.260  0.00  0.00     0.183 A 
ATOM     37  HN  UNK N   1       5.367   4.395  -0.722  1.00  0.00     0.168 HD
HETATM   38  N   UNK N   1       3.995   1.501   0.071  0.00  0.00    -0.336 N 
ATOM     39  HN  UNK N   1       4.231   0.522   0.228  1.00  0.00     0.168 HD
BRANCH  33  40
HETATM   40  N   UNK N   1       3.014   5.510  -0.575  0.00  0.00    -0.383 N 
HETATM   41  H   UNK N   1       3.717   6.182  -0.728  0.00  0.00     0.157 HD
HETATM   42  H   UNK N   1       2.069   5.786  -0.575  0.00  0.00     0.157 HD
ENDBRANCH  33  40
ENDBRANCH   4  28
TORSDOF 15
