MODEL 1
REMARK VINA RESULT:      -5.8      0.000      0.000
REMARK  4 active torsions:
REMARK  status: ('A' for Active; 'I' for Inactive)
REMARK    1  A    between atoms: C_2  and  C_1 
REMARK    2  A    between atoms: O_12  and  C_1 
REMARK    3  A    between atoms: C_3  and  O_13 
REMARK    4  A    between atoms: C_5  and  O_15 
ROOT
HETATM    1  C   UNK N   1      34.917  15.860  10.036  0.00  0.00     0.162 C 
HETATM    2  C   UNK N   1      33.583  15.219  10.510  0.00  0.00     0.176 C 
HETATM    3  C   UNK N   1      32.683  14.966   9.278  0.00  0.00     0.185 C 
HETATM    4  C   UNK N   1      32.308  16.293   8.563  0.00  0.00     0.219 C 
HETATM    5  C   UNK N   1      33.461  17.256   8.572  0.00  0.00     0.141 A 
HETATM    6  N   UNK N   1      33.491  18.471   7.999  0.00  0.00    -0.271 N 
ATOM      7  HN  UNK N   1      32.760  18.906   7.436  1.00  0.00     0.185 HD
HETATM    8  N   UNK N   1      34.672  18.987   8.322  0.00  0.00    -0.007 NA
HETATM    9  N   UNK N   1      35.344  18.124   9.075  0.00  0.00    -0.004 NA
HETATM   10  N   UNK N   1      34.601  17.046   9.240  0.00  0.00    -0.253 N 
HETATM   11  O   UNK N   1      33.360  14.129   8.384  0.00  0.00    -0.390 OA
HETATM   12  H   UNK N   1      33.930  13.607   7.799  0.00  0.00     0.210 HD
ENDROOT
BRANCH   2  13
HETATM   13  O   UNK N   1      33.829  14.013  11.173  0.00  0.00    -0.391 OA
HETATM   14  H   UNK N   1      33.403  13.812  12.021  0.00  0.00     0.210 HD
ENDBRANCH   2  13
BRANCH   4  15
HETATM   15  O   UNK N   1      31.240  16.901   9.226  0.00  0.00    -0.385 OA
HETATM   16  H   UNK N   1      30.340  17.195   9.438  0.00  0.00     0.210 HD
ENDBRANCH   4  15
BRANCH   1  17
HETATM   17  C   UNK N   1      35.843  16.216  11.198  0.00  0.00     0.193 C 
BRANCH  17  18
HETATM   18  O   UNK N   1      37.180  16.090  10.817  0.00  0.00    -0.399 OA
HETATM   19  H   UNK N   1      37.595  16.652  10.144  0.00  0.00     0.209 HD
ENDBRANCH  17  18
ENDBRANCH   1  17
TORSDOF 4
ENDMDL
MODEL 2
REMARK VINA RESULT:      -5.6     14.708     15.956
REMARK  4 active torsions:
REMARK  status: ('A' for Active; 'I' for Inactive)
REMARK    1  A    between atoms: C_2  and  C_1 
REMARK    2  A    between atoms: O_12  and  C_1 
REMARK    3  A    between atoms: C_3  and  O_13 
REMARK    4  A    between atoms: C_5  and  O_15 
ROOT
HETATM    1  C   UNK N   1      20.838  19.396   1.941  0.00  0.00     0.162 C 
HETATM    2  C   UNK N   1      20.224  19.489   3.365  0.00  0.00     0.176 C 
HETATM    3  C   UNK N   1      20.663  18.251   4.182  0.00  0.00     0.185 C 
HETATM    4  C   UNK N   1      20.130  16.935   3.555  0.00  0.00     0.219 C 
HETATM    5  C   UNK N   1      20.162  17.000   2.055  0.00  0.00     0.141 A 
HETATM    6  N   UNK N   1      19.818  16.016   1.205  0.00  0.00    -0.271 N 
ATOM      7  HN  UNK N   1      19.528  15.068   1.444  1.00  0.00     0.185 HD
HETATM    8  N   UNK N   1      19.933  16.541  -0.010  0.00  0.00    -0.007 NA
HETATM    9  N   UNK N   1      20.325  17.806   0.086  0.00  0.00    -0.004 NA
HETATM   10  N   UNK N   1      20.468  18.103   1.363  0.00  0.00    -0.253 N 
HETATM   11  O   UNK N   1      22.061  18.212   4.233  0.00  0.00    -0.390 OA
HETATM   12  H   UNK N   1      23.027  18.229   4.155  0.00  0.00     0.210 HD
ENDROOT
BRANCH   2  13
HETATM   13  O   UNK N   1      20.650  20.656   4.006  0.00  0.00    -0.391 OA
HETATM   14  H   UNK N   1      21.499  21.069   3.783  0.00  0.00     0.210 HD
ENDBRANCH   2  13
BRANCH   4  15
HETATM   15  O   UNK N   1      18.805  16.729   3.945  0.00  0.00    -0.385 OA
HETATM   16  H   UNK N   1      18.035  16.490   4.484  0.00  0.00     0.210 HD
ENDBRANCH   4  15
BRANCH   1  17
HETATM   17  C   UNK N   1      20.394  20.543   1.034  0.00  0.00     0.193 C 
BRANCH  17  18
HETATM   18  O   UNK N   1      21.302  20.721  -0.012  0.00  0.00    -0.399 OA
HETATM   19  H   UNK N   1      21.051  21.079  -0.877  0.00  0.00     0.209 HD
ENDBRANCH  17  18
ENDBRANCH   1  17
TORSDOF 4
ENDMDL
MODEL 3
REMARK VINA RESULT:      -5.6     12.887     14.861
REMARK  4 active torsions:
REMARK  status: ('A' for Active; 'I' for Inactive)
REMARK    1  A    between atoms: C_2  and  C_1 
REMARK    2  A    between atoms: O_12  and  C_1 
REMARK    3  A    between atoms: C_3  and  O_13 
REMARK    4  A    between atoms: C_5  and  O_15 
ROOT
HETATM    1  C   UNK N   1      22.191  18.942   3.645  0.00  0.00     0.162 C 
HETATM    2  C   UNK N   1      22.595  20.114   2.709  0.00  0.00     0.176 C 
HETATM    3  C   UNK N   1      21.320  20.883   2.289  0.00  0.00     0.185 C 
HETATM    4  C   UNK N   1      20.351  19.980   1.478  0.00  0.00     0.219 C 
HETATM    5  C   UNK N   1      20.342  18.578   2.015  0.00  0.00     0.141 A 
HETATM    6  N   UNK N   1      19.580  17.560   1.577  0.00  0.00    -0.271 N 
ATOM      7  HN  UNK N   1      18.865  17.593   0.851  1.00  0.00     0.185 HD
HETATM    8  N   UNK N   1      19.957  16.503   2.289  0.00  0.00    -0.007 NA
HETATM    9  N   UNK N   1      20.924  16.854   3.129  0.00  0.00    -0.004 NA
HETATM   10  N   UNK N   1      21.173  18.139   2.967  0.00  0.00    -0.253 N 
HETATM   11  O   UNK N   1      20.672  21.350   3.438  0.00  0.00    -0.390 OA
HETATM   12  H   UNK N   1      20.260  21.572   4.287  0.00  0.00     0.210 HD
ENDROOT
BRANCH   2  13
HETATM   13  O   UNK N   1      23.478  20.979   3.361  0.00  0.00    -0.391 OA
HETATM   14  H   UNK N   1      24.020  21.611   2.864  0.00  0.00     0.210 HD
ENDBRANCH   2  13
BRANCH   4  15
HETATM   15  O   UNK N   1      20.763  19.924   0.145  0.00  0.00    -0.385 OA
HETATM   16  H   UNK N   1      21.319  19.784  -0.637  0.00  0.00     0.210 HD
ENDBRANCH   4  15
BRANCH   1  17
HETATM   17  C   UNK N   1      23.384  18.077   4.051  0.00  0.00     0.193 C 
BRANCH  17  18
HETATM   18  O   UNK N   1      24.008  18.603   5.184  0.00  0.00    -0.399 OA
HETATM   19  H   UNK N   1      24.208  19.546   5.289  0.00  0.00     0.209 HD
ENDBRANCH  17  18
ENDBRANCH   1  17
TORSDOF 4
ENDMDL
MODEL 4
REMARK VINA RESULT:      -5.4      2.574      3.043
REMARK  4 active torsions:
REMARK  status: ('A' for Active; 'I' for Inactive)
REMARK    1  A    between atoms: C_2  and  C_1 
REMARK    2  A    between atoms: O_12  and  C_1 
REMARK    3  A    between atoms: C_3  and  O_13 
REMARK    4  A    between atoms: C_5  and  O_15 
ROOT
HETATM    1  C   UNK N   1      35.283  15.307   9.470  0.00  0.00     0.162 C 
HETATM    2  C   UNK N   1      34.975  16.808   9.730  0.00  0.00     0.176 C 
HETATM    3  C   UNK N   1      33.702  17.202   8.944  0.00  0.00     0.185 C 
HETATM    4  C   UNK N   1      33.907  17.050   7.413  0.00  0.00     0.219 C 
HETATM    5  C   UNK N   1      34.745  15.844   7.097  0.00  0.00     0.141 A 
HETATM    6  N   UNK N   1      35.070  15.396   5.871  0.00  0.00    -0.271 N 
ATOM      7  HN  UNK N   1      34.765  15.776   4.975  1.00  0.00     0.185 HD
HETATM    8  N   UNK N   1      35.873  14.358   6.075  0.00  0.00    -0.007 NA
HETATM    9  N   UNK N   1      36.046  14.177   7.379  0.00  0.00    -0.004 NA
HETATM   10  N   UNK N   1      35.351  15.095   8.024  0.00  0.00    -0.253 N 
HETATM   11  O   UNK N   1      32.643  16.386   9.357  0.00  0.00    -0.390 OA
HETATM   12  H   UNK N   1      31.990  15.733   9.653  0.00  0.00     0.210 HD
ENDROOT
BRANCH   2  13
HETATM   13  O   UNK N   1      34.780  17.037  11.095  0.00  0.00    -0.391 OA
HETATM   14  H   UNK N   1      35.473  17.442  11.639  0.00  0.00     0.210 HD
ENDBRANCH   2  13
BRANCH   4  15
HETATM   15  O   UNK N   1      34.571  18.172   6.912  0.00  0.00    -0.385 OA
HETATM   16  H   UNK N   1      35.036  19.023   6.879  0.00  0.00     0.210 HD
ENDBRANCH   4  15
BRANCH   1  17
HETATM   17  C   UNK N   1      36.573  14.847  10.148  0.00  0.00     0.193 C 
BRANCH  17  18
HETATM   18  O   UNK N   1      37.221  15.926  10.753  0.00  0.00    -0.399 OA
HETATM   19  H   UNK N   1      37.630  16.649  10.251  0.00  0.00     0.209 HD
ENDBRANCH  17  18
ENDBRANCH   1  17
TORSDOF 4
ENDMDL
MODEL 5
REMARK VINA RESULT:      -5.3      1.629      3.064
REMARK  4 active torsions:
REMARK  status: ('A' for Active; 'I' for Inactive)
REMARK    1  A    between atoms: C_2  and  C_1 
REMARK    2  A    between atoms: O_12  and  C_1 
REMARK    3  A    between atoms: C_3  and  O_13 
REMARK    4  A    between atoms: C_5  and  O_15 
ROOT
HETATM    1  C   UNK N   1      33.880  14.898   8.311  0.00  0.00     0.162 C 
HETATM    2  C   UNK N   1      34.758  14.259   9.422  0.00  0.00     0.176 C 
HETATM    3  C   UNK N   1      34.567  15.056  10.734  0.00  0.00     0.185 C 
HETATM    4  C   UNK N   1      35.044  16.526  10.582  0.00  0.00     0.219 C 
HETATM    5  C   UNK N   1      34.710  17.065   9.220  0.00  0.00     0.141 A 
HETATM    6  N   UNK N   1      34.938  18.314   8.778  0.00  0.00    -0.271 N 
ATOM      7  HN  UNK N   1      35.326  19.094   9.307  1.00  0.00     0.185 HD
HETATM    8  N   UNK N   1      34.551  18.316   7.507  0.00  0.00    -0.007 NA
HETATM    9  N   UNK N   1      34.109  17.108   7.174  0.00  0.00    -0.004 NA
HETATM   10  N   UNK N   1      34.205  16.322   8.229  0.00  0.00    -0.253 N 
HETATM   11  O   UNK N   1      33.212  15.038  11.083  0.00  0.00    -0.390 OA
HETATM   12  H   UNK N   1      32.251  15.031  11.207  0.00  0.00     0.210 HD
ENDROOT
BRANCH   2  13
HETATM   13  O   UNK N   1      34.398  12.923   9.622  0.00  0.00    -0.391 OA
HETATM   14  H   UNK N   1      35.034  12.205   9.479  0.00  0.00     0.210 HD
ENDBRANCH   2  13
BRANCH   4  15
HETATM   15  O   UNK N   1      36.430  16.590  10.738  0.00  0.00    -0.385 OA
HETATM   16  H   UNK N   1      37.311  16.532  11.140  0.00  0.00     0.210 HD
ENDBRANCH   4  15
BRANCH   1  17
HETATM   17  C   UNK N   1      34.064  14.219   6.955  0.00  0.00     0.193 C 
BRANCH  17  18
HETATM   18  O   UNK N   1      35.296  14.566   6.395  0.00  0.00    -0.399 OA
HETATM   19  H   UNK N   1      35.655  14.143   5.600  0.00  0.00     0.209 HD
ENDBRANCH  17  18
ENDBRANCH   1  17
TORSDOF 4
ENDMDL
MODEL 6
REMARK VINA RESULT:      -5.3      2.115      2.542
REMARK  4 active torsions:
REMARK  status: ('A' for Active; 'I' for Inactive)
REMARK    1  A    between atoms: C_2  and  C_1 
REMARK    2  A    between atoms: O_12  and  C_1 
REMARK    3  A    between atoms: C_3  and  O_13 
REMARK    4  A    between atoms: C_5  and  O_15 
ROOT
HETATM    1  C   UNK N   1      36.153  13.803  10.144  0.00  0.00     0.162 C 
HETATM    2  C   UNK N   1      34.871  12.964  10.402  0.00  0.00     0.176 C 
HETATM    3  C   UNK N   1      33.763  13.427   9.427  0.00  0.00     0.185 C 
HETATM    4  C   UNK N   1      33.377  14.912   9.665  0.00  0.00     0.219 C 
HETATM    5  C   UNK N   1      34.585  15.735  10.011  0.00  0.00     0.141 A 
HETATM    6  N   UNK N   1      34.611  17.062  10.228  0.00  0.00    -0.271 N 
ATOM      7  HN  UNK N   1      33.832  17.715  10.150  1.00  0.00     0.185 HD
HETATM    8  N   UNK N   1      35.865  17.340  10.569  0.00  0.00    -0.007 NA
HETATM    9  N   UNK N   1      36.585  16.224  10.571  0.00  0.00    -0.004 NA
HETATM   10  N   UNK N   1      35.800  15.220  10.227  0.00  0.00    -0.253 N 
HETATM   11  O   UNK N   1      34.219  13.268   8.113  0.00  0.00    -0.390 OA
HETATM   12  H   UNK N   1      34.644  13.189   7.245  0.00  0.00     0.210 HD
ENDROOT
BRANCH   2  13
HETATM   13  O   UNK N   1      35.131  11.603  10.214  0.00  0.00    -0.391 OA
HETATM   14  H   UNK N   1      34.681  10.928  10.746  0.00  0.00     0.210 HD
ENDBRANCH   2  13
BRANCH   4  15
HETATM   15  O   UNK N   1      32.482  15.000  10.733  0.00  0.00    -0.385 OA
HETATM   16  H   UNK N   1      31.814  15.352  11.342  0.00  0.00     0.210 HD
ENDBRANCH   4  15
BRANCH   1  17
HETATM   17  C   UNK N   1      37.281  13.465  11.118  0.00  0.00     0.193 C 
BRANCH  17  18
HETATM   18  O   UNK N   1      37.006  13.983  12.386  0.00  0.00    -0.399 OA
HETATM   19  H   UNK N   1      36.134  13.921  12.806  0.00  0.00     0.209 HD
ENDBRANCH  17  18
ENDBRANCH   1  17
TORSDOF 4
ENDMDL
MODEL 7
REMARK VINA RESULT:      -5.3      2.609      4.202
REMARK  4 active torsions:
REMARK  status: ('A' for Active; 'I' for Inactive)
REMARK    1  A    between atoms: C_2  and  C_1 
REMARK    2  A    between atoms: O_12  and  C_1 
REMARK    3  A    between atoms: C_3  and  O_13 
REMARK    4  A    between atoms: C_5  and  O_15 
ROOT
HETATM    1  C   UNK N   1      34.758  16.130   8.735  0.00  0.00     0.162 C 
HETATM    2  C   UNK N   1      35.003  16.596  10.197  0.00  0.00     0.176 C 
HETATM    3  C   UNK N   1      35.833  15.519  10.934  0.00  0.00     0.185 C 
HETATM    4  C   UNK N   1      35.069  14.170  11.020  0.00  0.00     0.219 C 
HETATM    5  C   UNK N   1      34.289  13.909   9.763  0.00  0.00     0.141 A 
HETATM    6  N   UNK N   1      33.560  12.813   9.489  0.00  0.00    -0.271 N 
ATOM      7  HN  UNK N   1      33.460  11.978  10.066  1.00  0.00     0.185 HD
HETATM    8  N   UNK N   1      32.996  13.049   8.309  0.00  0.00    -0.007 NA
HETATM    9  N   UNK N   1      33.357  14.251   7.875  0.00  0.00    -0.004 NA
HETATM   10  N   UNK N   1      34.159  14.796   8.771  0.00  0.00    -0.253 N 
HETATM   11  O   UNK N   1      37.040  15.329  10.251  0.00  0.00    -0.390 OA
HETATM   12  H   UNK N   1      37.813  15.216   9.677  0.00  0.00     0.210 HD
ENDROOT
BRANCH   2  13
HETATM   13  O   UNK N   1      35.687  17.815  10.213  0.00  0.00    -0.391 OA
HETATM   14  H   UNK N   1      35.219  18.654  10.081  0.00  0.00     0.210 HD
ENDBRANCH   2  13
BRANCH   4  15
HETATM   15  O   UNK N   1      34.164  14.208  12.083  0.00  0.00    -0.385 OA
HETATM   16  H   UNK N   1      33.337  14.141  12.585  0.00  0.00     0.210 HD
ENDBRANCH   4  15
BRANCH   1  17
HETATM   17  C   UNK N   1      33.877  17.100   7.949  0.00  0.00     0.193 C 
BRANCH  17  18
HETATM   18  O   UNK N   1      34.650  18.124   7.394  0.00  0.00    -0.399 OA
HETATM   19  H   UNK N   1      35.275  18.656   7.910  0.00  0.00     0.209 HD
ENDBRANCH  17  18
ENDBRANCH   1  17
TORSDOF 4
ENDMDL
MODEL 8
REMARK VINA RESULT:      -5.3     12.642     14.627
REMARK  4 active torsions:
REMARK  status: ('A' for Active; 'I' for Inactive)
REMARK    1  A    between atoms: C_2  and  C_1 
REMARK    2  A    between atoms: O_12  and  C_1 
REMARK    3  A    between atoms: C_3  and  O_13 
REMARK    4  A    between atoms: C_5  and  O_15 
ROOT
HETATM    1  C   UNK N   1      20.822  19.934   2.495  0.00  0.00     0.162 C 
HETATM    2  C   UNK N   1      20.476  18.429   2.319  0.00  0.00     0.176 C 
HETATM    3  C   UNK N   1      20.764  17.689   3.646  0.00  0.00     0.185 C 
HETATM    4  C   UNK N   1      22.270  17.757   4.022  0.00  0.00     0.219 C 
HETATM    5  C   UNK N   1      22.856  19.093   3.665  0.00  0.00     0.141 A 
HETATM    6  N   UNK N   1      24.115  19.501   3.899  0.00  0.00    -0.271 N 
ATOM      7  HN  UNK N   1      24.848  18.989   4.390  1.00  0.00     0.185 HD
HETATM    8  N   UNK N   1      24.204  20.710   3.355  0.00  0.00    -0.007 NA
HETATM    9  N   UNK N   1      23.043  21.033   2.796  0.00  0.00    -0.004 NA
HETATM   10  N   UNK N   1      22.198  20.036   2.981  0.00  0.00    -0.253 N 
HETATM   11  O   UNK N   1      20.002  18.270   4.666  0.00  0.00    -0.390 OA
HETATM   12  H   UNK N   1      19.493  18.778   5.316  0.00  0.00     0.210 HD
ENDROOT
BRANCH   2  13
HETATM   13  O   UNK N   1      19.130  18.275   1.972  0.00  0.00    -0.391 OA
HETATM   14  H   UNK N   1      18.855  18.215   1.044  0.00  0.00     0.210 HD
ENDBRANCH   2  13
BRANCH   4  15
HETATM   15  O   UNK N   1      22.976  16.780   3.316  0.00  0.00    -0.385 OA
HETATM   16  H   UNK N   1      23.618  16.365   2.719  0.00  0.00     0.210 HD
ENDBRANCH   4  15
BRANCH   1  17
HETATM   17  C   UNK N   1      20.639  20.733   1.206  0.00  0.00     0.193 C 
BRANCH  17  18
HETATM   18  O   UNK N   1      20.662  19.885   0.096  0.00  0.00    -0.399 OA
HETATM   19  H   UNK N   1      21.036  18.991   0.119  0.00  0.00     0.209 HD
ENDBRANCH  17  18
ENDBRANCH   1  17
TORSDOF 4
ENDMDL
MODEL 9
REMARK VINA RESULT:      -4.9      3.931      5.079
REMARK  4 active torsions:
REMARK  status: ('A' for Active; 'I' for Inactive)
REMARK    1  A    between atoms: C_2  and  C_1 
REMARK    2  A    between atoms: O_12  and  C_1 
REMARK    3  A    between atoms: C_3  and  O_13 
REMARK    4  A    between atoms: C_5  and  O_15 
ROOT
HETATM    1  C   UNK N   1      36.501  12.634  12.268  0.00  0.00     0.162 C 
HETATM    2  C   UNK N   1      35.836  13.929  12.811  0.00  0.00     0.176 C 
HETATM    3  C   UNK N   1      35.129  14.657  11.643  0.00  0.00     0.185 C 
HETATM    4  C   UNK N   1      36.140  15.101  10.551  0.00  0.00     0.219 C 
HETATM    5  C   UNK N   1      37.218  14.072  10.364  0.00  0.00     0.141 A 
HETATM    6  N   UNK N   1      38.219  14.119   9.467  0.00  0.00    -0.271 N 
ATOM      7  HN  UNK N   1      38.374  14.830   8.752  1.00  0.00     0.185 HD
HETATM    8  N   UNK N   1      38.963  13.045   9.710  0.00  0.00    -0.007 NA
HETATM    9  N   UNK N   1      38.446  12.366  10.727  0.00  0.00    -0.004 NA
HETATM   10  N   UNK N   1      37.363  12.994  11.142  0.00  0.00    -0.253 N 
HETATM   11  O   UNK N   1      34.180  13.797  11.080  0.00  0.00    -0.390 OA
HETATM   12  H   UNK N   1      33.600  13.112  10.713  0.00  0.00     0.210 HD
ENDROOT
BRANCH   2  13
HETATM   13  O   UNK N   1      34.908  13.622  13.810  0.00  0.00    -0.391 OA
HETATM   14  H   UNK N   1      34.783  12.709  14.114  0.00  0.00     0.210 HD
ENDBRANCH   2  13
BRANCH   4  15
HETATM   15  O   UNK N   1      36.752  16.296  10.933  0.00  0.00    -0.385 OA
HETATM   16  H   UNK N   1      37.277  17.111  10.892  0.00  0.00     0.210 HD
ENDBRANCH   4  15
BRANCH   1  17
HETATM   17  C   UNK N   1      37.291  11.886  13.340  0.00  0.00     0.193 C 
BRANCH  17  18
HETATM   18  O   UNK N   1      37.587  12.732  14.412  0.00  0.00    -0.399 OA
HETATM   19  H   UNK N   1      38.171  12.478  15.142  0.00  0.00     0.209 HD
ENDBRANCH  17  18
ENDBRANCH   1  17
TORSDOF 4
ENDMDL
