MODEL 1
REMARK VINA RESULT:      -9.9      0.000      0.000
REMARK  7 active torsions:
REMARK  status: ('A' for Active; 'I' for Inactive)
REMARK    1  A    between atoms: C_2  and  N_5 
REMARK    2  A    between atoms: C_8  and  O_11 
REMARK    3  A    between atoms: O_11  and  C_12 
REMARK    4  A    between atoms: N_18  and  C_19 
REMARK    5  A    between atoms: C_19  and  C_20 
REMARK    6  A    between atoms: C_26  and  C_30 
REMARK    7  A    between atoms: C_30  and  N_31 
ROOT
HETATM    1  C   UNK N   1      26.440  18.557   4.190  0.00  0.00     0.071 A 
HETATM    2  C   UNK N   1      26.258  19.864   3.654  0.00  0.00     0.038 A 
HETATM    3  C   UNK N   1      24.970  20.342   3.343  0.00  0.00     0.017 A 
HETATM    4  C   UNK N   1      23.892  19.486   3.562  0.00  0.00     0.003 A 
HETATM    5  C   UNK N   1      24.061  18.227   4.097  0.00  0.00     0.049 A 
HETATM    6  C   UNK N   1      25.320  17.740   4.431  0.00  0.00     0.067 A 
HETATM    7  N   UNK N   1      22.880  17.565   4.147  0.00  0.00    -0.341 N 
HETATM    8  C   UNK N   1      21.959  18.415   3.630  0.00  0.00     0.046 A 
HETATM    9  C   UNK N   1      22.553  19.611   3.271  0.00  0.00     0.003 A 
HETATM   10  C   UNK N   1      21.835  20.641   2.669  0.00  0.00     0.014 A 
HETATM   11  C   UNK N   1      20.462  20.433   2.438  0.00  0.00     0.001 A 
HETATM   12  C   UNK N   1      19.852  19.209   2.796  0.00  0.00     0.002 A 
HETATM   13  C   UNK N   1      20.605  18.182   3.392  0.00  0.00     0.030 A 
ENDROOT
BRANCH   7  14
HETATM   14  C   UNK N   1      22.724  16.153   4.516  0.00  0.00     0.168 C 
BRANCH  14  15
HETATM   15  C   UNK N   1      22.194  15.837   5.886  0.00  0.00    -0.039 A 
HETATM   16  C   UNK N   1      20.855  16.077   6.221  0.00  0.00     0.010 A 
HETATM   17  C   UNK N   1      20.316  15.573   7.408  0.00  0.00     0.013 A 
HETATM   18  C   UNK N   1      21.102  14.784   8.251  0.00  0.00    -0.026 A 
HETATM   19  C   UNK N   1      20.546  14.212   9.398  0.00  0.00     0.013 A 
HETATM   20  C   UNK N   1      22.452  14.537   7.923  0.00  0.00    -0.025 A 
HETATM   21  C   UNK N   1      21.324  13.382  10.211  0.00  0.00     0.016 A 
HETATM   22  C   UNK N   1      22.666  13.126   9.893  0.00  0.00     0.008 A 
HETATM   23  C   UNK N   1      23.228  13.716   8.747  0.00  0.00     0.027 A 
HETATM   24  C   UNK N   1      22.990  15.065   6.744  0.00  0.00     0.021 A 
BRANCH  22  25
HETATM   25  C   UNK N   1      23.470  12.222  10.745  0.00  0.00     0.102 C 
HETATM   26  N   UNK N   1      22.916  11.235  11.350  0.00  0.00    -0.385 N 
HETATM   27  H   UNK N   1      21.947  11.075  11.282  0.00  0.00     0.157 HD
ATOM     28  HN  UNK N   1      23.490  10.605  11.910  1.00  0.00     0.157 HD
BRANCH  25  29
HETATM   29  N   UNK N   1      24.851  12.462  10.933  0.00  0.00    -0.385 N 
HETATM   30  H   UNK N   1      25.408  11.822  11.433  0.00  0.00     0.157 HD
HETATM   31  H   UNK N   1      25.259  13.277  10.561  0.00  0.00     0.157 HD
ENDBRANCH  25  29
ENDBRANCH  22  25
ENDBRANCH  14  15
ENDBRANCH   7  14
BRANCH   1  32
HETATM   32  O   UNK N   1      27.672  18.032   4.407  0.00  0.00    -0.346 OA
BRANCH  32  33
HETATM   33  C   UNK N   1      28.120  17.481   5.597  0.00  0.00     0.132 C 
HETATM   34  C   UNK N   1      29.225  16.427   5.408  0.00  0.00     0.052 C 
HETATM   35  C   UNK N   1      30.532  16.845   6.088  0.00  0.00     0.126 C 
HETATM   36  N   UNK N   1      30.305  17.226   7.475  0.00  0.00    -0.371 N 
HETATM   37  C   UNK N   1      29.019  17.768   7.886  0.00  0.00     0.126 C 
HETATM   38  C   UNK N   1      28.355  18.491   6.717  0.00  0.00     0.052 C 
BRANCH  36  39
HETATM   39  C   UNK N   1      31.376  17.136   8.416  0.00  0.00     0.068 C 
HETATM   40  C   UNK N   1      32.632  17.924   8.223  0.00  0.00     0.088 C 
HETATM   41  N   UNK N   1      31.267  16.388   9.453  0.00  0.00    -0.389 N 
HETATM   42  H   UNK N   1      30.530  15.750   9.588  0.00  0.00     0.157 HD
ATOM     43  HN  UNK N   1      31.983  16.457  10.175  1.00  0.00     0.157 HD
ENDBRANCH  36  39
ENDBRANCH  32  33
ENDBRANCH   1  32
TORSDOF 7
ENDMDL
MODEL 2
REMARK VINA RESULT:      -9.4      2.689      7.698
REMARK  7 active torsions:
REMARK  status: ('A' for Active; 'I' for Inactive)
REMARK    1  A    between atoms: C_2  and  N_5 
REMARK    2  A    between atoms: C_8  and  O_11 
REMARK    3  A    between atoms: O_11  and  C_12 
REMARK    4  A    between atoms: N_18  and  C_19 
REMARK    5  A    between atoms: C_19  and  C_20 
REMARK    6  A    between atoms: C_26  and  C_30 
REMARK    7  A    between atoms: C_30  and  N_31 
ROOT
HETATM    1  C   UNK N   1      20.232  13.471   5.912  0.00  0.00     0.071 A 
HETATM    2  C   UNK N   1      19.661  12.590   4.950  0.00  0.00     0.038 A 
HETATM    3  C   UNK N   1      19.499  12.995   3.610  0.00  0.00     0.017 A 
HETATM    4  C   UNK N   1      19.900  14.287   3.272  0.00  0.00     0.003 A 
HETATM    5  C   UNK N   1      20.469  15.136   4.196  0.00  0.00     0.049 A 
HETATM    6  C   UNK N   1      20.658  14.753   5.519  0.00  0.00     0.067 A 
HETATM    7  N   UNK N   1      20.707  16.352   3.646  0.00  0.00    -0.341 N 
HETATM    8  C   UNK N   1      20.275  16.268   2.365  0.00  0.00     0.046 A 
HETATM    9  C   UNK N   1      19.781  15.002   2.102  0.00  0.00     0.003 A 
HETATM   10  C   UNK N   1      19.230  14.665   0.869  0.00  0.00     0.014 A 
HETATM   11  C   UNK N   1      19.191  15.661  -0.124  0.00  0.00     0.001 A 
HETATM   12  C   UNK N   1      19.686  16.958   0.141  0.00  0.00     0.002 A 
HETATM   13  C   UNK N   1      20.228  17.273   1.400  0.00  0.00     0.030 A 
ENDROOT
BRANCH   7  14
HETATM   14  C   UNK N   1      21.162  17.534   4.388  0.00  0.00     0.168 C 
BRANCH  14  15
HETATM   15  C   UNK N   1      22.424  18.209   3.932  0.00  0.00    -0.039 A 
HETATM   16  C   UNK N   1      22.401  19.495   3.377  0.00  0.00     0.010 A 
HETATM   17  C   UNK N   1      23.588  20.204   3.169  0.00  0.00     0.013 A 
HETATM   18  C   UNK N   1      24.809  19.648   3.558  0.00  0.00    -0.026 A 
HETATM   19  C   UNK N   1      25.990  20.383   3.427  0.00  0.00     0.013 A 
HETATM   20  C   UNK N   1      24.844  18.352   4.118  0.00  0.00    -0.025 A 
HETATM   21  C   UNK N   1      27.202  19.841   3.865  0.00  0.00     0.016 A 
HETATM   22  C   UNK N   1      27.248  18.556   4.426  0.00  0.00     0.008 A 
HETATM   23  C   UNK N   1      26.061  17.811   4.543  0.00  0.00     0.027 A 
HETATM   24  C   UNK N   1      23.652  17.641   4.300  0.00  0.00     0.021 A 
BRANCH  22  25
HETATM   25  C   UNK N   1      28.532  18.006   4.913  0.00  0.00     0.102 C 
HETATM   26  N   UNK N   1      29.575  18.030   4.166  0.00  0.00    -0.385 N 
HETATM   27  H   UNK N   1      29.538  18.387   3.249  0.00  0.00     0.157 HD
ATOM     28  HN  UNK N   1      30.459  17.673   4.529  1.00  0.00     0.157 HD
BRANCH  25  29
HETATM   29  N   UNK N   1      28.612  17.412   6.194  0.00  0.00    -0.385 N 
HETATM   30  H   UNK N   1      27.901  16.809   6.513  0.00  0.00     0.157 HD
HETATM   31  H   UNK N   1      29.385  17.603   6.772  0.00  0.00     0.157 HD
ENDBRANCH  25  29
ENDBRANCH  22  25
ENDBRANCH  14  15
ENDBRANCH   7  14
BRANCH   1  32
HETATM   32  O   UNK N   1      20.311  13.147   7.228  0.00  0.00    -0.346 OA
BRANCH  32  33
HETATM   33  C   UNK N   1      21.360  13.460   8.077  0.00  0.00     0.132 C 
HETATM   34  C   UNK N   1      20.912  13.777   9.516  0.00  0.00     0.052 C 
HETATM   35  C   UNK N   1      21.499  12.786  10.525  0.00  0.00     0.126 C 
HETATM   36  N   UNK N   1      22.941  12.664  10.366  0.00  0.00    -0.371 N 
HETATM   37  C   UNK N   1      23.558  12.892   9.067  0.00  0.00     0.126 C 
HETATM   38  C   UNK N   1      22.575  12.546   7.950  0.00  0.00     0.052 C 
BRANCH  36  39
HETATM   39  C   UNK N   1      23.741  12.246  11.472  0.00  0.00     0.068 C 
HETATM   40  C   UNK N   1      23.108  11.850  12.768  0.00  0.00     0.088 C 
HETATM   41  N   UNK N   1      25.018  12.188  11.363  0.00  0.00    -0.389 N 
HETATM   42  H   UNK N   1      25.516  12.544  10.592  0.00  0.00     0.157 HD
ATOM     43  HN  UNK N   1      25.548  11.749  12.116  1.00  0.00     0.157 HD
ENDBRANCH  36  39
ENDBRANCH  32  33
ENDBRANCH   1  32
TORSDOF 7
ENDMDL
MODEL 3
REMARK VINA RESULT:      -9.2      2.109      8.093
REMARK  7 active torsions:
REMARK  status: ('A' for Active; 'I' for Inactive)
REMARK    1  A    between atoms: C_2  and  N_5 
REMARK    2  A    between atoms: C_8  and  O_11 
REMARK    3  A    between atoms: O_11  and  C_12 
REMARK    4  A    between atoms: N_18  and  C_19 
REMARK    5  A    between atoms: C_19  and  C_20 
REMARK    6  A    between atoms: C_26  and  C_30 
REMARK    7  A    between atoms: C_30  and  N_31 
ROOT
HETATM    1  C   UNK N   1      22.332  15.679   6.009  0.00  0.00     0.071 A 
HETATM    2  C   UNK N   1      21.471  16.731   5.587  0.00  0.00     0.038 A 
HETATM    3  C   UNK N   1      21.972  17.816   4.840  0.00  0.00     0.017 A 
HETATM    4  C   UNK N   1      23.336  17.826   4.550  0.00  0.00     0.003 A 
HETATM    5  C   UNK N   1      24.170  16.801   4.942  0.00  0.00     0.049 A 
HETATM    6  C   UNK N   1      23.696  15.711   5.662  0.00  0.00     0.067 A 
HETATM    7  N   UNK N   1      25.454  17.074   4.606  0.00  0.00    -0.341 N 
HETATM    8  C   UNK N   1      25.427  18.287   4.003  0.00  0.00     0.046 A 
HETATM    9  C   UNK N   1      24.133  18.771   3.945  0.00  0.00     0.003 A 
HETATM   10  C   UNK N   1      23.835  20.023   3.416  0.00  0.00     0.014 A 
HETATM   11  C   UNK N   1      24.903  20.797   2.926  0.00  0.00     0.001 A 
HETATM   12  C   UNK N   1      26.229  20.312   2.990  0.00  0.00     0.002 A 
HETATM   13  C   UNK N   1      26.501  19.047   3.541  0.00  0.00     0.030 A 
ENDROOT
BRANCH   7  14
HETATM   14  C   UNK N   1      26.615  16.271   5.009  0.00  0.00     0.168 C 
BRANCH  14  15
HETATM   15  C   UNK N   1      27.587  16.878   5.982  0.00  0.00    -0.039 A 
HETATM   16  C   UNK N   1      27.209  17.173   7.298  0.00  0.00     0.010 A 
HETATM   17  C   UNK N   1      28.169  17.517   8.255  0.00  0.00     0.013 A 
HETATM   18  C   UNK N   1      29.522  17.525   7.913  0.00  0.00    -0.026 A 
HETATM   19  C   UNK N   1      30.492  17.790   8.884  0.00  0.00     0.013 A 
HETATM   20  C   UNK N   1      29.914  17.230   6.589  0.00  0.00    -0.025 A 
HETATM   21  C   UNK N   1      31.848  17.746   8.547  0.00  0.00     0.016 A 
HETATM   22  C   UNK N   1      32.248  17.450   7.235  0.00  0.00     0.008 A 
HETATM   23  C   UNK N   1      31.271  17.199   6.256  0.00  0.00     0.027 A 
HETATM   24  C   UNK N   1      28.945  16.908   5.632  0.00  0.00     0.021 A 
BRANCH  22  25
HETATM   25  C   UNK N   1      33.687  17.378   6.899  0.00  0.00     0.102 C 
HETATM   26  N   UNK N   1      34.561  17.931   7.658  0.00  0.00    -0.385 N 
HETATM   27  H   UNK N   1      34.294  18.435   8.461  0.00  0.00     0.157 HD
ATOM     28  HN  UNK N   1      35.551  17.846   7.427  1.00  0.00     0.157 HD
BRANCH  25  29
HETATM   29  N   UNK N   1      34.110  16.730   5.715  0.00  0.00    -0.385 N 
HETATM   30  H   UNK N   1      33.729  15.860   5.456  0.00  0.00     0.157 HD
HETATM   31  H   UNK N   1      34.790  17.155   5.144  0.00  0.00     0.157 HD
ENDBRANCH  25  29
ENDBRANCH  22  25
ENDBRANCH  14  15
ENDBRANCH   7  14
BRANCH   1  32
HETATM   32  O   UNK N   1      21.901  14.673   6.812  0.00  0.00    -0.346 OA
BRANCH  32  33
HETATM   33  C   UNK N   1      22.263  14.482   8.136  0.00  0.00     0.132 C 
HETATM   34  C   UNK N   1      21.137  14.809   9.134  0.00  0.00     0.052 C 
HETATM   35  C   UNK N   1      20.725  13.580   9.948  0.00  0.00     0.126 C 
HETATM   36  N   UNK N   1      21.882  12.935  10.551  0.00  0.00    -0.371 N 
HETATM   37  C   UNK N   1      23.189  13.032   9.917  0.00  0.00     0.126 C 
HETATM   38  C   UNK N   1      23.030  13.191   8.406  0.00  0.00     0.052 C 
BRANCH  36  39
HETATM   39  C   UNK N   1      21.717  12.142  11.727  0.00  0.00     0.068 C 
HETATM   40  C   UNK N   1      22.888  11.804  12.593  0.00  0.00     0.088 C 
HETATM   41  N   UNK N   1      20.553  11.720  12.066  0.00  0.00    -0.389 N 
HETATM   42  H   UNK N   1      19.758  11.795  11.491  0.00  0.00     0.157 HD
ATOM     43  HN  UNK N   1      20.447  11.284  12.982  1.00  0.00     0.157 HD
ENDBRANCH  36  39
ENDBRANCH  32  33
ENDBRANCH   1  32
TORSDOF 7
ENDMDL
MODEL 4
REMARK VINA RESULT:      -8.8      4.338      9.079
REMARK  7 active torsions:
REMARK  status: ('A' for Active; 'I' for Inactive)
REMARK    1  A    between atoms: C_2  and  N_5 
REMARK    2  A    between atoms: C_8  and  O_11 
REMARK    3  A    between atoms: O_11  and  C_12 
REMARK    4  A    between atoms: N_18  and  C_19 
REMARK    5  A    between atoms: C_19  and  C_20 
REMARK    6  A    between atoms: C_26  and  C_30 
REMARK    7  A    between atoms: C_30  and  N_31 
ROOT
HETATM    1  C   UNK N   1      26.398  13.974   2.523  0.00  0.00     0.071 A 
HETATM    2  C   UNK N   1      27.484  13.639   1.665  0.00  0.00     0.038 A 
HETATM    3  C   UNK N   1      28.761  14.200   1.866  0.00  0.00     0.017 A 
HETATM    4  C   UNK N   1      28.912  15.102   2.918  0.00  0.00     0.003 A 
HETATM    5  C   UNK N   1      27.868  15.416   3.762  0.00  0.00     0.049 A 
HETATM    6  C   UNK N   1      26.604  14.860   3.596  0.00  0.00     0.067 A 
HETATM    7  N   UNK N   1      28.243  16.363   4.655  0.00  0.00    -0.341 N 
HETATM    8  C   UNK N   1      29.534  16.654   4.365  0.00  0.00     0.046 A 
HETATM    9  C   UNK N   1      29.977  15.884   3.305  0.00  0.00     0.003 A 
HETATM   10  C   UNK N   1      31.256  16.021   2.775  0.00  0.00     0.014 A 
HETATM   11  C   UNK N   1      32.108  16.977   3.361  0.00  0.00     0.001 A 
HETATM   12  C   UNK N   1      31.657  17.772   4.439  0.00  0.00     0.002 A 
HETATM   13  C   UNK N   1      30.355  17.619   4.946  0.00  0.00     0.030 A 
ENDROOT
BRANCH   7  14
HETATM   14  C   UNK N   1      27.337  17.035   5.596  0.00  0.00     0.168 C 
BRANCH  14  15
HETATM   15  C   UNK N   1      26.436  18.111   5.058  0.00  0.00    -0.039 A 
HETATM   16  C   UNK N   1      26.959  19.262   4.455  0.00  0.00     0.010 A 
HETATM   17  C   UNK N   1      26.126  20.142   3.757  0.00  0.00     0.013 A 
HETATM   18  C   UNK N   1      24.767  19.853   3.619  0.00  0.00    -0.026 A 
HETATM   19  C   UNK N   1      23.945  20.687   2.856  0.00  0.00     0.013 A 
HETATM   20  C   UNK N   1      24.230  18.696   4.224  0.00  0.00    -0.025 A 
HETATM   21  C   UNK N   1      22.596  20.365   2.678  0.00  0.00     0.016 A 
HETATM   22  C   UNK N   1      22.052  19.216   3.272  0.00  0.00     0.008 A 
HETATM   23  C   UNK N   1      22.877  18.387   4.052  0.00  0.00     0.027 A 
HETATM   24  C   UNK N   1      25.067  17.833   4.940  0.00  0.00     0.021 A 
BRANCH  22  25
HETATM   25  C   UNK N   1      20.631  18.870   3.051  0.00  0.00     0.102 C 
HETATM   26  N   UNK N   1      19.927  19.524   2.201  0.00  0.00    -0.385 N 
HETATM   27  H   UNK N   1      20.306  20.282   1.700  0.00  0.00     0.157 HD
ATOM     28  HN  UNK N   1      18.956  19.254   2.041  1.00  0.00     0.157 HD
BRANCH  25  29
HETATM   29  N   UNK N   1      20.023  17.840   3.806  0.00  0.00    -0.385 N 
HETATM   30  H   UNK N   1      20.289  16.901   3.677  0.00  0.00     0.157 HD
HETATM   31  H   UNK N   1      19.329  18.064   4.467  0.00  0.00     0.157 HD
ENDBRANCH  25  29
ENDBRANCH  22  25
ENDBRANCH  14  15
ENDBRANCH   7  14
BRANCH   1  32
HETATM   32  O   UNK N   1      25.137  13.528   2.296  0.00  0.00    -0.346 OA
BRANCH  32  33
HETATM   33  C   UNK N   1      24.091  14.281   1.785  0.00  0.00     0.132 C 
HETATM   34  C   UNK N   1      23.556  13.756   0.441  0.00  0.00     0.052 C 
HETATM   35  C   UNK N   1      22.088  13.332   0.541  0.00  0.00     0.126 C 
HETATM   36  N   UNK N   1      21.275  14.384   1.133  0.00  0.00    -0.371 N 
HETATM   37  C   UNK N   1      21.865  15.328   2.070  0.00  0.00     0.126 C 
HETATM   38  C   UNK N   1      23.031  14.676   2.809  0.00  0.00     0.052 C 
BRANCH  36  39
HETATM   39  C   UNK N   1      19.876  14.440   0.850  0.00  0.00     0.068 C 
HETATM   40  C   UNK N   1      19.139  13.223   0.390  0.00  0.00     0.088 C 
HETATM   41  N   UNK N   1      19.227  15.537   1.002  0.00  0.00    -0.389 N 
HETATM   42  H   UNK N   1      19.658  16.403   1.182  0.00  0.00     0.157 HD
ATOM     43  HN  UNK N   1      18.210  15.509   0.933  1.00  0.00     0.157 HD
ENDBRANCH  36  39
ENDBRANCH  32  33
ENDBRANCH   1  32
TORSDOF 7
ENDMDL
MODEL 5
REMARK VINA RESULT:      -8.7      5.556      7.354
REMARK  7 active torsions:
REMARK  status: ('A' for Active; 'I' for Inactive)
REMARK    1  A    between atoms: C_2  and  N_5 
REMARK    2  A    between atoms: C_8  and  O_11 
REMARK    3  A    between atoms: O_11  and  C_12 
REMARK    4  A    between atoms: N_18  and  C_19 
REMARK    5  A    between atoms: C_19  and  C_20 
REMARK    6  A    between atoms: C_26  and  C_30 
REMARK    7  A    between atoms: C_30  and  N_31 
ROOT
HETATM    1  C   UNK N   1      30.337  16.919   8.743  0.00  0.00     0.071 A 
HETATM    2  C   UNK N   1      29.540  17.817   9.508  0.00  0.00     0.038 A 
HETATM    3  C   UNK N   1      28.613  18.673   8.879  0.00  0.00     0.017 A 
HETATM    4  C   UNK N   1      28.524  18.618   7.489  0.00  0.00     0.003 A 
HETATM    5  C   UNK N   1      29.281  17.738   6.746  0.00  0.00     0.049 A 
HETATM    6  C   UNK N   1      30.187  16.870   7.344  0.00  0.00     0.067 A 
HETATM    7  N   UNK N   1      29.067  17.924   5.421  0.00  0.00    -0.341 N 
HETATM    8  C   UNK N   1      28.172  18.937   5.330  0.00  0.00     0.046 A 
HETATM    9  C   UNK N   1      27.811  19.378   6.590  0.00  0.00     0.003 A 
HETATM   10  C   UNK N   1      26.938  20.446   6.777  0.00  0.00     0.014 A 
HETATM   11  C   UNK N   1      26.416  21.074   5.630  0.00  0.00     0.001 A 
HETATM   12  C   UNK N   1      26.789  20.633   4.340  0.00  0.00     0.002 A 
HETATM   13  C   UNK N   1      27.682  19.558   4.182  0.00  0.00     0.030 A 
ENDROOT
BRANCH   7  14
HETATM   14  C   UNK N   1      29.823  17.264   4.348  0.00  0.00     0.168 C 
BRANCH  14  15
HETATM   15  C   UNK N   1      29.234  16.029   3.729  0.00  0.00    -0.039 A 
HETATM   16  C   UNK N   1      29.742  14.757   4.020  0.00  0.00     0.010 A 
HETATM   17  C   UNK N   1      29.051  13.606   3.627  0.00  0.00     0.013 A 
HETATM   18  C   UNK N   1      27.820  13.720   2.978  0.00  0.00    -0.026 A 
HETATM   19  C   UNK N   1      27.088  12.575   2.655  0.00  0.00     0.013 A 
HETATM   20  C   UNK N   1      27.299  14.997   2.680  0.00  0.00    -0.025 A 
HETATM   21  C   UNK N   1      25.832  12.696   2.051  0.00  0.00     0.016 A 
HETATM   22  C   UNK N   1      25.303  13.961   1.753  0.00  0.00     0.008 A 
HETATM   23  C   UNK N   1      26.049  15.112   2.065  0.00  0.00     0.027 A 
HETATM   24  C   UNK N   1      28.009  16.143   3.056  0.00  0.00     0.021 A 
BRANCH  22  25
HETATM   25  C   UNK N   1      23.961  14.076   1.141  0.00  0.00     0.102 C 
HETATM   26  N   UNK N   1      23.700  13.490   0.031  0.00  0.00    -0.385 N 
HETATM   27  H   UNK N   1      24.389  12.976  -0.450  0.00  0.00     0.157 HD
ATOM     28  HN  UNK N   1      22.761  13.557  -0.362  1.00  0.00     0.157 HD
BRANCH  25  29
HETATM   29  N   UNK N   1      22.964  14.869   1.757  0.00  0.00    -0.385 N 
HETATM   30  H   UNK N   1      23.003  15.851   1.707  0.00  0.00     0.157 HD
HETATM   31  H   UNK N   1      22.225  14.433   2.239  0.00  0.00     0.157 HD
ENDBRANCH  25  29
ENDBRANCH  22  25
ENDBRANCH  14  15
ENDBRANCH   7  14
BRANCH   1  32
HETATM   32  O   UNK N   1      31.306  16.155   9.308  0.00  0.00    -0.346 OA
BRANCH  32  33
HETATM   33  C   UNK N   1      32.507  15.801   8.714  0.00  0.00     0.132 C 
HETATM   34  C   UNK N   1      33.630  16.830   8.938  0.00  0.00     0.052 C 
HETATM   35  C   UNK N   1      34.805  16.229   9.714  0.00  0.00     0.126 C 
HETATM   36  N   UNK N   1      35.254  14.984   9.109  0.00  0.00    -0.371 N 
HETATM   37  C   UNK N   1      34.320  14.151   8.365  0.00  0.00     0.126 C 
HETATM   38  C   UNK N   1      32.904  14.340   8.903  0.00  0.00     0.052 C 
BRANCH  36  39
HETATM   39  C   UNK N   1      36.597  14.543   9.312  0.00  0.00     0.068 C 
HETATM   40  C   UNK N   1      37.292  13.706   8.285  0.00  0.00     0.088 C 
HETATM   41  N   UNK N   1      37.234  14.874  10.376  0.00  0.00    -0.389 N 
HETATM   42  H   UNK N   1      36.812  15.316  11.147  0.00  0.00     0.157 HD
ATOM     43  HN  UNK N   1      38.232  14.669  10.424  1.00  0.00     0.157 HD
ENDBRANCH  36  39
ENDBRANCH  32  33
ENDBRANCH   1  32
TORSDOF 7
ENDMDL
MODEL 6
REMARK VINA RESULT:      -8.7      1.954      2.798
REMARK  7 active torsions:
REMARK  status: ('A' for Active; 'I' for Inactive)
REMARK    1  A    between atoms: C_2  and  N_5 
REMARK    2  A    between atoms: C_8  and  O_11 
REMARK    3  A    between atoms: O_11  and  C_12 
REMARK    4  A    between atoms: N_18  and  C_19 
REMARK    5  A    between atoms: C_19  and  C_20 
REMARK    6  A    between atoms: C_26  and  C_30 
REMARK    7  A    between atoms: C_30  and  N_31 
ROOT
HETATM    1  C   UNK N   1      25.998  16.415   3.382  0.00  0.00     0.071 A 
HETATM    2  C   UNK N   1      25.996  15.391   2.393  0.00  0.00     0.038 A 
HETATM    3  C   UNK N   1      24.785  14.827   1.943  0.00  0.00     0.017 A 
HETATM    4  C   UNK N   1      23.603  15.295   2.514  0.00  0.00     0.003 A 
HETATM    5  C   UNK N   1      23.599  16.298   3.459  0.00  0.00     0.049 A 
HETATM    6  C   UNK N   1      24.779  16.884   3.904  0.00  0.00     0.067 A 
HETATM    7  N   UNK N   1      22.342  16.527   3.909  0.00  0.00    -0.341 N 
HETATM    8  C   UNK N   1      21.548  15.653   3.246  0.00  0.00     0.046 A 
HETATM    9  C   UNK N   1      22.296  14.887   2.371  0.00  0.00     0.003 A 
HETATM   10  C   UNK N   1      21.727  13.876   1.601  0.00  0.00     0.014 A 
HETATM   11  C   UNK N   1      20.344  13.654   1.732  0.00  0.00     0.001 A 
HETATM   12  C   UNK N   1      19.576  14.428   2.632  0.00  0.00     0.002 A 
HETATM   13  C   UNK N   1      20.180  15.434   3.405  0.00  0.00     0.030 A 
ENDROOT
BRANCH   7  14
HETATM   14  C   UNK N   1      22.000  17.418   5.026  0.00  0.00     0.168 C 
BRANCH  14  15
HETATM   15  C   UNK N   1      21.657  16.791   6.347  0.00  0.00    -0.039 A 
HETATM   16  C   UNK N   1      20.498  17.153   7.045  0.00  0.00     0.010 A 
HETATM   17  C   UNK N   1      20.068  16.410   8.148  0.00  0.00     0.013 A 
HETATM   18  C   UNK N   1      20.772  15.268   8.536  0.00  0.00    -0.026 A 
HETATM   19  C   UNK N   1      20.303  14.476   9.587  0.00  0.00     0.013 A 
HETATM   20  C   UNK N   1      21.942  14.894   7.840  0.00  0.00    -0.025 A 
HETATM   21  C   UNK N   1      20.983  13.306   9.938  0.00  0.00     0.016 A 
HETATM   22  C   UNK N   1      22.145  12.923   9.251  0.00  0.00     0.008 A 
HETATM   23  C   UNK N   1      22.625  13.729   8.203  0.00  0.00     0.027 A 
HETATM   24  C   UNK N   1      22.378  15.657   6.751  0.00  0.00     0.021 A 
BRANCH  22  25
HETATM   25  C   UNK N   1      22.839  11.667   9.612  0.00  0.00     0.102 C 
HETATM   26  N   UNK N   1      22.789  11.219  10.813  0.00  0.00    -0.385 N 
HETATM   27  H   UNK N   1      22.315  11.711  11.522  0.00  0.00     0.157 HD
ATOM     28  HN  UNK N   1      23.249  10.337  11.037  1.00  0.00     0.157 HD
BRANCH  25  29
HETATM   29  N   UNK N   1      23.597  10.969   8.643  0.00  0.00    -0.385 N 
HETATM   30  H   UNK N   1      23.717   9.994   8.708  0.00  0.00     0.157 HD
HETATM   31  H   UNK N   1      24.008  11.463   7.897  0.00  0.00     0.157 HD
ENDBRANCH  25  29
ENDBRANCH  22  25
ENDBRANCH  14  15
ENDBRANCH   7  14
BRANCH   1  32
HETATM   32  O   UNK N   1      27.149  16.907   3.907  0.00  0.00    -0.346 OA
BRANCH  32  33
HETATM   33  C   UNK N   1      27.361  17.225   5.239  0.00  0.00     0.132 C 
HETATM   34  C   UNK N   1      27.992  16.078   6.051  0.00  0.00     0.052 C 
HETATM   35  C   UNK N   1      29.361  16.468   6.613  0.00  0.00     0.126 C 
HETATM   36  N   UNK N   1      29.296  17.734   7.328  0.00  0.00    -0.371 N 
HETATM   37  C   UNK N   1      28.307  18.736   6.957  0.00  0.00     0.126 C 
HETATM   38  C   UNK N   1      27.959  18.608   5.476  0.00  0.00     0.052 C 
BRANCH  36  39
HETATM   39  C   UNK N   1      30.258  18.022   8.344  0.00  0.00     0.068 C 
HETATM   40  C   UNK N   1      29.852  18.711   9.608  0.00  0.00     0.088 C 
HETATM   41  N   UNK N   1      31.485  17.678   8.192  0.00  0.00    -0.389 N 
HETATM   42  H   UNK N   1      31.853  17.335   7.346  0.00  0.00     0.157 HD
ATOM     43  HN  UNK N   1      32.113  17.766   8.991  1.00  0.00     0.157 HD
ENDBRANCH  36  39
ENDBRANCH  32  33
ENDBRANCH   1  32
TORSDOF 7
ENDMDL
MODEL 7
REMARK VINA RESULT:      -8.7      2.909      8.819
REMARK  7 active torsions:
REMARK  status: ('A' for Active; 'I' for Inactive)
REMARK    1  A    between atoms: C_2  and  N_5 
REMARK    2  A    between atoms: C_8  and  O_11 
REMARK    3  A    between atoms: O_11  and  C_12 
REMARK    4  A    between atoms: N_18  and  C_19 
REMARK    5  A    between atoms: C_19  and  C_20 
REMARK    6  A    between atoms: C_26  and  C_30 
REMARK    7  A    between atoms: C_30  and  N_31 
ROOT
HETATM    1  C   UNK N   1      25.258  14.139   5.547  0.00  0.00     0.071 A 
HETATM    2  C   UNK N   1      24.613  14.592   4.361  0.00  0.00     0.038 A 
HETATM    3  C   UNK N   1      24.861  15.884   3.855  0.00  0.00     0.017 A 
HETATM    4  C   UNK N   1      25.741  16.699   4.565  0.00  0.00     0.003 A 
HETATM    5  C   UNK N   1      26.382  16.258   5.703  0.00  0.00     0.049 A 
HETATM    6  C   UNK N   1      26.169  14.981   6.211  0.00  0.00     0.067 A 
HETATM    7  N   UNK N   1      27.126  17.250   6.248  0.00  0.00    -0.341 N 
HETATM    8  C   UNK N   1      26.945  18.329   5.448  0.00  0.00     0.046 A 
HETATM    9  C   UNK N   1      26.104  18.015   4.396  0.00  0.00     0.003 A 
HETATM   10  C   UNK N   1      25.716  18.962   3.452  0.00  0.00     0.014 A 
HETATM   11  C   UNK N   1      26.217  20.270   3.594  0.00  0.00     0.001 A 
HETATM   12  C   UNK N   1      27.070  20.598   4.673  0.00  0.00     0.002 A 
HETATM   13  C   UNK N   1      27.436  19.623   5.617  0.00  0.00     0.030 A 
ENDROOT
BRANCH   7  14
HETATM   14  C   UNK N   1      27.812  17.170   7.544  0.00  0.00     0.168 C 
BRANCH  14  15
HETATM   15  C   UNK N   1      29.281  17.485   7.584  0.00  0.00    -0.039 A 
HETATM   16  C   UNK N   1      29.832  18.249   8.620  0.00  0.00     0.010 A 
HETATM   17  C   UNK N   1      31.218  18.344   8.776  0.00  0.00     0.013 A 
HETATM   18  C   UNK N   1      32.066  17.637   7.922  0.00  0.00    -0.026 A 
HETATM   19  C   UNK N   1      33.448  17.664   8.122  0.00  0.00     0.013 A 
HETATM   20  C   UNK N   1      31.520  16.864   6.874  0.00  0.00    -0.025 A 
HETATM   21  C   UNK N   1      34.289  16.912   7.296  0.00  0.00     0.016 A 
HETATM   22  C   UNK N   1      33.757  16.138   6.253  0.00  0.00     0.008 A 
HETATM   23  C   UNK N   1      32.367  16.124   6.043  0.00  0.00     0.027 A 
HETATM   24  C   UNK N   1      30.132  16.793   6.711  0.00  0.00     0.021 A 
BRANCH  22  25
HETATM   25  C   UNK N   1      34.655  15.324   5.404  0.00  0.00     0.102 C 
HETATM   26  N   UNK N   1      34.275  14.936   4.241  0.00  0.00    -0.385 N 
HETATM   27  H   UNK N   1      33.375  15.147   3.902  0.00  0.00     0.157 HD
ATOM     28  HN  UNK N   1      34.917  14.400   3.658  1.00  0.00     0.157 HD
BRANCH  25  29
HETATM   29  N   UNK N   1      35.927  14.932   5.883  0.00  0.00    -0.385 N 
HETATM   30  H   UNK N   1      36.087  14.008   6.183  0.00  0.00     0.157 HD
HETATM   31  H   UNK N   1      36.658  15.590   5.917  0.00  0.00     0.157 HD
ENDBRANCH  25  29
ENDBRANCH  22  25
ENDBRANCH  14  15
ENDBRANCH   7  14
BRANCH   1  32
HETATM   32  O   UNK N   1      24.966  12.941   6.113  0.00  0.00    -0.346 OA
BRANCH  32  33
HETATM   33  C   UNK N   1      23.812  12.639   6.819  0.00  0.00     0.132 C 
HETATM   34  C   UNK N   1      23.859  11.265   7.512  0.00  0.00     0.052 C 
HETATM   35  C   UNK N   1      23.748  11.393   9.034  0.00  0.00     0.126 C 
HETATM   36  N   UNK N   1      22.604  12.209   9.412  0.00  0.00    -0.371 N 
HETATM   37  C   UNK N   1      22.118  13.250   8.519  0.00  0.00     0.126 C 
HETATM   38  C   UNK N   1      23.264  13.786   7.663  0.00  0.00     0.052 C 
BRANCH  36  39
HETATM   39  C   UNK N   1      22.007  12.037  10.698  0.00  0.00     0.068 C 
HETATM   40  C   UNK N   1      20.633  12.555  10.980  0.00  0.00     0.088 C 
HETATM   41  N   UNK N   1      22.638  11.418  11.628  0.00  0.00    -0.389 N 
HETATM   42  H   UNK N   1      23.585  11.156  11.563  0.00  0.00     0.157 HD
ATOM     43  HN  UNK N   1      22.132  11.184  12.482  1.00  0.00     0.157 HD
ENDBRANCH  36  39
ENDBRANCH  32  33
ENDBRANCH   1  32
TORSDOF 7
ENDMDL
MODEL 8
REMARK VINA RESULT:      -8.6      5.888      8.716
REMARK  7 active torsions:
REMARK  status: ('A' for Active; 'I' for Inactive)
REMARK    1  A    between atoms: C_2  and  N_5 
REMARK    2  A    between atoms: C_8  and  O_11 
REMARK    3  A    between atoms: O_11  and  C_12 
REMARK    4  A    between atoms: N_18  and  C_19 
REMARK    5  A    between atoms: C_19  and  C_20 
REMARK    6  A    between atoms: C_26  and  C_30 
REMARK    7  A    between atoms: C_30  and  N_31 
ROOT
HETATM    1  C   UNK N   1      30.190  17.047   8.784  0.00  0.00     0.071 A 
HETATM    2  C   UNK N   1      29.606  18.174   9.429  0.00  0.00     0.038 A 
HETATM    3  C   UNK N   1      28.747  19.042   8.725  0.00  0.00     0.017 A 
HETATM    4  C   UNK N   1      28.511  18.767   7.379  0.00  0.00     0.003 A 
HETATM    5  C   UNK N   1      29.060  17.668   6.755  0.00  0.00     0.049 A 
HETATM    6  C   UNK N   1      29.893  16.785   7.433  0.00  0.00     0.067 A 
HETATM    7  N   UNK N   1      28.742  17.656   5.438  0.00  0.00    -0.341 N 
HETATM    8  C   UNK N   1      27.991  18.765   5.231  0.00  0.00     0.046 A 
HETATM    9  C   UNK N   1      27.823  19.464   6.412  0.00  0.00     0.003 A 
HETATM   10  C   UNK N   1      27.129  20.669   6.466  0.00  0.00     0.014 A 
HETATM   11  C   UNK N   1      26.586  21.165   5.266  0.00  0.00     0.001 A 
HETATM   12  C   UNK N   1      26.763  20.459   4.054  0.00  0.00     0.002 A 
HETATM   13  C   UNK N   1      27.478  19.249   4.028  0.00  0.00     0.030 A 
ENDROOT
BRANCH   7  14
HETATM   14  C   UNK N   1      29.287  16.715   4.451  0.00  0.00     0.168 C 
BRANCH  14  15
HETATM   15  C   UNK N   1      30.768  16.461   4.464  0.00  0.00    -0.039 A 
HETATM   16  C   UNK N   1      31.685  17.511   4.604  0.00  0.00     0.010 A 
HETATM   17  C   UNK N   1      33.037  17.249   4.845  0.00  0.00     0.013 A 
HETATM   18  C   UNK N   1      33.476  15.933   4.993  0.00  0.00    -0.026 A 
HETATM   19  C   UNK N   1      34.810  15.668   5.313  0.00  0.00     0.013 A 
HETATM   20  C   UNK N   1      32.561  14.867   4.853  0.00  0.00    -0.025 A 
HETATM   21  C   UNK N   1      35.233  14.350   5.511  0.00  0.00     0.016 A 
HETATM   22  C   UNK N   1      34.331  13.284   5.378  0.00  0.00     0.008 A 
HETATM   23  C   UNK N   1      32.993  13.550   5.040  0.00  0.00     0.027 A 
HETATM   24  C   UNK N   1      31.213  15.137   4.589  0.00  0.00     0.021 A 
BRANCH  22  25
HETATM   25  C   UNK N   1      34.784  11.896   5.619  0.00  0.00     0.102 C 
HETATM   26  N   UNK N   1      35.831  11.443   5.032  0.00  0.00    -0.385 N 
HETATM   27  H   UNK N   1      36.336  11.994   4.392  0.00  0.00     0.157 HD
ATOM     28  HN  UNK N   1      36.145  10.493   5.232  1.00  0.00     0.157 HD
BRANCH  25  29
HETATM   29  N   UNK N   1      34.044  11.043   6.471  0.00  0.00    -0.385 N 
HETATM   30  H   UNK N   1      33.262  10.551   6.131  0.00  0.00     0.157 HD
HETATM   31  H   UNK N   1      34.314  10.941   7.412  0.00  0.00     0.157 HD
ENDBRANCH  25  29
ENDBRANCH  22  25
ENDBRANCH  14  15
ENDBRANCH   7  14
BRANCH   1  32
HETATM   32  O   UNK N   1      31.096  16.250   9.405  0.00  0.00    -0.346 OA
BRANCH  32  33
HETATM   33  C   UNK N   1      32.272  15.773   8.847  0.00  0.00     0.132 C 
HETATM   34  C   UNK N   1      33.390  16.829   8.775  0.00  0.00     0.052 C 
HETATM   35  C   UNK N   1      34.609  16.423   9.607  0.00  0.00     0.126 C 
HETATM   36  N   UNK N   1      35.045  15.074   9.278  0.00  0.00    -0.371 N 
HETATM   37  C   UNK N   1      34.088  14.091   8.791  0.00  0.00     0.126 C 
HETATM   38  C   UNK N   1      32.697  14.394   9.342  0.00  0.00     0.052 C 
BRANCH  36  39
HETATM   39  C   UNK N   1      36.403  14.694   9.508  0.00  0.00     0.068 C 
HETATM   40  C   UNK N   1      37.123  13.807   8.543  0.00  0.00     0.088 C 
HETATM   41  N   UNK N   1      37.030  15.123  10.542  0.00  0.00    -0.389 N 
HETATM   42  H   UNK N   1      36.595  15.606  11.281  0.00  0.00     0.157 HD
ATOM     43  HN  UNK N   1      38.034  14.955  10.602  1.00  0.00     0.157 HD
ENDBRANCH  36  39
ENDBRANCH  32  33
ENDBRANCH   1  32
TORSDOF 7
ENDMDL
MODEL 9
REMARK VINA RESULT:      -8.6      2.596      7.407
REMARK  7 active torsions:
REMARK  status: ('A' for Active; 'I' for Inactive)
REMARK    1  A    between atoms: C_2  and  N_5 
REMARK    2  A    between atoms: C_8  and  O_11 
REMARK    3  A    between atoms: O_11  and  C_12 
REMARK    4  A    between atoms: N_18  and  C_19 
REMARK    5  A    between atoms: C_19  and  C_20 
REMARK    6  A    between atoms: C_26  and  C_30 
REMARK    7  A    between atoms: C_30  and  N_31 
ROOT
HETATM    1  C   UNK N   1      25.016  14.029   5.703  0.00  0.00     0.071 A 
HETATM    2  C   UNK N   1      25.505  12.927   6.460  0.00  0.00     0.038 A 
HETATM    3  C   UNK N   1      24.762  12.407   7.538  0.00  0.00     0.017 A 
HETATM    4  C   UNK N   1      23.548  13.022   7.842  0.00  0.00     0.003 A 
HETATM    5  C   UNK N   1      23.063  14.078   7.101  0.00  0.00     0.049 A 
HETATM    6  C   UNK N   1      23.768  14.595   6.020  0.00  0.00     0.067 A 
HETATM    7  N   UNK N   1      21.908  14.545   7.633  0.00  0.00    -0.341 N 
HETATM    8  C   UNK N   1      21.669  13.780   8.726  0.00  0.00     0.046 A 
HETATM    9  C   UNK N   1      22.659  12.825   8.874  0.00  0.00     0.003 A 
HETATM   10  C   UNK N   1      22.676  11.939   9.947  0.00  0.00     0.014 A 
HETATM   11  C   UNK N   1      21.638  12.036  10.892  0.00  0.00     0.001 A 
HETATM   12  C   UNK N   1      20.629  13.016  10.751  0.00  0.00     0.002 A 
HETATM   13  C   UNK N   1      20.643  13.905   9.662  0.00  0.00     0.030 A 
ENDROOT
BRANCH   7  14
HETATM   14  C   UNK N   1      21.207  15.756   7.186  0.00  0.00     0.168 C 
BRANCH  14  15
HETATM   15  C   UNK N   1      21.065  15.982   5.708  0.00  0.00    -0.039 A 
HETATM   16  C   UNK N   1      20.495  15.011   4.875  0.00  0.00     0.010 A 
HETATM   17  C   UNK N   1      20.157  15.315   3.553  0.00  0.00     0.013 A 
HETATM   18  C   UNK N   1      20.346  16.609   3.065  0.00  0.00    -0.026 A 
HETATM   19  C   UNK N   1      19.937  16.939   1.771  0.00  0.00     0.013 A 
HETATM   20  C   UNK N   1      20.921  17.595   3.896  0.00  0.00    -0.025 A 
HETATM   21  C   UNK N   1      20.082  18.250   1.305  0.00  0.00     0.016 A 
HETATM   22  C   UNK N   1      20.649  19.239   2.123  0.00  0.00     0.008 A 
HETATM   23  C   UNK N   1      21.075  18.901   3.420  0.00  0.00     0.027 A 
HETATM   24  C   UNK N   1      21.278  17.276   5.211  0.00  0.00     0.021 A 
BRANCH  22  25
HETATM   25  C   UNK N   1      20.770  20.628   1.629  0.00  0.00     0.102 C 
HETATM   26  N   UNK N   1      21.096  21.576   2.430  0.00  0.00    -0.385 N 
HETATM   27  H   UNK N   1      21.246  21.407   3.388  0.00  0.00     0.157 HD
ATOM     28  HN  UNK N   1      21.203  22.524   2.066  1.00  0.00     0.157 HD
BRANCH  25  29
HETATM   29  N   UNK N   1      20.487  20.930   0.277  0.00  0.00    -0.385 N 
HETATM   30  H   UNK N   1      19.756  21.547   0.043  0.00  0.00     0.157 HD
HETATM   31  H   UNK N   1      21.027  20.520  -0.437  0.00  0.00     0.157 HD
ENDBRANCH  25  29
ENDBRANCH  22  25
ENDBRANCH  14  15
ENDBRANCH   7  14
BRANCH   1  32
HETATM   32  O   UNK N   1      25.752  14.614   4.724  0.00  0.00    -0.346 OA
BRANCH  32  33
HETATM   33  C   UNK N   1      26.612  15.688   4.889  0.00  0.00     0.132 C 
HETATM   34  C   UNK N   1      26.333  16.852   3.920  0.00  0.00     0.052 C 
HETATM   35  C   UNK N   1      25.944  18.131   4.665  0.00  0.00     0.126 C 
HETATM   36  N   UNK N   1      26.907  18.447   5.709  0.00  0.00    -0.371 N 
HETATM   37  C   UNK N   1      27.664  17.384   6.355  0.00  0.00     0.126 C 
HETATM   38  C   UNK N   1      26.863  16.084   6.341  0.00  0.00     0.052 C 
BRANCH  36  39
HETATM   39  C   UNK N   1      27.052  19.796   6.153  0.00  0.00     0.068 C 
HETATM   40  C   UNK N   1      27.073  20.926   5.173  0.00  0.00     0.088 C 
HETATM   41  N   UNK N   1      27.152  20.060   7.405  0.00  0.00    -0.389 N 
HETATM   42  H   UNK N   1      27.268  19.372   8.099  0.00  0.00     0.157 HD
ATOM     43  HN  UNK N   1      27.107  21.037   7.697  1.00  0.00     0.157 HD
ENDBRANCH  36  39
ENDBRANCH  32  33
ENDBRANCH   1  32
TORSDOF 7
ENDMDL
