MODEL 1
REMARK VINA RESULT:      -5.0      0.000      0.000
REMARK  11 active torsions:
REMARK  status: ('A' for Active; 'I' for Inactive)
REMARK    1  A    between atoms: N_1  and  C_2 
REMARK    2  A    between atoms: C_2  and  C_3 
REMARK    3  A    between atoms: C_3  and  N_4 
REMARK    4  A    between atoms: N_4  and  C_5 
REMARK    5  A    between atoms: C_5  and  C_6 
REMARK    6  A    between atoms: C_6  and  N_7 
REMARK    7  A    between atoms: C_6  and  C_8 
REMARK    8  A    between atoms: C_8  and  C_9 
REMARK    9  A    between atoms: C_9  and  C_10 
REMARK   10  A    between atoms: C_10  and  N_11 
REMARK       I    between atoms: N_11  and  C_12 
REMARK       I    between atoms: C_12  and  N_15 
REMARK   11  A    between atoms: N_15  and  N_16 
ROOT
HETATM    1  C   UNK N   1      28.694  16.141   5.573  0.00  0.00     0.028 C 
ENDROOT
BRANCH   1   2
HETATM    2  C   UNK N   1      27.531  17.021   5.998  0.00  0.00     0.091 C 
BRANCH   2   3
HETATM    3  C   UNK N   1      27.962  18.472   5.971  0.00  0.00     0.138 C 
BRANCH   3   4
HETATM    4  N   UNK N   1      26.943  19.283   6.610  0.00  0.00    -0.418 N 
HETATM    5  H   UNK N   1      26.063  18.949   7.003  0.00  0.00     0.153 HD
BRANCH   4   6
HETATM    6  C   UNK N   1      27.406  20.654   6.587  0.00  0.00     0.133 C 
BRANCH   6   7
HETATM    7  C   UNK N   1      26.268  21.560   7.003  0.00  0.00     0.130 C 
BRANCH   7   8
HETATM    8  N   UNK N   1      25.789  21.165   8.313  0.00  0.00    -0.429 N 
HETATM    9  H   UNK N   1      24.821  20.870   8.439  0.00  0.00     0.149 HD
HETATM   10  H   UNK N   1      26.423  21.183   9.111  0.00  0.00     0.149 HD
ENDBRANCH   7   8
ENDBRANCH   6   7
ENDBRANCH   4   6
ENDBRANCH   3   4
ENDBRANCH   2   3
BRANCH   2  11
HETATM   11  N   UNK N   1      27.090  16.670   7.340  0.00  0.00    -0.424 N 
HETATM   12  H   UNK N   1      26.461  17.231   7.916  0.00  0.00     0.150 HD
HETATM   13  H   UNK N   1      27.438  15.796   7.737  0.00  0.00     0.150 HD
ENDBRANCH   2  11
ENDBRANCH   1   2
BRANCH   1  14
HETATM   14  C   UNK N   1      29.986  16.936   5.513  0.00  0.00     0.022 C 
BRANCH  14  15
HETATM   15  C   UNK N   1      31.035  16.276   6.393  0.00  0.00     0.138 C 
BRANCH  15  16
HETATM   16  N   UNK N   1      32.270  17.021   6.392  0.00  0.00    -0.225 N 
HETATM   17  C   UNK N   1      32.898  17.449   7.592  0.00  0.00     0.691 C 
HETATM   18  N   UNK N   1      32.294  17.318   8.719  0.00  0.00    -0.233 N 
HETATM   19  N   UNK N   1      34.239  17.927   7.535  0.00  0.00    -0.072 N 
HETATM   20  H   UNK N   1      31.418  16.875   8.791  0.00  0.00     0.174 HD
ATOM     21  HN  UNK N   1      32.735  17.683   9.562  1.00  0.00     0.174 HD
HETATM   22  H   UNK N   1      34.683  17.958   6.657  0.00  0.00     0.212 HD
HETATM   23  H   UNK N   1      32.693  17.241   5.531  0.00  0.00     0.177 HD
BRANCH  19  24
HETATM   24  N   UNK N   1      34.951  18.347   8.640  0.00  0.00    -0.024 N 
HETATM   25  O   UNK N   1      35.106  17.529   9.657  0.00  0.00    -0.516 OA
HETATM   26  O   UNK N   1      35.444  19.433   8.679  0.00  0.00    -0.516 OA
ENDBRANCH  19  24
ENDBRANCH  15  16
ENDBRANCH  14  15
ENDBRANCH   1  14
TORSDOF 11
ENDMDL
MODEL 2
REMARK VINA RESULT:      -4.9      1.696      2.568
REMARK  11 active torsions:
REMARK  status: ('A' for Active; 'I' for Inactive)
REMARK    1  A    between atoms: N_1  and  C_2 
REMARK    2  A    between atoms: C_2  and  C_3 
REMARK    3  A    between atoms: C_3  and  N_4 
REMARK    4  A    between atoms: N_4  and  C_5 
REMARK    5  A    between atoms: C_5  and  C_6 
REMARK    6  A    between atoms: C_6  and  N_7 
REMARK    7  A    between atoms: C_6  and  C_8 
REMARK    8  A    between atoms: C_8  and  C_9 
REMARK    9  A    between atoms: C_9  and  C_10 
REMARK   10  A    between atoms: C_10  and  N_11 
REMARK       I    between atoms: N_11  and  C_12 
REMARK       I    between atoms: C_12  and  N_15 
REMARK   11  A    between atoms: N_15  and  N_16 
ROOT
HETATM    1  C   UNK N   1      28.862  18.285   5.228  0.00  0.00     0.028 C 
ENDROOT
BRANCH   1   2
HETATM    2  C   UNK N   1      27.793  18.378   6.304  0.00  0.00     0.091 C 
BRANCH   2   3
HETATM    3  C   UNK N   1      27.819  17.122   7.150  0.00  0.00     0.138 C 
BRANCH   3   4
HETATM    4  N   UNK N   1      27.811  17.494   8.552  0.00  0.00    -0.418 N 
HETATM    5  H   UNK N   1      27.325  17.005   9.304  0.00  0.00     0.153 HD
BRANCH   4   6
HETATM    6  C   UNK N   1      28.621  18.685   8.686  0.00  0.00     0.133 C 
BRANCH   6   7
HETATM    7  C   UNK N   1      29.569  18.501   9.850  0.00  0.00     0.130 C 
BRANCH   7   8
HETATM    8  N   UNK N   1      29.619  17.099  10.216  0.00  0.00    -0.429 N 
HETATM    9  H   UNK N   1      28.858  16.680  10.750  0.00  0.00     0.149 HD
HETATM   10  H   UNK N   1      30.418  16.530   9.938  0.00  0.00     0.149 HD
ENDBRANCH   7   8
ENDBRANCH   6   7
ENDBRANCH   4   6
ENDBRANCH   3   4
ENDBRANCH   2   3
BRANCH   2  11
HETATM   11  N   UNK N   1      26.476  18.531   5.702  0.00  0.00    -0.424 N 
HETATM   12  H   UNK N   1      25.820  19.284   5.911  0.00  0.00     0.150 HD
HETATM   13  H   UNK N   1      26.188  17.831   5.018  0.00  0.00     0.150 HD
ENDBRANCH   2  11
ENDBRANCH   1   2
BRANCH   1  14
HETATM   14  C   UNK N   1      29.559  16.936   5.269  0.00  0.00     0.022 C 
BRANCH  14  15
HETATM   15  C   UNK N   1      31.065  17.139   5.309  0.00  0.00     0.138 C 
BRANCH  15  16
HETATM   16  N   UNK N   1      31.552  17.210   6.665  0.00  0.00    -0.225 N 
HETATM   17  C   UNK N   1      32.903  17.523   6.970  0.00  0.00     0.691 C 
HETATM   18  N   UNK N   1      33.776  17.598   6.030  0.00  0.00    -0.233 N 
HETATM   19  N   UNK N   1      33.248  17.850   8.313  0.00  0.00    -0.072 N 
HETATM   20  H   UNK N   1      33.530  17.498   5.082  0.00  0.00     0.174 HD
ATOM     21  HN  UNK N   1      34.752  17.767   6.273  1.00  0.00     0.174 HD
HETATM   22  H   UNK N   1      32.535  17.834   8.992  0.00  0.00     0.212 HD
HETATM   23  H   UNK N   1      30.926  17.036   7.405  0.00  0.00     0.177 HD
BRANCH  19  24
HETATM   24  N   UNK N   1      34.523  18.190   8.717  0.00  0.00    -0.024 N 
HETATM   25  O   UNK N   1      35.149  17.427   9.585  0.00  0.00    -0.516 OA
HETATM   26  O   UNK N   1      35.073  19.154   8.277  0.00  0.00    -0.516 OA
ENDBRANCH  19  24
ENDBRANCH  15  16
ENDBRANCH  14  15
ENDBRANCH   1  14
TORSDOF 11
ENDMDL
MODEL 3
REMARK VINA RESULT:      -4.8      6.224      9.440
REMARK  11 active torsions:
REMARK  status: ('A' for Active; 'I' for Inactive)
REMARK    1  A    between atoms: N_1  and  C_2 
REMARK    2  A    between atoms: C_2  and  C_3 
REMARK    3  A    between atoms: C_3  and  N_4 
REMARK    4  A    between atoms: N_4  and  C_5 
REMARK    5  A    between atoms: C_5  and  C_6 
REMARK    6  A    between atoms: C_6  and  N_7 
REMARK    7  A    between atoms: C_6  and  C_8 
REMARK    8  A    between atoms: C_8  and  C_9 
REMARK    9  A    between atoms: C_9  and  C_10 
REMARK   10  A    between atoms: C_10  and  N_11 
REMARK       I    between atoms: N_11  and  C_12 
REMARK       I    between atoms: C_12  and  N_15 
REMARK   11  A    between atoms: N_15  and  N_16 
ROOT
HETATM    1  C   UNK N   1      35.547  12.206  11.266  0.00  0.00     0.028 C 
ENDROOT
BRANCH   1   2
HETATM    2  C   UNK N   1      36.547  12.842  12.216  0.00  0.00     0.091 C 
BRANCH   2   3
HETATM    3  C   UNK N   1      35.804  13.627  13.278  0.00  0.00     0.138 C 
BRANCH   3   4
HETATM    4  N   UNK N   1      36.763  14.203  14.201  0.00  0.00    -0.418 N 
HETATM    5  H   UNK N   1      37.194  15.124  14.128  0.00  0.00     0.153 HD
BRANCH   4   6
HETATM    6  C   UNK N   1      36.994  13.229  15.246  0.00  0.00     0.133 C 
BRANCH   6   7
HETATM    7  C   UNK N   1      35.658  12.750  15.769  0.00  0.00     0.130 C 
BRANCH   7   8
HETATM    8  N   UNK N   1      35.257  13.571  16.895  0.00  0.00    -0.429 N 
HETATM    9  H   UNK N   1      34.952  13.136  17.765  0.00  0.00     0.149 HD
HETATM   10  H   UNK N   1      35.280  14.587  16.816  0.00  0.00     0.149 HD
ENDBRANCH   7   8
ENDBRANCH   6   7
ENDBRANCH   4   6
ENDBRANCH   3   4
ENDBRANCH   2   3
BRANCH   2  11
HETATM   11  N   UNK N   1      37.442  13.733  11.493  0.00  0.00    -0.424 N 
HETATM   12  H   UNK N   1      37.233  14.700  11.246  0.00  0.00     0.150 HD
HETATM   13  H   UNK N   1      38.350  13.361  11.211  0.00  0.00     0.150 HD
ENDBRANCH   2  11
ENDBRANCH   1   2
BRANCH   1  14
HETATM   14  C   UNK N   1      35.551  12.910   9.919  0.00  0.00     0.022 C 
BRANCH  14  15
HETATM   15  C   UNK N   1      34.241  13.656   9.728  0.00  0.00     0.138 C 
BRANCH  15  16
HETATM   16  N   UNK N   1      34.393  15.066   9.990  0.00  0.00    -0.225 N 
HETATM   17  C   UNK N   1      34.715  15.998   8.969  0.00  0.00     0.691 C 
HETATM   18  N   UNK N   1      35.038  15.583   7.796  0.00  0.00    -0.233 N 
HETATM   19  N   UNK N   1      34.574  17.390   9.236  0.00  0.00    -0.072 N 
HETATM   20  H   UNK N   1      35.019  14.628   7.558  0.00  0.00     0.174 HD
ATOM     21  HN  UNK N   1      35.322  16.263   7.091  1.00  0.00     0.174 HD
HETATM   22  H   UNK N   1      34.270  17.661  10.132  0.00  0.00     0.212 HD
HETATM   23  H   UNK N   1      34.269  15.395  10.911  0.00  0.00     0.177 HD
BRANCH  19  24
HETATM   24  N   UNK N   1      34.839  18.380   8.311  0.00  0.00    -0.024 N 
HETATM   25  O   UNK N   1      34.426  18.231   7.072  0.00  0.00    -0.516 OA
HETATM   26  O   UNK N   1      35.419  19.375   8.622  0.00  0.00    -0.516 OA
ENDBRANCH  19  24
ENDBRANCH  15  16
ENDBRANCH  14  15
ENDBRANCH   1  14
TORSDOF 11
ENDMDL
MODEL 4
REMARK VINA RESULT:      -4.8      4.844      6.596
REMARK  11 active torsions:
REMARK  status: ('A' for Active; 'I' for Inactive)
REMARK    1  A    between atoms: N_1  and  C_2 
REMARK    2  A    between atoms: C_2  and  C_3 
REMARK    3  A    between atoms: C_3  and  N_4 
REMARK    4  A    between atoms: N_4  and  C_5 
REMARK    5  A    between atoms: C_5  and  C_6 
REMARK    6  A    between atoms: C_6  and  N_7 
REMARK    7  A    between atoms: C_6  and  C_8 
REMARK    8  A    between atoms: C_8  and  C_9 
REMARK    9  A    between atoms: C_9  and  C_10 
REMARK   10  A    between atoms: C_10  and  N_11 
REMARK       I    between atoms: N_11  and  C_12 
REMARK       I    between atoms: C_12  and  N_15 
REMARK   11  A    between atoms: N_15  and  N_16 
ROOT
HETATM    1  C   UNK N   1      34.210  16.237   9.251  0.00  0.00     0.028 C 
ENDROOT
BRANCH   1   2
HETATM    2  C   UNK N   1      33.432  17.421   8.702  0.00  0.00     0.091 C 
BRANCH   2   3
HETATM    3  C   UNK N   1      32.122  16.937   8.119  0.00  0.00     0.138 C 
BRANCH   3   4
HETATM    4  N   UNK N   1      31.085  17.040   9.128  0.00  0.00    -0.418 N 
HETATM    5  H   UNK N   1      31.157  16.744  10.101  0.00  0.00     0.153 HD
BRANCH   4   6
HETATM    6  C   UNK N   1      29.929  17.643   8.498  0.00  0.00     0.133 C 
BRANCH   6   7
HETATM    7  C   UNK N   1      29.080  18.299   9.564  0.00  0.00     0.130 C 
BRANCH   7   8
HETATM    8  N   UNK N   1      27.735  18.493   9.060  0.00  0.00    -0.429 N 
HETATM    9  H   UNK N   1      27.182  19.292   9.367  0.00  0.00     0.149 HD
HETATM   10  H   UNK N   1      27.341  17.827   8.396  0.00  0.00     0.149 HD
ENDBRANCH   7   8
ENDBRANCH   6   7
ENDBRANCH   4   6
ENDBRANCH   3   4
ENDBRANCH   2   3
BRANCH   2  11
HETATM   11  N   UNK N   1      34.201  18.101   7.670  0.00  0.00    -0.424 N 
HETATM   12  H   UNK N   1      33.819  18.457   6.794  0.00  0.00     0.150 HD
HETATM   13  H   UNK N   1      35.200  18.231   7.835  0.00  0.00     0.150 HD
ENDBRANCH   2  11
ENDBRANCH   1   2
BRANCH   1  14
HETATM   14  C   UNK N   1      35.259  16.690  10.251  0.00  0.00     0.022 C 
BRANCH  14  15
HETATM   15  C   UNK N   1      36.211  15.543  10.549  0.00  0.00     0.138 C 
BRANCH  15  16
HETATM   16  N   UNK N   1      36.392  15.361  11.968  0.00  0.00    -0.225 N 
HETATM   17  C   UNK N   1      35.710  14.350  12.696  0.00  0.00     0.691 C 
HETATM   18  N   UNK N   1      34.784  13.661  12.131  0.00  0.00    -0.233 N 
HETATM   19  N   UNK N   1      36.140  14.046  14.019  0.00  0.00    -0.072 N 
HETATM   20  H   UNK N   1      34.560  13.773  11.179  0.00  0.00     0.174 HD
ATOM     21  HN  UNK N   1      34.266  12.980  12.685  1.00  0.00     0.174 HD
HETATM   22  H   UNK N   1      36.891  14.561  14.393  0.00  0.00     0.212 HD
HETATM   23  H   UNK N   1      37.009  15.958  12.449  0.00  0.00     0.177 HD
BRANCH  19  24
HETATM   24  N   UNK N   1      35.565  13.070  14.808  0.00  0.00    -0.024 N 
HETATM   25  O   UNK N   1      36.322  12.126  15.320  0.00  0.00    -0.516 OA
HETATM   26  O   UNK N   1      34.396  13.080  15.047  0.00  0.00    -0.516 OA
ENDBRANCH  19  24
ENDBRANCH  15  16
ENDBRANCH  14  15
ENDBRANCH   1  14
TORSDOF 11
ENDMDL
MODEL 5
REMARK VINA RESULT:      -4.7      2.026      2.623
REMARK  11 active torsions:
REMARK  status: ('A' for Active; 'I' for Inactive)
REMARK    1  A    between atoms: N_1  and  C_2 
REMARK    2  A    between atoms: C_2  and  C_3 
REMARK    3  A    between atoms: C_3  and  N_4 
REMARK    4  A    between atoms: N_4  and  C_5 
REMARK    5  A    between atoms: C_5  and  C_6 
REMARK    6  A    between atoms: C_6  and  N_7 
REMARK    7  A    between atoms: C_6  and  C_8 
REMARK    8  A    between atoms: C_8  and  C_9 
REMARK    9  A    between atoms: C_9  and  C_10 
REMARK   10  A    between atoms: C_10  and  N_11 
REMARK       I    between atoms: N_11  and  C_12 
REMARK       I    between atoms: C_12  and  N_15 
REMARK   11  A    between atoms: N_15  and  N_16 
ROOT
HETATM    1  C   UNK N   1      29.836  17.002   7.382  0.00  0.00     0.028 C 
ENDROOT
BRANCH   1   2
HETATM    2  C   UNK N   1      28.487  17.687   7.242  0.00  0.00     0.091 C 
BRANCH   2   3
HETATM    3  C   UNK N   1      28.361  18.769   8.294  0.00  0.00     0.138 C 
BRANCH   3   4
HETATM    4  N   UNK N   1      27.260  19.648   7.943  0.00  0.00    -0.418 N 
HETATM    5  H   UNK N   1      26.390  19.763   8.462  0.00  0.00     0.153 HD
BRANCH   4   6
HETATM    6  C   UNK N   1      27.628  20.330   6.720  0.00  0.00     0.133 C 
BRANCH   6   7
HETATM    7  C   UNK N   1      26.372  20.621   5.929  0.00  0.00     0.130 C 
BRANCH   7   8
HETATM    8  N   UNK N   1      25.648  19.386   5.698  0.00  0.00    -0.429 N 
HETATM    9  H   UNK N   1      25.851  18.559   6.259  0.00  0.00     0.149 HD
HETATM   10  H   UNK N   1      24.934  19.344   4.972  0.00  0.00     0.149 HD
ENDBRANCH   7   8
ENDBRANCH   6   7
ENDBRANCH   4   6
ENDBRANCH   3   4
ENDBRANCH   2   3
BRANCH   2  11
HETATM   11  N   UNK N   1      27.407  16.725   7.404  0.00  0.00    -0.424 N 
HETATM   12  H   UNK N   1      26.422  16.964   7.517  0.00  0.00     0.150 HD
HETATM   13  H   UNK N   1      27.655  15.735   7.404  0.00  0.00     0.150 HD
ENDBRANCH   2  11
ENDBRANCH   1   2
BRANCH   1  14
HETATM   14  C   UNK N   1      30.736  17.761   8.341  0.00  0.00     0.022 C 
BRANCH  14  15
HETATM   15  C   UNK N   1      32.191  17.529   7.969  0.00  0.00     0.138 C 
BRANCH  15  16
HETATM   16  N   UNK N   1      33.060  17.692   9.108  0.00  0.00    -0.225 N 
HETATM   17  C   UNK N   1      33.933  16.663   9.551  0.00  0.00     0.691 C 
HETATM   18  N   UNK N   1      33.858  15.488   9.036  0.00  0.00    -0.233 N 
HETATM   19  N   UNK N   1      34.953  16.983  10.492  0.00  0.00    -0.072 N 
HETATM   20  H   UNK N   1      33.243  15.283   8.295  0.00  0.00     0.174 HD
ATOM     21  HN  UNK N   1      34.453  14.747   9.405  1.00  0.00     0.174 HD
HETATM   22  H   UNK N   1      35.009  17.910  10.818  0.00  0.00     0.212 HD
HETATM   23  H   UNK N   1      33.048  18.547   9.597  0.00  0.00     0.177 HD
BRANCH  19  24
HETATM   24  N   UNK N   1      35.867  16.068  10.973  0.00  0.00    -0.024 N 
HETATM   25  O   UNK N   1      36.789  15.592  10.165  0.00  0.00    -0.516 OA
HETATM   26  O   UNK N   1      35.846  15.716  12.113  0.00  0.00    -0.516 OA
ENDBRANCH  19  24
ENDBRANCH  15  16
ENDBRANCH  14  15
ENDBRANCH   1  14
TORSDOF 11
ENDMDL
MODEL 6
REMARK VINA RESULT:      -4.7      6.730      9.502
REMARK  11 active torsions:
REMARK  status: ('A' for Active; 'I' for Inactive)
REMARK    1  A    between atoms: N_1  and  C_2 
REMARK    2  A    between atoms: C_2  and  C_3 
REMARK    3  A    between atoms: C_3  and  N_4 
REMARK    4  A    between atoms: N_4  and  C_5 
REMARK    5  A    between atoms: C_5  and  C_6 
REMARK    6  A    between atoms: C_6  and  N_7 
REMARK    7  A    between atoms: C_6  and  C_8 
REMARK    8  A    between atoms: C_8  and  C_9 
REMARK    9  A    between atoms: C_9  and  C_10 
REMARK   10  A    between atoms: C_10  and  N_11 
REMARK       I    between atoms: N_11  and  C_12 
REMARK       I    between atoms: C_12  and  N_15 
REMARK   11  A    between atoms: N_15  and  N_16 
ROOT
HETATM    1  C   UNK N   1      36.818  12.052   9.882  0.00  0.00     0.028 C 
ENDROOT
BRANCH   1   2
HETATM    2  C   UNK N   1      37.764  12.686  10.888  0.00  0.00     0.091 C 
BRANCH   2   3
HETATM    3  C   UNK N   1      37.176  12.564  12.278  0.00  0.00     0.138 C 
BRANCH   3   4
HETATM    4  N   UNK N   1      36.922  13.892  12.805  0.00  0.00    -0.418 N 
HETATM    5  H   UNK N   1      37.436  14.742  12.576  0.00  0.00     0.153 HD
BRANCH   4   6
HETATM    6  C   UNK N   1      35.802  13.786  13.717  0.00  0.00     0.133 C 
BRANCH   6   7
HETATM    7  C   UNK N   1      36.333  13.683  15.130  0.00  0.00     0.130 C 
BRANCH   7   8
HETATM    8  N   UNK N   1      37.279  14.755  15.371  0.00  0.00    -0.429 N 
HETATM    9  H   UNK N   1      36.947  15.692  15.598  0.00  0.00     0.149 HD
HETATM   10  H   UNK N   1      38.280  14.571  15.313  0.00  0.00     0.149 HD
ENDBRANCH   7   8
ENDBRANCH   6   7
ENDBRANCH   4   6
ENDBRANCH   3   4
ENDBRANCH   2   3
BRANCH   2  11
HETATM   11  N   UNK N   1      37.976  14.092  10.573  0.00  0.00    -0.424 N 
HETATM   12  H   UNK N   1      38.617  14.442   9.861  0.00  0.00     0.150 HD
HETATM   13  H   UNK N   1      37.441  14.779  11.106  0.00  0.00     0.150 HD
ENDBRANCH   2  11
ENDBRANCH   1   2
BRANCH   1  14
HETATM   14  C   UNK N   1      35.599  11.467  10.574  0.00  0.00     0.022 C 
BRANCH  14  15
HETATM   15  C   UNK N   1      34.344  12.164  10.074  0.00  0.00     0.138 C 
BRANCH  15  16
HETATM   16  N   UNK N   1      34.664  13.343   9.308  0.00  0.00    -0.225 N 
HETATM   17  C   UNK N   1      34.436  14.654   9.803  0.00  0.00     0.691 C 
HETATM   18  N   UNK N   1      33.785  14.827  10.898  0.00  0.00    -0.233 N 
HETATM   19  N   UNK N   1      35.026  15.759   9.125  0.00  0.00    -0.072 N 
HETATM   20  H   UNK N   1      33.478  14.068  11.445  0.00  0.00     0.174 HD
ATOM     21  HN  UNK N   1      33.581  15.776  11.208  1.00  0.00     0.174 HD
HETATM   22  H   UNK N   1      35.564  15.575   8.321  0.00  0.00     0.212 HD
HETATM   23  H   UNK N   1      35.055  13.236   8.411  0.00  0.00     0.177 HD
BRANCH  19  24
HETATM   24  N   UNK N   1      34.888  17.071   9.530  0.00  0.00    -0.024 N 
HETATM   25  O   UNK N   1      33.989  17.834   8.949  0.00  0.00    -0.516 OA
HETATM   26  O   UNK N   1      35.559  17.518  10.410  0.00  0.00    -0.516 OA
ENDBRANCH  19  24
ENDBRANCH  15  16
ENDBRANCH  14  15
ENDBRANCH   1  14
TORSDOF 11
ENDMDL
MODEL 7
REMARK VINA RESULT:      -4.6      2.257      3.307
REMARK  11 active torsions:
REMARK  status: ('A' for Active; 'I' for Inactive)
REMARK    1  A    between atoms: N_1  and  C_2 
REMARK    2  A    between atoms: C_2  and  C_3 
REMARK    3  A    between atoms: C_3  and  N_4 
REMARK    4  A    between atoms: N_4  and  C_5 
REMARK    5  A    between atoms: C_5  and  C_6 
REMARK    6  A    between atoms: C_6  and  N_7 
REMARK    7  A    between atoms: C_6  and  C_8 
REMARK    8  A    between atoms: C_8  and  C_9 
REMARK    9  A    between atoms: C_9  and  C_10 
REMARK   10  A    between atoms: C_10  and  N_11 
REMARK       I    between atoms: N_11  and  C_12 
REMARK       I    between atoms: C_12  and  N_15 
REMARK   11  A    between atoms: N_15  and  N_16 
ROOT
HETATM    1  C   UNK N   1      28.570  18.619   4.936  0.00  0.00     0.028 C 
ENDROOT
BRANCH   1   2
HETATM    2  C   UNK N   1      27.653  18.508   6.142  0.00  0.00     0.091 C 
BRANCH   2   3
HETATM    3  C   UNK N   1      27.932  17.210   6.870  0.00  0.00     0.138 C 
BRANCH   3   4
HETATM    4  N   UNK N   1      27.542  17.351   8.261  0.00  0.00    -0.418 N 
HETATM    5  H   UNK N   1      26.874  16.769   8.763  0.00  0.00     0.153 HD
BRANCH   4   6
HETATM    6  C   UNK N   1      28.280  18.473   8.802  0.00  0.00     0.133 C 
BRANCH   6   7
HETATM    7  C   UNK N   1      29.343  17.949   9.741  0.00  0.00     0.130 C 
BRANCH   7   8
HETATM    8  N   UNK N   1      30.654  18.309   9.237  0.00  0.00    -0.429 N 
HETATM    9  H   UNK N   1      30.800  19.208   8.780  0.00  0.00     0.149 HD
HETATM   10  H   UNK N   1      31.434  17.659   9.339  0.00  0.00     0.149 HD
ENDBRANCH   7   8
ENDBRANCH   6   7
ENDBRANCH   4   6
ENDBRANCH   3   4
ENDBRANCH   2   3
BRANCH   2  11
HETATM   11  N   UNK N   1      26.258  18.540   5.726  0.00  0.00    -0.424 N 
HETATM   12  H   UNK N   1      25.901  18.172   4.844  0.00  0.00     0.150 HD
HETATM   13  H   UNK N   1      25.585  18.964   6.366  0.00  0.00     0.150 HD
ENDBRANCH   2  11
ENDBRANCH   1   2
BRANCH   1  14
HETATM   14  C   UNK N   1      28.321  17.485   3.957  0.00  0.00     0.022 C 
BRANCH  14  15
HETATM   15  C   UNK N   1      29.610  16.710   3.733  0.00  0.00     0.138 C 
BRANCH  15  16
HETATM   16  N   UNK N   1      30.766  17.491   4.097  0.00  0.00    -0.225 N 
HETATM   17  C   UNK N   1      31.762  17.004   4.984  0.00  0.00     0.691 C 
HETATM   18  N   UNK N   1      31.579  15.901   5.617  0.00  0.00    -0.233 N 
HETATM   19  N   UNK N   1      33.000  17.702   5.079  0.00  0.00    -0.072 N 
HETATM   20  H   UNK N   1      30.783  15.342   5.468  0.00  0.00     0.174 HD
ATOM     21  HN  UNK N   1      32.279  15.595   6.293  1.00  0.00     0.174 HD
HETATM   22  H   UNK N   1      33.118  18.513   4.534  0.00  0.00     0.212 HD
HETATM   23  H   UNK N   1      30.868  18.394   3.718  0.00  0.00     0.177 HD
BRANCH  19  24
HETATM   24  N   UNK N   1      34.044  17.306   5.891  0.00  0.00    -0.024 N 
HETATM   25  O   UNK N   1      34.418  18.082   6.884  0.00  0.00    -0.516 OA
HETATM   26  O   UNK N   1      34.599  16.264   5.718  0.00  0.00    -0.516 OA
ENDBRANCH  19  24
ENDBRANCH  15  16
ENDBRANCH  14  15
ENDBRANCH   1  14
TORSDOF 11
ENDMDL
MODEL 8
REMARK VINA RESULT:      -4.6     11.076     13.566
REMARK  11 active torsions:
REMARK  status: ('A' for Active; 'I' for Inactive)
REMARK    1  A    between atoms: N_1  and  C_2 
REMARK    2  A    between atoms: C_2  and  C_3 
REMARK    3  A    between atoms: C_3  and  N_4 
REMARK    4  A    between atoms: N_4  and  C_5 
REMARK    5  A    between atoms: C_5  and  C_6 
REMARK    6  A    between atoms: C_6  and  N_7 
REMARK    7  A    between atoms: C_6  and  C_8 
REMARK    8  A    between atoms: C_8  and  C_9 
REMARK    9  A    between atoms: C_9  and  C_10 
REMARK   10  A    between atoms: C_10  and  N_11 
REMARK       I    between atoms: N_11  and  C_12 
REMARK       I    between atoms: C_12  and  N_15 
REMARK   11  A    between atoms: N_15  and  N_16 
ROOT
HETATM    1  C   UNK N   1      35.033  13.367  18.180  0.00  0.00     0.028 C 
ENDROOT
BRANCH   1   2
HETATM    2  C   UNK N   1      35.437  12.788  19.526  0.00  0.00     0.091 C 
BRANCH   2   3
HETATM    3  C   UNK N   1      35.177  11.296  19.531  0.00  0.00     0.138 C 
BRANCH   3   4
HETATM    4  N   UNK N   1      35.100  10.832  20.903  0.00  0.00    -0.418 N 
HETATM    5  H   UNK N   1      35.728  11.089  21.664  0.00  0.00     0.153 HD
BRANCH   4   6
HETATM    6  C   UNK N   1      33.966   9.936  20.991  0.00  0.00     0.133 C 
BRANCH   6   7
HETATM    7  C   UNK N   1      33.434   9.963  22.407  0.00  0.00     0.130 C 
BRANCH   7   8
HETATM    8  N   UNK N   1      32.870  11.269  22.688  0.00  0.00    -0.429 N 
HETATM    9  H   UNK N   1      33.368  12.114  22.409  0.00  0.00     0.149 HD
HETATM   10  H   UNK N   1      31.973  11.342  23.166  0.00  0.00     0.149 HD
ENDBRANCH   7   8
ENDBRANCH   6   7
ENDBRANCH   4   6
ENDBRANCH   3   4
ENDBRANCH   2   3
BRANCH   2  11
HETATM   11  N   UNK N   1      34.680  13.416  20.599  0.00  0.00    -0.424 N 
HETATM   12  H   UNK N   1      34.288  14.358  20.566  0.00  0.00     0.150 HD
HETATM   13  H   UNK N   1      34.528  12.872  21.449  0.00  0.00     0.150 HD
ENDBRANCH   2  11
ENDBRANCH   1   2
BRANCH   1  14
HETATM   14  C   UNK N   1      35.364  12.405  17.052  0.00  0.00     0.022 C 
BRANCH  14  15
HETATM   15  C   UNK N   1      34.812  12.944  15.742  0.00  0.00     0.138 C 
BRANCH  15  16
HETATM   16  N   UNK N   1      35.860  13.481  14.909  0.00  0.00    -0.225 N 
HETATM   17  C   UNK N   1      35.891  13.279  13.504  0.00  0.00     0.691 C 
HETATM   18  N   UNK N   1      35.061  12.470  12.950  0.00  0.00    -0.233 N 
HETATM   19  N   UNK N   1      36.783  14.061  12.715  0.00  0.00    -0.072 N 
HETATM   20  H   UNK N   1      34.356  12.015  13.465  0.00  0.00     0.174 HD
ATOM     21  HN  UNK N   1      35.135  12.293  11.948  1.00  0.00     0.174 HD
HETATM   22  H   UNK N   1      37.362  14.710  13.176  0.00  0.00     0.212 HD
HETATM   23  H   UNK N   1      36.579  14.007  15.329  0.00  0.00     0.177 HD
BRANCH  19  24
HETATM   24  N   UNK N   1      36.880  13.963  11.342  0.00  0.00    -0.024 N 
HETATM   25  O   UNK N   1      36.651  15.025  10.602  0.00  0.00    -0.516 OA
HETATM   26  O   UNK N   1      37.186  12.936  10.818  0.00  0.00    -0.516 OA
ENDBRANCH  19  24
ENDBRANCH  15  16
ENDBRANCH  14  15
ENDBRANCH   1  14
TORSDOF 11
ENDMDL
MODEL 9
REMARK VINA RESULT:      -4.6      3.877      5.640
REMARK  11 active torsions:
REMARK  status: ('A' for Active; 'I' for Inactive)
REMARK    1  A    between atoms: N_1  and  C_2 
REMARK    2  A    between atoms: C_2  and  C_3 
REMARK    3  A    between atoms: C_3  and  N_4 
REMARK    4  A    between atoms: N_4  and  C_5 
REMARK    5  A    between atoms: C_5  and  C_6 
REMARK    6  A    between atoms: C_6  and  N_7 
REMARK    7  A    between atoms: C_6  and  C_8 
REMARK    8  A    between atoms: C_8  and  C_9 
REMARK    9  A    between atoms: C_9  and  C_10 
REMARK   10  A    between atoms: C_10  and  N_11 
REMARK       I    between atoms: N_11  and  C_12 
REMARK       I    between atoms: C_12  and  N_15 
REMARK   11  A    between atoms: N_15  and  N_16 
ROOT
HETATM    1  C   UNK N   1      33.213  18.132   7.908  0.00  0.00     0.028 C 
ENDROOT
BRANCH   1   2
HETATM    2  C   UNK N   1      32.037  17.237   8.264  0.00  0.00     0.091 C 
BRANCH   2   3
HETATM    3  C   UNK N   1      31.445  16.656   6.997  0.00  0.00     0.138 C 
BRANCH   3   4
HETATM    4  N   UNK N   1      30.246  17.395   6.651  0.00  0.00    -0.418 N 
HETATM    5  H   UNK N   1      29.612  17.857   7.301  0.00  0.00     0.153 HD
BRANCH   4   6
HETATM    6  C   UNK N   1      30.116  17.354   5.209  0.00  0.00     0.133 C 
BRANCH   6   7
HETATM    7  C   UNK N   1      31.494  17.459   4.594  0.00  0.00     0.130 C 
BRANCH   7   8
HETATM    8  N   UNK N   1      31.405  17.226   3.166  0.00  0.00    -0.429 N 
HETATM    9  H   UNK N   1      30.497  17.090   2.723  0.00  0.00     0.149 HD
HETATM   10  H   UNK N   1      32.254  17.197   2.602  0.00  0.00     0.149 HD
ENDBRANCH   7   8
ENDBRANCH   6   7
ENDBRANCH   4   6
ENDBRANCH   3   4
ENDBRANCH   2   3
BRANCH   2  11
HETATM   11  N   UNK N   1      31.016  17.995   8.973  0.00  0.00    -0.424 N 
HETATM   12  H   UNK N   1      30.777  18.969   8.790  0.00  0.00     0.150 HD
HETATM   13  H   UNK N   1      30.500  17.513   9.711  0.00  0.00     0.150 HD
ENDBRANCH   2  11
ENDBRANCH   1   2
BRANCH   1  14
HETATM   14  C   UNK N   1      34.471  17.694   8.638  0.00  0.00     0.022 C 
BRANCH  14  15
HETATM   15  C   UNK N   1      34.155  16.514   9.542  0.00  0.00     0.138 C 
BRANCH  15  16
HETATM   16  N   UNK N   1      35.018  16.487  10.696  0.00  0.00    -0.225 N 
HETATM   17  C   UNK N   1      35.155  15.335  11.514  0.00  0.00     0.691 C 
HETATM   18  N   UNK N   1      34.385  14.322  11.337  0.00  0.00    -0.233 N 
HETATM   19  N   UNK N   1      36.221  15.282  12.458  0.00  0.00    -0.072 N 
HETATM   20  H   UNK N   1      33.725  14.292  10.607  0.00  0.00     0.174 HD
ATOM     21  HN  UNK N   1      34.459  13.526  11.970  1.00  0.00     0.174 HD
HETATM   22  H   UNK N   1      36.823  16.059  12.521  0.00  0.00     0.212 HD
HETATM   23  H   UNK N   1      35.531  17.296  10.926  0.00  0.00     0.177 HD
BRANCH  19  24
HETATM   24  N   UNK N   1      36.461  14.205  13.287  0.00  0.00    -0.024 N 
HETATM   25  O   UNK N   1      36.701  13.026  12.758  0.00  0.00    -0.516 OA
HETATM   26  O   UNK N   1      36.471  14.330  14.473  0.00  0.00    -0.516 OA
ENDBRANCH  19  24
ENDBRANCH  15  16
ENDBRANCH  14  15
ENDBRANCH   1  14
TORSDOF 11
ENDMDL
