MODEL 1
REMARK VINA RESULT:      -5.7      0.000      0.000
REMARK  9 active torsions:
REMARK  status: ('A' for Active; 'I' for Inactive)
REMARK    1  A    between atoms: P_1  and  O_2 
REMARK    2  A    between atoms: P_1  and  O_3 
REMARK    3  A    between atoms: P_1  and  O_4 
REMARK    4  A    between atoms: O_2  and  C_6 
REMARK    5  A    between atoms: C_7  and  C_6 
REMARK    6  A    between atoms: C_8  and  O_11 
REMARK    7  A    between atoms: C_10  and  O_14 
REMARK    8  A    between atoms: C_12  and  O_15 
REMARK    9  A    between atoms: C_13  and  O_16 
ROOT
HETATM    1  C   UNK N   1      20.765  18.691   3.745  0.00  0.00     0.180 C 
HETATM    2  C   UNK N   1      20.761  17.792   2.492  0.00  0.00     0.180 C 
HETATM    3  O   UNK N   1      21.614  19.791   3.525  0.00  0.00    -0.349 OA
HETATM    4  C   UNK N   1      20.259  18.623   1.309  0.00  0.00     0.183 C 
HETATM    5  C   UNK N   1      21.000  20.616   2.560  0.00  0.00     0.288 C 
HETATM    6  C   UNK N   1      21.061  19.916   1.200  0.00  0.00     0.204 C 
ENDROOT
BRANCH   1   7
HETATM    7  C   UNK N   1      21.269  17.941   4.971  0.00  0.00     0.215 C 
BRANCH   7   8
HETATM    8  O   UNK N   1      20.215  17.312   5.642  0.00  0.00    -0.294 OA
BRANCH   8   9
HETATM    9  P   UNK N   1      20.931  16.636   7.077  0.00  0.00     0.390 P 
HETATM   10  O   UNK N   1      19.460  16.150   7.191  0.00  0.00    -0.632 OA
BRANCH   9  11
HETATM   11  O   UNK N   1      20.463  17.206   8.649  0.00  0.00    -0.307 OA
HETATM   12  H   UNK N   1      21.094  17.506   9.321  0.00  0.00     0.222 HD
ENDBRANCH   9  11
BRANCH   9  13
HETATM   13  O   UNK N   1      20.984  18.371   7.168  0.00  0.00    -0.307 OA
HETATM   14  H   UNK N   1      21.595  19.006   7.574  0.00  0.00     0.222 HD
ENDBRANCH   9  13
ENDBRANCH   8   9
ENDBRANCH   7   8
ENDBRANCH   1   7
BRANCH   2  15
HETATM   15  O   UNK N   1      19.925  16.690   2.671  0.00  0.00    -0.390 OA
HETATM   16  H   UNK N   1      19.902  15.911   2.094  0.00  0.00     0.210 HD
ENDBRANCH   2  15
BRANCH   4  17
HETATM   17  O   UNK N   1      20.355  17.889   0.126  0.00  0.00    -0.390 OA
HETATM   18  H   UNK N   1      21.038  17.224  -0.053  0.00  0.00     0.210 HD
ENDBRANCH   4  17
BRANCH   5  19
HETATM   19  O   UNK N   1      21.673  21.834   2.503  0.00  0.00    -0.369 OA
HETATM   20  H   UNK N   1      21.320  22.590   2.009  0.00  0.00     0.212 HD
ENDBRANCH   5  19
BRANCH   6  21
HETATM   21  O   UNK N   1      20.510  20.734   0.210  0.00  0.00    -0.388 OA
HETATM   22  H   UNK N   1      20.403  21.696   0.271  0.00  0.00     0.210 HD
ENDBRANCH   6  21
TORSDOF 9
ENDMDL
MODEL 2
REMARK VINA RESULT:      -5.6     14.960     16.772
REMARK  9 active torsions:
REMARK  status: ('A' for Active; 'I' for Inactive)
REMARK    1  A    between atoms: P_1  and  O_2 
REMARK    2  A    between atoms: P_1  and  O_3 
REMARK    3  A    between atoms: P_1  and  O_4 
REMARK    4  A    between atoms: O_2  and  C_6 
REMARK    5  A    between atoms: C_7  and  C_6 
REMARK    6  A    between atoms: C_8  and  O_11 
REMARK    7  A    between atoms: C_10  and  O_14 
REMARK    8  A    between atoms: C_12  and  O_15 
REMARK    9  A    between atoms: C_13  and  O_16 
ROOT
HETATM    1  C   UNK N   1      35.158  15.675   9.922  0.00  0.00     0.180 C 
HETATM    2  C   UNK N   1      34.441  15.135  11.176  0.00  0.00     0.180 C 
HETATM    3  O   UNK N   1      36.540  15.750  10.174  0.00  0.00    -0.349 OA
HETATM    4  C   UNK N   1      35.000  13.745  11.485  0.00  0.00     0.183 C 
HETATM    5  C   UNK N   1      37.029  14.429  10.259  0.00  0.00     0.288 C 
HETATM    6  C   UNK N   1      36.523  13.798  11.558  0.00  0.00     0.204 C 
ENDROOT
BRANCH   1   7
HETATM    7  C   UNK N   1      34.669  17.070   9.554  0.00  0.00     0.215 C 
BRANCH   7   8
HETATM    8  O   UNK N   1      33.559  17.003   8.704  0.00  0.00    -0.294 OA
BRANCH   8   9
HETATM    9  P   UNK N   1      34.224  16.839   7.104  0.00  0.00     0.390 P 
HETATM   10  O   UNK N   1      34.725  18.249   7.518  0.00  0.00    -0.632 OA
BRANCH   9  11
HETATM   11  O   UNK N   1      33.654  17.841   5.806  0.00  0.00    -0.307 OA
HETATM   12  H   UNK N   1      34.160  18.009   4.995  0.00  0.00     0.222 HD
ENDBRANCH   9  11
BRANCH   9  13
HETATM   13  O   UNK N   1      32.488  16.838   7.011  0.00  0.00    -0.307 OA
HETATM   14  H   UNK N   1      31.809  16.151   7.098  0.00  0.00     0.222 HD
ENDBRANCH   9  13
ENDBRANCH   8   9
ENDBRANCH   7   8
ENDBRANCH   1   7
BRANCH   2  15
HETATM   15  O   UNK N   1      33.065  15.043  10.963  0.00  0.00    -0.390 OA
HETATM   16  H   UNK N   1      32.642  14.957  10.095  0.00  0.00     0.210 HD
ENDBRANCH   2  15
BRANCH   4  17
HETATM   17  O   UNK N   1      34.471  13.264  12.683  0.00  0.00    -0.390 OA
HETATM   18  H   UNK N   1      33.977  12.434  12.770  0.00  0.00     0.210 HD
ENDBRANCH   4  17
BRANCH   5  19
HETATM   19  O   UNK N   1      38.421  14.453  10.248  0.00  0.00    -0.369 OA
HETATM   20  H   UNK N   1      38.926  15.097  10.770  0.00  0.00     0.212 HD
ENDBRANCH   5  19
BRANCH   6  21
HETATM   21  O   UNK N   1      37.036  12.506  11.700  0.00  0.00    -0.388 OA
HETATM   22  H   UNK N   1      36.735  11.725  11.209  0.00  0.00     0.210 HD
ENDBRANCH   6  21
TORSDOF 9
ENDMDL
MODEL 3
REMARK VINA RESULT:      -5.6     14.339     15.520
REMARK  9 active torsions:
REMARK  status: ('A' for Active; 'I' for Inactive)
REMARK    1  A    between atoms: P_1  and  O_2 
REMARK    2  A    between atoms: P_1  and  O_3 
REMARK    3  A    between atoms: P_1  and  O_4 
REMARK    4  A    between atoms: O_2  and  C_6 
REMARK    5  A    between atoms: C_7  and  C_6 
REMARK    6  A    between atoms: C_8  and  O_11 
REMARK    7  A    between atoms: C_10  and  O_14 
REMARK    8  A    between atoms: C_12  and  O_15 
REMARK    9  A    between atoms: C_13  and  O_16 
ROOT
HETATM    1  C   UNK N   1      34.246  15.651   9.277  0.00  0.00     0.180 C 
HETATM    2  C   UNK N   1      34.472  17.157   9.516  0.00  0.00     0.180 C 
HETATM    3  O   UNK N   1      33.173  15.479   8.383  0.00  0.00    -0.349 OA
HETATM    4  C   UNK N   1      34.792  17.811   8.171  0.00  0.00     0.183 C 
HETATM    5  C   UNK N   1      33.600  15.927   7.116  0.00  0.00     0.288 C 
HETATM    6  C   UNK N   1      33.720  17.452   7.146  0.00  0.00     0.204 C 
ENDROOT
BRANCH   1   7
HETATM    7  C   UNK N   1      33.904  14.923  10.571  0.00  0.00     0.215 C 
BRANCH   7   8
HETATM    8  O   UNK N   1      34.841  15.211  11.570  0.00  0.00    -0.294 OA
BRANCH   8   9
HETATM    9  P   UNK N   1      35.787  13.759  11.734  0.00  0.00     0.390 P 
HETATM   10  O   UNK N   1      35.015  13.794  13.081  0.00  0.00    -0.632 OA
BRANCH   9  11
HETATM   11  O   UNK N   1      37.064  13.667  12.907  0.00  0.00    -0.307 OA
HETATM   12  H   UNK N   1      37.065  14.163  13.740  0.00  0.00     0.222 HD
ENDBRANCH   9  11
BRANCH   9  13
HETATM   13  O   UNK N   1      36.849  15.132  11.631  0.00  0.00    -0.307 OA
HETATM   14  H   UNK N   1      37.810  15.237  11.550  0.00  0.00     0.222 HD
ENDBRANCH   9  13
ENDBRANCH   8   9
ENDBRANCH   7   8
ENDBRANCH   1   7
BRANCH   2  15
HETATM   15  O   UNK N   1      35.533  17.369  10.397  0.00  0.00    -0.390 OA
HETATM   16  H   UNK N   1      35.904  16.698  10.990  0.00  0.00     0.210 HD
ENDBRANCH   2  15
BRANCH   4  17
HETATM   17  O   UNK N   1      34.884  19.197   8.314  0.00  0.00    -0.390 OA
HETATM   18  H   UNK N   1      35.717  19.684   8.407  0.00  0.00     0.210 HD
ENDBRANCH   4  17
BRANCH   5  19
HETATM   19  O   UNK N   1      32.671  15.538   6.154  0.00  0.00    -0.369 OA
HETATM   20  H   UNK N   1      32.712  14.669   5.725  0.00  0.00     0.212 HD
ENDBRANCH   5  19
BRANCH   6  21
HETATM   21  O   UNK N   1      34.088  17.934   5.886  0.00  0.00    -0.388 OA
HETATM   22  H   UNK N   1      33.879  18.815   5.539  0.00  0.00     0.210 HD
ENDBRANCH   6  21
TORSDOF 9
ENDMDL
MODEL 4
REMARK VINA RESULT:      -5.5      2.296      3.071
REMARK  9 active torsions:
REMARK  status: ('A' for Active; 'I' for Inactive)
REMARK    1  A    between atoms: P_1  and  O_2 
REMARK    2  A    between atoms: P_1  and  O_3 
REMARK    3  A    between atoms: P_1  and  O_4 
REMARK    4  A    between atoms: O_2  and  C_6 
REMARK    5  A    between atoms: C_7  and  C_6 
REMARK    6  A    between atoms: C_8  and  O_11 
REMARK    7  A    between atoms: C_10  and  O_14 
REMARK    8  A    between atoms: C_12  and  O_15 
REMARK    9  A    between atoms: C_13  and  O_16 
ROOT
HETATM    1  C   UNK N   1      20.496  18.037   3.539  0.00  0.00     0.180 C 
HETATM    2  C   UNK N   1      19.893  18.799   2.341  0.00  0.00     0.180 C 
HETATM    3  O   UNK N   1      21.900  18.070   3.451  0.00  0.00    -0.349 OA
HETATM    4  C   UNK N   1      20.396  20.243   2.392  0.00  0.00     0.183 C 
HETATM    5  C   UNK N   1      22.311  19.396   3.696  0.00  0.00     0.288 C 
HETATM    6  C   UNK N   1      21.918  20.265   2.498  0.00  0.00     0.204 C 
ENDROOT
BRANCH   1   7
HETATM    7  C   UNK N   1      20.056  16.579   3.554  0.00  0.00     0.215 C 
BRANCH   7   8
HETATM    8  O   UNK N   1      18.964  16.395   4.408  0.00  0.00    -0.294 OA
BRANCH   8   9
HETATM    9  P   UNK N   1      19.097  14.752   4.967  0.00  0.00     0.390 P 
HETATM   10  O   UNK N   1      19.047  14.565   3.426  0.00  0.00    -0.632 OA
BRANCH   9  11
HETATM   11  O   UNK N   1      17.780  13.641   4.762  0.00  0.00    -0.307 OA
HETATM   12  H   UNK N   1      16.847  13.889   4.858  0.00  0.00     0.222 HD
ENDBRANCH   9  11
BRANCH   9  13
HETATM   13  O   UNK N   1      17.598  15.431   5.524  0.00  0.00    -0.307 OA
HETATM   14  H   UNK N   1      16.684  15.406   5.199  0.00  0.00     0.222 HD
ENDBRANCH   9  13
ENDBRANCH   8   9
ENDBRANCH   7   8
ENDBRANCH   1   7
BRANCH   2  15
HETATM   15  O   UNK N   1      18.500  18.792   2.395  0.00  0.00    -0.390 OA
HETATM   16  H   UNK N   1      17.975  18.505   3.159  0.00  0.00     0.210 HD
ENDBRANCH   2  15
BRANCH   4  17
HETATM   17  O   UNK N   1      19.977  20.942   1.258  0.00  0.00    -0.390 OA
HETATM   18  H   UNK N   1      19.148  20.772   0.785  0.00  0.00     0.210 HD
ENDBRANCH   4  17
BRANCH   5  19
HETATM   19  O   UNK N   1      23.692  19.423   3.875  0.00  0.00    -0.369 OA
HETATM   20  H   UNK N   1      24.284  19.828   3.222  0.00  0.00     0.212 HD
ENDBRANCH   5  19
BRANCH   6  21
HETATM   21  O   UNK N   1      22.361  21.577   2.686  0.00  0.00    -0.388 OA
HETATM   22  H   UNK N   1      21.789  22.354   2.789  0.00  0.00     0.210 HD
ENDBRANCH   6  21
TORSDOF 9
ENDMDL
MODEL 5
REMARK VINA RESULT:      -5.5     10.324     11.741
REMARK  9 active torsions:
REMARK  status: ('A' for Active; 'I' for Inactive)
REMARK    1  A    between atoms: P_1  and  O_2 
REMARK    2  A    between atoms: P_1  and  O_3 
REMARK    3  A    between atoms: P_1  and  O_4 
REMARK    4  A    between atoms: O_2  and  C_6 
REMARK    5  A    between atoms: C_7  and  C_6 
REMARK    6  A    between atoms: C_8  and  O_11 
REMARK    7  A    between atoms: C_10  and  O_14 
REMARK    8  A    between atoms: C_12  and  O_15 
REMARK    9  A    between atoms: C_13  and  O_16 
ROOT
HETATM    1  C   UNK N   1      30.809  17.186   8.067  0.00  0.00     0.180 C 
HETATM    2  C   UNK N   1      29.687  17.397   9.102  0.00  0.00     0.180 C 
HETATM    3  O   UNK N   1      30.306  16.448   6.980  0.00  0.00    -0.349 OA
HETATM    4  C   UNK N   1      28.548  18.160   8.424  0.00  0.00     0.183 C 
HETATM    5  C   UNK N   1      29.402  17.277   6.285  0.00  0.00     0.288 C 
HETATM    6  C   UNK N   1      28.141  17.455   7.133  0.00  0.00     0.204 C 
ENDROOT
BRANCH   1   7
HETATM    7  C   UNK N   1      31.982  16.415   8.660  0.00  0.00     0.215 C 
BRANCH   7   8
HETATM    8  O   UNK N   1      33.149  16.631   7.919  0.00  0.00    -0.294 OA
BRANCH   8   9
HETATM    9  P   UNK N   1      33.442  18.343   8.025  0.00  0.00     0.390 P 
HETATM   10  O   UNK N   1      34.264  17.952   6.766  0.00  0.00    -0.632 OA
BRANCH   9  11
HETATM   11  O   UNK N   1      35.026  18.945   8.402  0.00  0.00    -0.307 OA
HETATM   12  H   UNK N   1      35.766  18.379   8.674  0.00  0.00     0.222 HD
ENDBRANCH   9  11
BRANCH   9  13
HETATM   13  O   UNK N   1      34.106  17.556   9.425  0.00  0.00    -0.307 OA
HETATM   14  H   UNK N   1      34.286  17.839  10.336  0.00  0.00     0.222 HD
ENDBRANCH   9  13
ENDBRANCH   8   9
ENDBRANCH   7   8
ENDBRANCH   1   7
BRANCH   2  15
HETATM   15  O   UNK N   1      30.148  18.131  10.196  0.00  0.00    -0.390 OA
HETATM   16  H   UNK N   1      29.696  18.898  10.579  0.00  0.00     0.210 HD
ENDBRANCH   2  15
BRANCH   4  17
HETATM   17  O   UNK N   1      27.455  18.268   9.285  0.00  0.00    -0.390 OA
HETATM   18  H   UNK N   1      26.931  17.516   9.603  0.00  0.00     0.210 HD
ENDBRANCH   4  17
BRANCH   5  19
HETATM   19  O   UNK N   1      29.080  16.685   5.066  0.00  0.00    -0.369 OA
HETATM   20  H   UNK N   1      28.203  16.787   4.664  0.00  0.00     0.212 HD
ENDBRANCH   5  19
BRANCH   6  21
HETATM   21  O   UNK N   1      27.201  18.228   6.447  0.00  0.00    -0.388 OA
HETATM   22  H   UNK N   1      26.434  18.667   6.848  0.00  0.00     0.210 HD
ENDBRANCH   6  21
TORSDOF 9
ENDMDL
MODEL 6
REMARK VINA RESULT:      -5.4      0.743      2.416
REMARK  9 active torsions:
REMARK  status: ('A' for Active; 'I' for Inactive)
REMARK    1  A    between atoms: P_1  and  O_2 
REMARK    2  A    between atoms: P_1  and  O_3 
REMARK    3  A    between atoms: P_1  and  O_4 
REMARK    4  A    between atoms: O_2  and  C_6 
REMARK    5  A    between atoms: C_7  and  C_6 
REMARK    6  A    between atoms: C_8  and  O_11 
REMARK    7  A    between atoms: C_10  and  O_14 
REMARK    8  A    between atoms: C_12  and  O_15 
REMARK    9  A    between atoms: C_13  and  O_16 
ROOT
HETATM    1  C   UNK N   1      21.354  17.676   3.250  0.00  0.00     0.180 C 
HETATM    2  C   UNK N   1      21.394  19.166   3.645  0.00  0.00     0.180 C 
HETATM    3  O   UNK N   1      20.274  17.457   2.375  0.00  0.00    -0.349 OA
HETATM    4  C   UNK N   1      21.567  19.994   2.371  0.00  0.00     0.183 C 
HETATM    5  C   UNK N   1      20.583  18.088   1.152  0.00  0.00     0.288 C 
HETATM    6  C   UNK N   1      20.506  19.604   1.345  0.00  0.00     0.204 C 
ENDROOT
BRANCH   1   7
HETATM    7  C   UNK N   1      21.167  16.778   4.466  0.00  0.00     0.215 C 
BRANCH   7   8
HETATM    8  O   UNK N   1      20.482  17.450   5.484  0.00  0.00    -0.294 OA
BRANCH   8   9
HETATM    9  P   UNK N   1      21.080  16.759   6.965  0.00  0.00     0.390 P 
HETATM   10  O   UNK N   1      19.599  16.292   6.967  0.00  0.00    -0.632 OA
BRANCH   9  11
HETATM   11  O   UNK N   1      20.503  17.329   8.500  0.00  0.00    -0.307 OA
HETATM   12  H   UNK N   1      20.837  18.129   8.937  0.00  0.00     0.222 HD
ENDBRANCH   9  11
BRANCH   9  13
HETATM   13  O   UNK N   1      21.147  18.493   7.068  0.00  0.00    -0.307 OA
HETATM   14  H   UNK N   1      20.504  19.180   7.303  0.00  0.00     0.222 HD
ENDBRANCH   9  13
ENDBRANCH   8   9
ENDBRANCH   7   8
ENDBRANCH   1   7
BRANCH   2  15
HETATM   15  O   UNK N   1      22.456  19.424   4.512  0.00  0.00    -0.390 OA
HETATM   16  H   UNK N   1      22.493  19.150   5.441  0.00  0.00     0.210 HD
ENDBRANCH   2  15
BRANCH   4  17
HETATM   17  O   UNK N   1      21.485  21.356   2.663  0.00  0.00    -0.390 OA
HETATM   18  H   UNK N   1      22.240  21.965   2.653  0.00  0.00     0.210 HD
ENDBRANCH   4  17
BRANCH   5  19
HETATM   19  O   UNK N   1      19.670  17.681   0.182  0.00  0.00    -0.369 OA
HETATM   20  H   UNK N   1      19.800  17.881  -0.758  0.00  0.00     0.212 HD
ENDBRANCH   5  19
BRANCH   6  21
HETATM   21  O   UNK N   1      20.753  20.260   0.136  0.00  0.00    -0.388 OA
HETATM   22  H   UNK N   1      20.156  20.271  -0.629  0.00  0.00     0.210 HD
ENDBRANCH   6  21
TORSDOF 9
ENDMDL
MODEL 7
REMARK VINA RESULT:      -5.3     10.251     11.659
REMARK  9 active torsions:
REMARK  status: ('A' for Active; 'I' for Inactive)
REMARK    1  A    between atoms: P_1  and  O_2 
REMARK    2  A    between atoms: P_1  and  O_3 
REMARK    3  A    between atoms: P_1  and  O_4 
REMARK    4  A    between atoms: O_2  and  C_6 
REMARK    5  A    between atoms: C_7  and  C_6 
REMARK    6  A    between atoms: C_8  and  O_11 
REMARK    7  A    between atoms: C_10  and  O_14 
REMARK    8  A    between atoms: C_12  and  O_15 
REMARK    9  A    between atoms: C_13  and  O_16 
ROOT
HETATM    1  C   UNK N   1      30.929  17.068   7.815  0.00  0.00     0.180 C 
HETATM    2  C   UNK N   1      29.784  17.185   6.790  0.00  0.00     0.180 C 
HETATM    3  O   UNK N   1      30.877  18.164   8.696  0.00  0.00    -0.349 OA
HETATM    4  C   UNK N   1      28.458  17.191   7.553  0.00  0.00     0.183 C 
HETATM    5  C   UNK N   1      29.730  18.008   9.502  0.00  0.00     0.288 C 
HETATM    6  C   UNK N   1      28.487  18.257   8.644  0.00  0.00     0.204 C 
ENDROOT
BRANCH   1   7
HETATM    7  C   UNK N   1      32.293  17.071   7.136  0.00  0.00     0.215 C 
BRANCH   7   8
HETATM    8  O   UNK N   1      32.187  17.480   5.802  0.00  0.00    -0.294 OA
BRANCH   8   9
HETATM    9  P   UNK N   1      33.546  16.751   4.996  0.00  0.00     0.390 P 
HETATM   10  O   UNK N   1      32.883  15.525   5.680  0.00  0.00    -0.632 OA
BRANCH   9  11
HETATM   11  O   UNK N   1      34.855  16.074   5.912  0.00  0.00    -0.307 OA
HETATM   12  H   UNK N   1      34.902  15.141   6.174  0.00  0.00     0.222 HD
ENDBRANCH   9  11
BRANCH   9  13
HETATM   13  O   UNK N   1      34.119  17.860   6.206  0.00  0.00    -0.307 OA
HETATM   14  H   UNK N   1      34.971  17.992   6.650  0.00  0.00     0.222 HD
ENDBRANCH   9  13
ENDBRANCH   8   9
ENDBRANCH   7   8
ENDBRANCH   1   7
BRANCH   2  15
HETATM   15  O   UNK N   1      29.799  16.111   5.899  0.00  0.00    -0.390 OA
HETATM   16  H   UNK N   1      29.022  15.593   5.641  0.00  0.00     0.210 HD
ENDBRANCH   2  15
BRANCH   4  17
HETATM   17  O   UNK N   1      27.395  17.420   6.677  0.00  0.00    -0.390 OA
HETATM   18  H   UNK N   1      27.497  17.630   5.735  0.00  0.00     0.210 HD
ENDBRANCH   4  17
BRANCH   5  19
HETATM   19  O   UNK N   1      29.779  18.922  10.551  0.00  0.00    -0.369 OA
HETATM   20  H   UNK N   1      30.338  19.714  10.514  0.00  0.00     0.212 HD
ENDBRANCH   5  19
BRANCH   6  21
HETATM   21  O   UNK N   1      27.333  18.165   9.427  0.00  0.00    -0.388 OA
HETATM   22  H   UNK N   1      26.945  17.341   9.762  0.00  0.00     0.210 HD
ENDBRANCH   6  21
TORSDOF 9
ENDMDL
MODEL 8
REMARK VINA RESULT:      -5.2      9.932     11.209
REMARK  9 active torsions:
REMARK  status: ('A' for Active; 'I' for Inactive)
REMARK    1  A    between atoms: P_1  and  O_2 
REMARK    2  A    between atoms: P_1  and  O_3 
REMARK    3  A    between atoms: P_1  and  O_4 
REMARK    4  A    between atoms: O_2  and  C_6 
REMARK    5  A    between atoms: C_7  and  C_6 
REMARK    6  A    between atoms: C_8  and  O_11 
REMARK    7  A    between atoms: C_10  and  O_14 
REMARK    8  A    between atoms: C_12  and  O_15 
REMARK    9  A    between atoms: C_13  and  O_16 
ROOT
HETATM    1  C   UNK N   1      30.560  17.205   7.517  0.00  0.00     0.180 C 
HETATM    2  C   UNK N   1      29.551  17.283   8.680  0.00  0.00     0.180 C 
HETATM    3  O   UNK N   1      29.881  16.848   6.337  0.00  0.00    -0.349 OA
HETATM    4  C   UNK N   1      28.499  18.338   8.331  0.00  0.00     0.183 C 
HETATM    5  C   UNK N   1      29.071  17.941   5.965  0.00  0.00     0.288 C 
HETATM    6  C   UNK N   1      27.908  18.053   6.954  0.00  0.00     0.204 C 
ENDROOT
BRANCH   1   7
HETATM    7  C   UNK N   1      31.638  16.161   7.777  0.00  0.00     0.215 C 
BRANCH   7   8
HETATM    8  O   UNK N   1      32.587  16.638   8.687  0.00  0.00    -0.294 OA
BRANCH   8   9
HETATM    9  P   UNK N   1      33.319  15.213   9.367  0.00  0.00     0.390 P 
HETATM   10  O   UNK N   1      31.837  15.053   9.803  0.00  0.00    -0.632 OA
BRANCH   9  11
HETATM   11  O   UNK N   1      33.448  15.023  11.087  0.00  0.00    -0.307 OA
HETATM   12  H   UNK N   1      32.686  15.036  11.688  0.00  0.00     0.222 HD
ENDBRANCH   9  11
BRANCH   9  13
HETATM   13  O   UNK N   1      34.002  16.625  10.115  0.00  0.00    -0.307 OA
HETATM   14  H   UNK N   1      34.426  17.429   9.777  0.00  0.00     0.222 HD
ENDBRANCH   9  13
ENDBRANCH   8   9
ENDBRANCH   7   8
ENDBRANCH   1   7
BRANCH   2  15
HETATM   15  O   UNK N   1      30.187  17.639   9.869  0.00  0.00    -0.390 OA
HETATM   16  H   UNK N   1      29.783  17.595  10.749  0.00  0.00     0.210 HD
ENDBRANCH   2  15
BRANCH   4  17
HETATM   17  O   UNK N   1      27.493  18.358   9.299  0.00  0.00    -0.390 OA
HETATM   18  H   UNK N   1      26.564  18.570   9.118  0.00  0.00     0.210 HD
ENDBRANCH   4  17
BRANCH   5  19
HETATM   19  O   UNK N   1      28.585  17.734   4.676  0.00  0.00    -0.369 OA
HETATM   20  H   UNK N   1      28.961  18.193   3.908  0.00  0.00     0.212 HD
ENDBRANCH   5  19
BRANCH   6  21
HETATM   21  O   UNK N   1      27.054  19.094   6.581  0.00  0.00    -0.388 OA
HETATM   22  H   UNK N   1      26.876  19.375   5.669  0.00  0.00     0.210 HD
ENDBRANCH   6  21
TORSDOF 9
ENDMDL
MODEL 9
REMARK VINA RESULT:      -5.2      9.508     10.610
REMARK  9 active torsions:
REMARK  status: ('A' for Active; 'I' for Inactive)
REMARK    1  A    between atoms: P_1  and  O_2 
REMARK    2  A    between atoms: P_1  and  O_3 
REMARK    3  A    between atoms: P_1  and  O_4 
REMARK    4  A    between atoms: O_2  and  C_6 
REMARK    5  A    between atoms: C_7  and  C_6 
REMARK    6  A    between atoms: C_8  and  O_11 
REMARK    7  A    between atoms: C_10  and  O_14 
REMARK    8  A    between atoms: C_12  and  O_15 
REMARK    9  A    between atoms: C_13  and  O_16 
ROOT
HETATM    1  C   UNK N   1      29.778  17.132   6.479  0.00  0.00     0.180 C 
HETATM    2  C   UNK N   1      29.713  18.013   5.216  0.00  0.00     0.180 C 
HETATM    3  O   UNK N   1      29.444  17.909   7.604  0.00  0.00    -0.349 OA
HETATM    4  C   UNK N   1      28.288  18.553   5.083  0.00  0.00     0.183 C 
HETATM    5  C   UNK N   1      28.070  18.214   7.517  0.00  0.00     0.288 C 
HETATM    6  C   UNK N   1      27.858  19.222   6.385  0.00  0.00     0.204 C 
ENDROOT
BRANCH   1   7
HETATM    7  C   UNK N   1      31.175  16.564   6.695  0.00  0.00     0.215 C 
BRANCH   7   8
HETATM    8  O   UNK N   1      32.154  17.460   6.253  0.00  0.00    -0.294 OA
BRANCH   8   9
HETATM    9  P   UNK N   1      33.532  17.167   7.274  0.00  0.00     0.390 P 
HETATM   10  O   UNK N   1      32.750  18.233   8.088  0.00  0.00    -0.632 OA
BRANCH   9  11
HETATM   11  O   UNK N   1      34.724  18.404   7.525  0.00  0.00    -0.307 OA
HETATM   12  H   UNK N   1      34.586  19.337   7.299  0.00  0.00     0.222 HD
ENDBRANCH   9  11
BRANCH   9  13
HETATM   13  O   UNK N   1      34.065  17.853   5.769  0.00  0.00    -0.307 OA
HETATM   14  H   UNK N   1      34.926  17.924   5.328  0.00  0.00     0.222 HD
ENDBRANCH   9  13
ENDBRANCH   8   9
ENDBRANCH   7   8
ENDBRANCH   1   7
BRANCH   2  15
HETATM   15  O   UNK N   1      30.035  17.276   4.076  0.00  0.00    -0.390 OA
HETATM   16  H   UNK N   1      30.833  17.403   3.541  0.00  0.00     0.210 HD
ENDBRANCH   2  15
BRANCH   4  17
HETATM   17  O   UNK N   1      28.208  19.457   4.022  0.00  0.00    -0.390 OA
HETATM   18  H   UNK N   1      27.385  19.863   3.709  0.00  0.00     0.210 HD
ENDBRANCH   4  17
BRANCH   5  19
HETATM   19  O   UNK N   1      27.641  18.754   8.727  0.00  0.00    -0.369 OA
HETATM   20  H   UNK N   1      28.057  18.514   9.570  0.00  0.00     0.212 HD
ENDBRANCH   5  19
BRANCH   6  21
HETATM   21  O   UNK N   1      26.512  19.589   6.308  0.00  0.00    -0.388 OA
HETATM   22  H   UNK N   1      25.950  19.824   7.063  0.00  0.00     0.210 HD
ENDBRANCH   6  21
TORSDOF 9
ENDMDL
