MODEL 1
REMARK VINA RESULT:      -5.1      0.000      0.000
REMARK  6 active torsions:
REMARK  status: ('A' for Active; 'I' for Inactive)
REMARK    1  A    between atoms: C_2  and  C_4 
REMARK    2  A    between atoms: C_4  and  C_5 
REMARK    3  A    between atoms: C_5  and  C_6 
REMARK    4  A    between atoms: C_5  and  C_9 
REMARK    5  A    between atoms: C_6  and  O_7 
REMARK       I    between atoms: C_9  and  N_11 
REMARK    6  A    between atoms: N_11  and  O_12 
ROOT
HETATM    1  C   UNK N   1      33.249  17.433   8.506  0.00  0.00     0.178 C 
ENDROOT
BRANCH   1   2
HETATM    2  C   UNK N   1      31.808  17.936   8.568  0.00  0.00     0.029 C 
BRANCH   2   3
HETATM    3  C   UNK N   1      30.852  17.017   7.820  0.00  0.00    -0.021 C 
HETATM    4  C   UNK N   1      29.428  17.444   8.103  0.00  0.00     0.009 C 
HETATM    5  C   UNK N   1      31.098  17.111   6.326  0.00  0.00     0.009 C 
ENDBRANCH   2   3
ENDBRANCH   1   2
BRANCH   1   6
HETATM    6  C   UNK N   1      34.310  18.197   7.758  0.00  0.00     0.153 C 
HETATM    7  O   UNK N   1      34.500  17.983   6.572  0.00  0.00    -0.649 OA
BRANCH   6   8
HETATM    8  O   UNK N   1      35.065  19.109   8.396  0.00  0.00    -0.776 OA
HETATM    9  H   UNK N   1      35.233  19.092   9.317  0.00  0.00     0.167 HD
ENDBRANCH   6   8
ENDBRANCH   1   6
BRANCH   1  10
HETATM   10  C   UNK N   1      33.576  16.117   9.157  0.00  0.00     0.255 C 
HETATM   11  O   UNK N   1      33.124  15.084   8.686  0.00  0.00    -0.270 OA
HETATM   12  N   UNK N   1      34.354  16.058  10.260  0.00  0.00    -0.237 N 
HETATM   13  H   UNK N   1      34.549  15.185  10.670  0.00  0.00     0.197 HD
BRANCH  12  14
HETATM   14  O   UNK N   1      34.865  17.170  10.809  0.00  0.00    -0.287 OA
HETATM   15  H   UNK N   1      35.605  17.399  11.393  0.00  0.00     0.244 HD
ENDBRANCH  12  14
ENDBRANCH   1  10
TORSDOF 6
ENDMDL
MODEL 2
REMARK VINA RESULT:      -5.0      7.382      8.893
REMARK  6 active torsions:
REMARK  status: ('A' for Active; 'I' for Inactive)
REMARK    1  A    between atoms: C_2  and  C_4 
REMARK    2  A    between atoms: C_4  and  C_5 
REMARK    3  A    between atoms: C_5  and  C_6 
REMARK    4  A    between atoms: C_5  and  C_9 
REMARK    5  A    between atoms: C_6  and  O_7 
REMARK       I    between atoms: C_9  and  N_11 
REMARK    6  A    between atoms: N_11  and  O_12 
ROOT
HETATM    1  C   UNK N   1      35.502  13.057  14.759  0.00  0.00     0.178 C 
ENDROOT
BRANCH   1   2
HETATM    2  C   UNK N   1      34.660  12.985  16.031  0.00  0.00     0.029 C 
BRANCH   2   3
HETATM    3  C   UNK N   1      35.480  12.537  17.232  0.00  0.00    -0.021 C 
HETATM    4  C   UNK N   1      35.144  13.414  18.419  0.00  0.00     0.009 C 
HETATM    5  C   UNK N   1      35.150  11.099  17.584  0.00  0.00     0.009 C 
ENDBRANCH   2   3
ENDBRANCH   1   2
BRANCH   1   6
HETATM    6  C   UNK N   1      36.521  14.148  14.559  0.00  0.00     0.153 C 
HETATM    7  O   UNK N   1      36.413  14.926  13.625  0.00  0.00    -0.649 OA
BRANCH   6   8
HETATM    8  O   UNK N   1      37.565  14.263  15.400  0.00  0.00    -0.776 OA
HETATM    9  H   UNK N   1      37.714  15.009  15.946  0.00  0.00     0.167 HD
ENDBRANCH   6   8
ENDBRANCH   1   6
BRANCH   1  10
HETATM   10  C   UNK N   1      35.247  12.046  13.674  0.00  0.00     0.255 C 
HETATM   11  O   UNK N   1      35.595  10.887  13.838  0.00  0.00    -0.270 OA
HETATM   12  N   UNK N   1      34.647  12.402  12.516  0.00  0.00    -0.237 N 
HETATM   13  H   UNK N   1      34.495  11.722  11.821  0.00  0.00     0.197 HD
BRANCH  12  14
HETATM   14  O   UNK N   1      34.254  13.666  12.298  0.00  0.00    -0.287 OA
HETATM   15  H   UNK N   1      33.523  14.114  11.845  0.00  0.00     0.244 HD
ENDBRANCH  12  14
ENDBRANCH   1  10
TORSDOF 6
ENDMDL
MODEL 3
REMARK VINA RESULT:      -5.0      7.706      9.667
REMARK  6 active torsions:
REMARK  status: ('A' for Active; 'I' for Inactive)
REMARK    1  A    between atoms: C_2  and  C_4 
REMARK    2  A    between atoms: C_4  and  C_5 
REMARK    3  A    between atoms: C_5  and  C_6 
REMARK    4  A    between atoms: C_5  and  C_9 
REMARK    5  A    between atoms: C_6  and  O_7 
REMARK       I    between atoms: C_9  and  N_11 
REMARK    6  A    between atoms: N_11  and  O_12 
ROOT
HETATM    1  C   UNK N   1      36.026  12.545  15.075  0.00  0.00     0.178 C 
ENDROOT
BRANCH   1   2
HETATM    2  C   UNK N   1      34.992  12.388  16.188  0.00  0.00     0.029 C 
BRANCH   2   3
HETATM    3  C   UNK N   1      35.617  12.528  17.569  0.00  0.00    -0.021 C 
HETATM    4  C   UNK N   1      35.111  13.799  18.218  0.00  0.00     0.009 C 
HETATM    5  C   UNK N   1      35.227  11.351  18.441  0.00  0.00     0.009 C 
ENDBRANCH   2   3
ENDBRANCH   1   2
BRANCH   1   6
HETATM    6  C   UNK N   1      37.089  11.502  14.847  0.00  0.00     0.153 C 
HETATM    7  O   UNK N   1      36.879  10.336  15.137  0.00  0.00    -0.649 OA
BRANCH   6   8
HETATM    8  O   UNK N   1      38.284  11.853  14.337  0.00  0.00    -0.776 OA
HETATM    9  H   UNK N   1      38.931  12.335  14.812  0.00  0.00     0.167 HD
ENDBRANCH   6   8
ENDBRANCH   1   6
BRANCH   1  10
HETATM   10  C   UNK N   1      36.002  13.800  14.247  0.00  0.00     0.255 C 
HETATM   11  O   UNK N   1      35.202  13.900  13.329  0.00  0.00    -0.270 OA
HETATM   12  N   UNK N   1      36.856  14.818  14.496  0.00  0.00    -0.237 N 
HETATM   13  H   UNK N   1      36.822  15.627  13.936  0.00  0.00     0.197 HD
BRANCH  12  14
HETATM   14  O   UNK N   1      37.751  14.744  15.492  0.00  0.00    -0.287 OA
HETATM   15  H   UNK N   1      37.974  14.122  16.203  0.00  0.00     0.244 HD
ENDBRANCH  12  14
ENDBRANCH   1  10
TORSDOF 6
ENDMDL
MODEL 4
REMARK VINA RESULT:      -4.9      1.353      2.264
REMARK  6 active torsions:
REMARK  status: ('A' for Active; 'I' for Inactive)
REMARK    1  A    between atoms: C_2  and  C_4 
REMARK    2  A    between atoms: C_4  and  C_5 
REMARK    3  A    between atoms: C_5  and  C_6 
REMARK    4  A    between atoms: C_5  and  C_9 
REMARK    5  A    between atoms: C_6  and  O_7 
REMARK       I    between atoms: C_9  and  N_11 
REMARK    6  A    between atoms: N_11  and  O_12 
ROOT
HETATM    1  C   UNK N   1      34.145  16.871   8.521  0.00  0.00     0.178 C 
ENDROOT
BRANCH   1   2
HETATM    2  C   UNK N   1      33.083  17.930   8.230  0.00  0.00     0.029 C 
BRANCH   2   3
HETATM    3  C   UNK N   1      31.682  17.337   8.201  0.00  0.00    -0.021 C 
HETATM    4  C   UNK N   1      30.723  18.294   8.875  0.00  0.00     0.009 C 
HETATM    5  C   UNK N   1      31.231  17.131   6.767  0.00  0.00     0.009 C 
ENDBRANCH   2   3
ENDBRANCH   1   2
BRANCH   1   6
HETATM    6  C   UNK N   1      34.577  15.889   7.464  0.00  0.00     0.153 C 
HETATM    7  O   UNK N   1      34.591  14.693   7.704  0.00  0.00    -0.649 OA
BRANCH   6   8
HETATM    8  O   UNK N   1      34.967  16.325   6.252  0.00  0.00    -0.776 OA
HETATM    9  H   UNK N   1      35.308  15.766   5.583  0.00  0.00     0.167 HD
ENDBRANCH   6   8
ENDBRANCH   1   6
BRANCH   1  10
HETATM   10  C   UNK N   1      34.707  16.786   9.914  0.00  0.00     0.255 C 
HETATM   11  O   UNK N   1      35.616  17.533  10.242  0.00  0.00    -0.270 OA
HETATM   12  N   UNK N   1      34.230  15.889  10.806  0.00  0.00    -0.237 N 
HETATM   13  H   UNK N   1      34.618  15.851  11.709  0.00  0.00     0.197 HD
BRANCH  12  14
HETATM   14  O   UNK N   1      33.236  15.049  10.481  0.00  0.00    -0.287 OA
HETATM   15  H   UNK N   1      32.452  14.675  10.913  0.00  0.00     0.244 HD
ENDBRANCH  12  14
ENDBRANCH   1  10
TORSDOF 6
ENDMDL
MODEL 5
REMARK VINA RESULT:      -4.9      1.846      3.004
REMARK  6 active torsions:
REMARK  status: ('A' for Active; 'I' for Inactive)
REMARK    1  A    between atoms: C_2  and  C_4 
REMARK    2  A    between atoms: C_4  and  C_5 
REMARK    3  A    between atoms: C_5  and  C_6 
REMARK    4  A    between atoms: C_5  and  C_9 
REMARK    5  A    between atoms: C_6  and  O_7 
REMARK       I    between atoms: C_9  and  N_11 
REMARK    6  A    between atoms: N_11  and  O_12 
ROOT
HETATM    1  C   UNK N   1      34.248  17.172   6.955  0.00  0.00     0.178 C 
ENDROOT
BRANCH   1   2
HETATM    2  C   UNK N   1      33.503  17.751   5.755  0.00  0.00     0.029 C 
BRANCH   2   3
HETATM    3  C   UNK N   1      32.368  16.846   5.299  0.00  0.00    -0.021 C 
HETATM    4  C   UNK N   1      31.181  17.035   6.220  0.00  0.00     0.009 C 
HETATM    5  C   UNK N   1      31.947  17.206   3.887  0.00  0.00     0.009 C 
ENDBRANCH   2   3
ENDBRANCH   1   2
BRANCH   1   6
HETATM    6  C   UNK N   1      34.868  15.801   6.900  0.00  0.00     0.153 C 
HETATM    7  O   UNK N   1      34.656  14.993   7.790  0.00  0.00    -0.649 OA
BRANCH   6   8
HETATM    8  O   UNK N   1      35.675  15.462   5.878  0.00  0.00    -0.776 OA
HETATM    9  H   UNK N   1      35.950  16.061   5.212  0.00  0.00     0.167 HD
ENDBRANCH   6   8
ENDBRANCH   1   6
BRANCH   1  10
HETATM   10  C   UNK N   1      34.294  17.978   8.225  0.00  0.00     0.255 C 
HETATM   11  O   UNK N   1      34.996  18.976   8.279  0.00  0.00    -0.270 OA
HETATM   12  N   UNK N   1      33.578  17.610   9.311  0.00  0.00    -0.237 N 
HETATM   13  H   UNK N   1      33.630  18.152  10.131  0.00  0.00     0.197 HD
BRANCH  12  14
HETATM   14  O   UNK N   1      32.800  16.518   9.293  0.00  0.00    -0.287 OA
HETATM   15  H   UNK N   1      32.658  15.736   9.850  0.00  0.00     0.244 HD
ENDBRANCH  12  14
ENDBRANCH   1  10
TORSDOF 6
ENDMDL
MODEL 6
REMARK VINA RESULT:      -4.8      4.437      6.853
REMARK  6 active torsions:
REMARK  status: ('A' for Active; 'I' for Inactive)
REMARK    1  A    between atoms: C_2  and  C_4 
REMARK    2  A    between atoms: C_4  and  C_5 
REMARK    3  A    between atoms: C_5  and  C_6 
REMARK    4  A    between atoms: C_5  and  C_9 
REMARK    5  A    between atoms: C_6  and  O_7 
REMARK       I    between atoms: C_9  and  N_11 
REMARK    6  A    between atoms: N_11  and  O_12 
ROOT
HETATM    1  C   UNK N   1      36.000  14.432  11.651  0.00  0.00     0.178 C 
ENDROOT
BRANCH   1   2
HETATM    2  C   UNK N   1      36.488  13.304  10.745  0.00  0.00     0.029 C 
BRANCH   2   3
HETATM    3  C   UNK N   1      37.822  12.738  11.209  0.00  0.00    -0.021 C 
HETATM    4  C   UNK N   1      37.711  11.232  11.322  0.00  0.00     0.009 C 
HETATM    5  C   UNK N   1      38.909  13.069  10.205  0.00  0.00     0.009 C 
ENDBRANCH   2   3
ENDBRANCH   1   2
BRANCH   1   6
HETATM    6  C   UNK N   1      35.919  14.252  13.145  0.00  0.00     0.153 C 
HETATM    7  O   UNK N   1      34.977  13.657  13.642  0.00  0.00    -0.649 OA
BRANCH   6   8
HETATM    8  O   UNK N   1      36.877  14.760  13.941  0.00  0.00    -0.776 OA
HETATM    9  H   UNK N   1      37.062  15.676  14.013  0.00  0.00     0.167 HD
ENDBRANCH   6   8
ENDBRANCH   1   6
BRANCH   1  10
HETATM   10  C   UNK N   1      35.537  15.713  11.013  0.00  0.00     0.255 C 
HETATM   11  O   UNK N   1      36.359  16.558  10.694  0.00  0.00    -0.270 OA
HETATM   12  N   UNK N   1      34.224  15.950  10.795  0.00  0.00    -0.237 N 
HETATM   13  H   UNK N   1      33.947  16.798  10.380  0.00  0.00     0.197 HD
BRANCH  12  14
HETATM   14  O   UNK N   1      33.290  15.048  11.136  0.00  0.00    -0.287 OA
HETATM   15  H   UNK N   1      32.905  14.245  10.753  0.00  0.00     0.244 HD
ENDBRANCH  12  14
ENDBRANCH   1  10
TORSDOF 6
ENDMDL
MODEL 7
REMARK VINA RESULT:      -4.7      2.415      3.340
REMARK  6 active torsions:
REMARK  status: ('A' for Active; 'I' for Inactive)
REMARK    1  A    between atoms: C_2  and  C_4 
REMARK    2  A    between atoms: C_4  and  C_5 
REMARK    3  A    between atoms: C_5  and  C_6 
REMARK    4  A    between atoms: C_5  and  C_9 
REMARK    5  A    between atoms: C_6  and  O_7 
REMARK       I    between atoms: C_9  and  N_11 
REMARK    6  A    between atoms: N_11  and  O_12 
ROOT
HETATM    1  C   UNK N   1      34.539  16.659   8.895  0.00  0.00     0.178 C 
ENDROOT
BRANCH   1   2
HETATM    2  C   UNK N   1      34.303  15.463   7.976  0.00  0.00     0.029 C 
BRANCH   2   3
HETATM    3  C   UNK N   1      35.067  15.592   6.667  0.00  0.00    -0.021 C 
HETATM    4  C   UNK N   1      35.920  14.357   6.464  0.00  0.00     0.009 C 
HETATM    5  C   UNK N   1      34.099  15.707   5.505  0.00  0.00     0.009 C 
ENDBRANCH   2   3
ENDBRANCH   1   2
BRANCH   1   6
HETATM    6  C   UNK N   1      34.288  18.067   8.422  0.00  0.00     0.153 C 
HETATM    7  O   UNK N   1      33.212  18.368   7.931  0.00  0.00    -0.649 OA
BRANCH   6   8
HETATM    8  O   UNK N   1      35.254  18.998   8.522  0.00  0.00    -0.776 OA
HETATM    9  H   UNK N   1      35.292  19.768   7.990  0.00  0.00     0.167 HD
ENDBRANCH   6   8
ENDBRANCH   1   6
BRANCH   1  10
HETATM   10  C   UNK N   1      35.092  16.406  10.271  0.00  0.00     0.255 C 
HETATM   11  O   UNK N   1      36.191  16.849  10.568  0.00  0.00    -0.270 OA
HETATM   12  N   UNK N   1      34.398  15.688  11.182  0.00  0.00    -0.237 N 
HETATM   13  H   UNK N   1      34.785  15.534  12.073  0.00  0.00     0.197 HD
BRANCH  12  14
HETATM   14  O   UNK N   1      33.190  15.181  10.891  0.00  0.00    -0.287 OA
HETATM   15  H   UNK N   1      32.732  14.333  10.996  0.00  0.00     0.244 HD
ENDBRANCH  12  14
ENDBRANCH   1  10
TORSDOF 6
ENDMDL
MODEL 8
REMARK VINA RESULT:      -4.6      1.474      2.064
REMARK  6 active torsions:
REMARK  status: ('A' for Active; 'I' for Inactive)
REMARK    1  A    between atoms: C_2  and  C_4 
REMARK    2  A    between atoms: C_4  and  C_5 
REMARK    3  A    between atoms: C_5  and  C_6 
REMARK    4  A    between atoms: C_5  and  C_9 
REMARK    5  A    between atoms: C_6  and  O_7 
REMARK       I    between atoms: C_9  and  N_11 
REMARK    6  A    between atoms: N_11  and  O_12 
ROOT
HETATM    1  C   UNK N   1      33.731  16.583   8.847  0.00  0.00     0.178 C 
ENDROOT
BRANCH   1   2
HETATM    2  C   UNK N   1      32.484  17.166   8.186  0.00  0.00     0.029 C 
BRANCH   2   3
HETATM    3  C   UNK N   1      32.363  16.745   6.729  0.00  0.00    -0.021 C 
HETATM    4  C   UNK N   1      30.985  17.111   6.218  0.00  0.00     0.009 C 
HETATM    5  C   UNK N   1      33.398  17.467   5.888  0.00  0.00     0.009 C 
ENDBRANCH   2   3
ENDBRANCH   1   2
BRANCH   1   6
HETATM    6  C   UNK N   1      34.835  17.475   9.352  0.00  0.00     0.153 C 
HETATM    7  O   UNK N   1      35.459  17.172  10.357  0.00  0.00    -0.649 OA
BRANCH   6   8
HETATM    8  O   UNK N   1      35.129  18.620   8.709  0.00  0.00    -0.776 OA
HETATM    9  H   UNK N   1      35.075  18.723   7.780  0.00  0.00     0.167 HD
ENDBRANCH   6   8
ENDBRANCH   1   6
BRANCH   1  10
HETATM   10  C   UNK N   1      33.867  15.086   8.924  0.00  0.00     0.255 C 
HETATM   11  O   UNK N   1      34.225  14.463   7.937  0.00  0.00    -0.270 OA
HETATM   12  N   UNK N   1      33.590  14.419  10.067  0.00  0.00    -0.237 N 
HETATM   13  H   UNK N   1      33.683  13.439  10.090  0.00  0.00     0.197 HD
BRANCH  12  14
HETATM   14  O   UNK N   1      33.190  15.068  11.171  0.00  0.00    -0.287 OA
HETATM   15  H   UNK N   1      33.592  15.377  11.998  0.00  0.00     0.244 HD
ENDBRANCH  12  14
ENDBRANCH   1  10
TORSDOF 6
ENDMDL
MODEL 9
REMARK VINA RESULT:      -4.6     11.219     12.446
REMARK  6 active torsions:
REMARK  status: ('A' for Active; 'I' for Inactive)
REMARK    1  A    between atoms: C_2  and  C_4 
REMARK    2  A    between atoms: C_4  and  C_5 
REMARK    3  A    between atoms: C_5  and  C_6 
REMARK    4  A    between atoms: C_5  and  C_9 
REMARK    5  A    between atoms: C_6  and  O_7 
REMARK       I    between atoms: C_9  and  N_11 
REMARK    6  A    between atoms: N_11  and  O_12 
ROOT
HETATM    1  C   UNK N   1      43.439  21.462   3.389  0.00  0.00     0.178 C 
ENDROOT
BRANCH   1   2
HETATM    2  C   UNK N   1      42.151  20.641   3.405  0.00  0.00     0.029 C 
BRANCH   2   3
HETATM    3  C   UNK N   1      41.494  20.588   2.034  0.00  0.00    -0.021 C 
HETATM    4  C   UNK N   1      41.726  19.222   1.423  0.00  0.00     0.009 C 
HETATM    5  C   UNK N   1      39.999  20.813   2.162  0.00  0.00     0.009 C 
ENDBRANCH   2   3
ENDBRANCH   1   2
BRANCH   1   6
HETATM    6  C   UNK N   1      44.789  20.795   3.429  0.00  0.00     0.153 C 
HETATM    7  O   UNK N   1      44.929  19.665   2.991  0.00  0.00    -0.649 OA
BRANCH   6   8
HETATM    8  O   UNK N   1      45.846  21.434   3.962  0.00  0.00    -0.776 OA
HETATM    9  H   UNK N   1      46.011  22.350   3.851  0.00  0.00     0.167 HD
ENDBRANCH   6   8
ENDBRANCH   1   6
BRANCH   1  10
HETATM   10  C   UNK N   1      43.331  22.963   3.398  0.00  0.00     0.255 C 
HETATM   11  O   UNK N   1      43.074  23.554   2.361  0.00  0.00    -0.270 OA
HETATM   12  N   UNK N   1      43.525  23.669   4.534  0.00  0.00    -0.237 N 
HETATM   13  H   UNK N   1      43.453  24.651   4.512  0.00  0.00     0.197 HD
BRANCH  12  14
HETATM   14  O   UNK N   1      43.814  23.057   5.692  0.00  0.00    -0.287 OA
HETATM   15  H   UNK N   1      44.597  22.921   6.248  0.00  0.00     0.244 HD
ENDBRANCH  12  14
ENDBRANCH   1  10
TORSDOF 6
ENDMDL
