MODEL 1
REMARK VINA RESULT:      -4.1      0.000      0.000
REMARK  4 active torsions:
REMARK  status: ('A' for Active; 'I' for Inactive)
REMARK    1  A    between atoms: O_1  and  C_2 
REMARK    2  A    between atoms: C_2  and  C_4 
REMARK    3  A    between atoms: C_4  and  C_5 
REMARK    4  A    between atoms: C_5  and  O_6 
ROOT
HETATM    1  C   UNK N   1      33.886  17.279   8.948  0.00  0.00     0.219 C 
ENDROOT
BRANCH   1   2
HETATM    2  C   UNK N   1      34.693  16.754  10.106  0.00  0.00     0.149 C 
HETATM    3  O   UNK N   1      35.763  17.251  10.421  0.00  0.00    -0.650 OA
BRANCH   2   4
HETATM    4  O   UNK N   1      34.218  15.709  10.807  0.00  0.00    -0.776 OA
HETATM    5  H   UNK N   1      34.496  14.839  10.597  0.00  0.00     0.167 HD
ENDBRANCH   2   4
ENDBRANCH   1   2
BRANCH   1   6
HETATM    6  C   UNK N   1      34.558  18.242   8.005  0.00  0.00     0.149 C 
HETATM    7  O   UNK N   1      34.463  18.126   6.795  0.00  0.00    -0.650 OA
BRANCH   6   8
HETATM    8  O   UNK N   1      35.279  19.255   8.519  0.00  0.00    -0.776 OA
HETATM    9  H   UNK N   1      35.867  19.098   9.231  0.00  0.00     0.167 HD
ENDBRANCH   6   8
ENDBRANCH   1   6
TORSDOF 4
ENDMDL
MODEL 2
REMARK VINA RESULT:      -4.1      0.011      3.430
REMARK  4 active torsions:
REMARK  status: ('A' for Active; 'I' for Inactive)
REMARK    1  A    between atoms: O_1  and  C_2 
REMARK    2  A    between atoms: C_2  and  C_4 
REMARK    3  A    between atoms: C_4  and  C_5 
REMARK    4  A    between atoms: C_5  and  O_6 
ROOT
HETATM    1  C   UNK N   1      33.892  17.264   8.944  0.00  0.00     0.219 C 
ENDROOT
BRANCH   1   2
HETATM    2  C   UNK N   1      34.556  18.235   8.004  0.00  0.00     0.149 C 
HETATM    3  O   UNK N   1      34.456  18.127   6.792  0.00  0.00    -0.650 OA
BRANCH   2   4
HETATM    4  O   UNK N   1      35.278  19.247   8.520  0.00  0.00    -0.776 OA
HETATM    5  H   UNK N   1      34.940  19.743   9.240  0.00  0.00     0.167 HD
ENDBRANCH   2   4
ENDBRANCH   1   2
BRANCH   1   6
HETATM    6  C   UNK N   1      34.699  16.753  10.108  0.00  0.00     0.149 C 
HETATM    7  O   UNK N   1      35.767  17.254  10.417  0.00  0.00    -0.650 OA
BRANCH   6   8
HETATM    8  O   UNK N   1      34.222  15.716  10.821  0.00  0.00    -0.776 OA
HETATM    9  H   UNK N   1      33.646  15.096  10.419  0.00  0.00     0.167 HD
ENDBRANCH   6   8
ENDBRANCH   1   6
TORSDOF 4
ENDMDL
MODEL 3
REMARK VINA RESULT:      -3.9     16.419     17.110
REMARK  4 active torsions:
REMARK  status: ('A' for Active; 'I' for Inactive)
REMARK    1  A    between atoms: O_1  and  C_2 
REMARK    2  A    between atoms: C_2  and  C_4 
REMARK    3  A    between atoms: C_4  and  C_5 
REMARK    4  A    between atoms: C_5  and  O_6 
ROOT
HETATM    1  C   UNK N   1      17.051  18.256  10.519  0.00  0.00     0.219 C 
ENDROOT
BRANCH   1   2
HETATM    2  C   UNK N   1      18.016  17.573   9.587  0.00  0.00     0.149 C 
HETATM    3  O   UNK N   1      17.889  16.397   9.281  0.00  0.00    -0.650 OA
BRANCH   2   4
HETATM    4  O   UNK N   1      19.042  18.281   9.082  0.00  0.00    -0.776 OA
HETATM    5  H   UNK N   1      18.897  19.148   8.755  0.00  0.00     0.167 HD
ENDBRANCH   2   4
ENDBRANCH   1   2
BRANCH   1   6
HETATM    6  C   UNK N   1      17.622  18.997  11.699  0.00  0.00     0.149 C 
HETATM    7  O   UNK N   1      17.050  19.027  12.776  0.00  0.00    -0.650 OA
BRANCH   6   8
HETATM    8  O   UNK N   1      18.795  19.641  11.554  0.00  0.00    -0.776 OA
HETATM    9  H   UNK N   1      19.581  19.154  11.403  0.00  0.00     0.167 HD
ENDBRANCH   6   8
ENDBRANCH   1   6
TORSDOF 4
ENDMDL
MODEL 4
REMARK VINA RESULT:      -3.8     15.341     16.100
REMARK  4 active torsions:
REMARK  status: ('A' for Active; 'I' for Inactive)
REMARK    1  A    between atoms: O_1  and  C_2 
REMARK    2  A    between atoms: C_2  and  C_4 
REMARK    3  A    between atoms: C_4  and  C_5 
REMARK    4  A    between atoms: C_5  and  O_6 
ROOT
HETATM    1  C   UNK N   1      20.678  19.455   1.937  0.00  0.00     0.219 C 
ENDROOT
BRANCH   1   2
HETATM    2  C   UNK N   1      19.711  18.363   2.310  0.00  0.00     0.149 C 
HETATM    3  O   UNK N   1      20.078  17.212   2.486  0.00  0.00    -0.650 OA
BRANCH   2   4
HETATM    4  O   UNK N   1      18.408  18.670   2.453  0.00  0.00    -0.776 OA
HETATM    5  H   UNK N   1      17.928  19.020   1.728  0.00  0.00     0.167 HD
ENDBRANCH   2   4
ENDBRANCH   1   2
BRANCH   1   6
HETATM    6  C   UNK N   1      20.852  20.597   2.904  0.00  0.00     0.149 C 
HETATM    7  O   UNK N   1      20.234  20.648   3.954  0.00  0.00    -0.650 OA
BRANCH   6   8
HETATM    8  O   UNK N   1      21.714  21.582   2.594  0.00  0.00    -0.776 OA
HETATM    9  H   UNK N   1      22.467  21.733   3.131  0.00  0.00     0.167 HD
ENDBRANCH   6   8
ENDBRANCH   1   6
TORSDOF 4
ENDMDL
MODEL 5
REMARK VINA RESULT:      -3.8     12.418     13.653
REMARK  4 active torsions:
REMARK  status: ('A' for Active; 'I' for Inactive)
REMARK    1  A    between atoms: O_1  and  C_2 
REMARK    2  A    between atoms: C_2  and  C_4 
REMARK    3  A    between atoms: C_4  and  C_5 
REMARK    4  A    between atoms: C_5  and  O_6 
ROOT
HETATM    1  C   UNK N   1      22.901  11.756  10.795  0.00  0.00     0.219 C 
ENDROOT
BRANCH   1   2
HETATM    2  C   UNK N   1      21.491  12.253  10.975  0.00  0.00     0.149 C 
HETATM    3  O   UNK N   1      21.013  13.106  10.243  0.00  0.00    -0.650 OA
BRANCH   2   4
HETATM    4  O   UNK N   1      20.744  11.739  11.969  0.00  0.00    -0.776 OA
HETATM    5  H   UNK N   1      20.507  12.274  12.700  0.00  0.00     0.167 HD
ENDBRANCH   2   4
ENDBRANCH   1   2
BRANCH   1   6
HETATM    6  C   UNK N   1      23.893  12.050  11.889  0.00  0.00     0.149 C 
HETATM    7  O   UNK N   1      23.583  11.991  13.068  0.00  0.00    -0.650 OA
BRANCH   6   8
HETATM    8  O   UNK N   1      25.151  12.386  11.551  0.00  0.00    -0.776 OA
HETATM    9  H   UNK N   1      25.813  12.448  12.210  0.00  0.00     0.167 HD
ENDBRANCH   6   8
ENDBRANCH   1   6
TORSDOF 4
ENDMDL
MODEL 6
REMARK VINA RESULT:      -3.7      2.904      4.141
REMARK  4 active torsions:
REMARK  status: ('A' for Active; 'I' for Inactive)
REMARK    1  A    between atoms: O_1  and  C_2 
REMARK    2  A    between atoms: C_2  and  C_4 
REMARK    3  A    between atoms: C_4  and  C_5 
REMARK    4  A    between atoms: C_5  and  O_6 
ROOT
HETATM    1  C   UNK N   1      35.063  14.851  11.540  0.00  0.00     0.219 C 
ENDROOT
BRANCH   1   2
HETATM    2  C   UNK N   1      35.639  14.112  12.719  0.00  0.00     0.149 C 
HETATM    3  O   UNK N   1      34.928  13.643  13.593  0.00  0.00    -0.650 OA
BRANCH   2   4
HETATM    4  O   UNK N   1      36.975  13.969  12.804  0.00  0.00    -0.776 OA
HETATM    5  H   UNK N   1      37.469  14.524  13.374  0.00  0.00     0.167 HD
ENDBRANCH   2   4
ENDBRANCH   1   2
BRANCH   1   6
HETATM    6  C   UNK N   1      35.795  16.074  11.053  0.00  0.00     0.149 C 
HETATM    7  O   UNK N   1      35.216  17.127  10.844  0.00  0.00    -0.650 OA
BRANCH   6   8
HETATM    8  O   UNK N   1      37.122  15.995  10.846  0.00  0.00    -0.776 OA
HETATM    9  H   UNK N   1      37.560  16.660  10.353  0.00  0.00     0.167 HD
ENDBRANCH   6   8
ENDBRANCH   1   6
TORSDOF 4
ENDMDL
MODEL 7
REMARK VINA RESULT:      -3.7     15.135     16.189
REMARK  4 active torsions:
REMARK  status: ('A' for Active; 'I' for Inactive)
REMARK    1  A    between atoms: O_1  and  C_2 
REMARK    2  A    between atoms: C_2  and  C_4 
REMARK    3  A    between atoms: C_4  and  C_5 
REMARK    4  A    between atoms: C_5  and  O_6 
ROOT
HETATM    1  C   UNK N   1      20.295  20.053   3.089  0.00  0.00     0.219 C 
ENDROOT
BRANCH   1   2
HETATM    2  C   UNK N   1      21.259  20.755   2.170  0.00  0.00     0.149 C 
HETATM    3  O   UNK N   1      21.290  20.521   0.972  0.00  0.00    -0.650 OA
BRANCH   2   4
HETATM    4  O   UNK N   1      22.105  21.664   2.688  0.00  0.00    -0.776 OA
HETATM    5  H   UNK N   1      22.132  22.532   2.338  0.00  0.00     0.167 HD
ENDBRANCH   2   4
ENDBRANCH   1   2
BRANCH   1   6
HETATM    6  C   UNK N   1      19.700  18.752   2.619  0.00  0.00     0.149 C 
HETATM    7  O   UNK N   1      20.383  17.753   2.463  0.00  0.00    -0.650 OA
BRANCH   6   8
HETATM    8  O   UNK N   1      18.380  18.697   2.367  0.00  0.00    -0.776 OA
HETATM    9  H   UNK N   1      18.035  19.083   1.586  0.00  0.00     0.167 HD
ENDBRANCH   6   8
ENDBRANCH   1   6
TORSDOF 4
ENDMDL
MODEL 8
REMARK VINA RESULT:      -3.6     12.155     13.184
REMARK  4 active torsions:
REMARK  status: ('A' for Active; 'I' for Inactive)
REMARK    1  A    between atoms: O_1  and  C_2 
REMARK    2  A    between atoms: C_2  and  C_4 
REMARK    3  A    between atoms: C_4  and  C_5 
REMARK    4  A    between atoms: C_5  and  O_6 
ROOT
HETATM    1  C   UNK N   1      22.509  11.707  11.384  0.00  0.00     0.219 C 
ENDROOT
BRANCH   1   2
HETATM    2  C   UNK N   1      23.694  12.057  12.244  0.00  0.00     0.149 C 
HETATM    3  O   UNK N   1      23.615  12.092  13.462  0.00  0.00    -0.650 OA
BRANCH   2   4
HETATM    4  O   UNK N   1      24.868  12.337  11.649  0.00  0.00    -0.776 OA
HETATM    5  H   UNK N   1      25.271  11.704  11.088  0.00  0.00     0.167 HD
ENDBRANCH   2   4
ENDBRANCH   1   2
BRANCH   1   6
HETATM    6  C   UNK N   1      21.989  12.763  10.445  0.00  0.00     0.149 C 
HETATM    7  O   UNK N   1      22.732  13.574   9.916  0.00  0.00    -0.650 OA
BRANCH   6   8
HETATM    8  O   UNK N   1      20.669  12.808  10.188  0.00  0.00    -0.776 OA
HETATM    9  H   UNK N   1      20.330  13.442   9.586  0.00  0.00     0.167 HD
ENDBRANCH   6   8
ENDBRANCH   1   6
TORSDOF 4
ENDMDL
MODEL 9
REMARK VINA RESULT:      -3.6     11.749     12.108
REMARK  4 active torsions:
REMARK  status: ('A' for Active; 'I' for Inactive)
REMARK    1  A    between atoms: O_1  and  C_2 
REMARK    2  A    between atoms: C_2  and  C_4 
REMARK    3  A    between atoms: C_4  and  C_5 
REMARK    4  A    between atoms: C_5  and  O_6 
ROOT
HETATM    1  C   UNK N   1      43.583  21.655   3.590  0.00  0.00     0.219 C 
ENDROOT
BRANCH   1   2
HETATM    2  C   UNK N   1      45.033  21.304   3.795  0.00  0.00     0.149 C 
HETATM    3  O   UNK N   1      45.461  20.183   3.567  0.00  0.00    -0.650 OA
BRANCH   2   4
HETATM    4  O   UNK N   1      45.874  22.256   4.241  0.00  0.00    -0.776 OA
HETATM    5  H   UNK N   1      46.587  22.540   3.703  0.00  0.00     0.167 HD
ENDBRANCH   2   4
ENDBRANCH   1   2
BRANCH   1   6
HETATM    6  C   UNK N   1      43.238  23.102   3.358  0.00  0.00     0.149 C 
HETATM    7  O   UNK N   1      42.692  23.475   2.332  0.00  0.00    -0.650 OA
BRANCH   6   8
HETATM    8  O   UNK N   1      43.543  24.002   4.310  0.00  0.00    -0.776 OA
HETATM    9  H   UNK N   1      43.316  24.903   4.194  0.00  0.00     0.167 HD
ENDBRANCH   6   8
ENDBRANCH   1   6
TORSDOF 4
ENDMDL
