REMARK  11 active torsions:
REMARK  status: ('A' for Active; 'I' for Inactive)
REMARK    1  A    between atoms: N_2  and  C_5 
REMARK    2  A    between atoms: C_8  and  C_9 
REMARK    3  A    between atoms: C_9  and  N_10 
REMARK       I    between atoms: N_10  and  C_11 
REMARK    4  A    between atoms: C_11  and  C_13 
REMARK    5  A    between atoms: C_19  and  O_20 
REMARK    6  A    between atoms: O_20  and  C_21 
REMARK    7  A    between atoms: C_21  and  C_22 
REMARK    8  A    between atoms: N_29  and  C_30 
REMARK    9  A    between atoms: C_30  and  C_31 
REMARK   10  A    between atoms: C_35  and  C_37 
REMARK   11  A    between atoms: C_37  and  N_38 
ROOT
HETATM    1  C   UNK N   1      -1.019  -1.236  -0.257  0.00  0.00     0.104 A 
HETATM    2  C   UNK N   1      -0.324  -2.079   0.602  0.00  0.00     0.049 A 
HETATM    3  C   UNK N   1       0.985  -1.682   0.496  0.00  0.00    -0.004 A 
HETATM    4  C   UNK N   1       1.054  -0.675  -0.410  0.00  0.00     0.045 A 
HETATM    5  C   UNK N   1       2.292  -0.204  -0.867  0.00  0.00     0.033 A 
HETATM    6  C   UNK N   1       3.458  -0.804  -0.391  0.00  0.00     0.039 A 
HETATM    7  C   UNK N   1       3.371  -1.839   0.552  0.00  0.00     0.070 A 
HETATM    8  C   UNK N   1       2.112  -2.260   1.032  0.00  0.00     0.050 A 
HETATM    9  N   UNK N   1      -0.177  -0.318  -0.823  0.00  0.00    -0.337 N 
ENDROOT
BRANCH   1  10
HETATM   10  C   UNK N   1      -2.343  -1.623  -0.784  0.00  0.00     0.268 C 
HETATM   11  N   UNK N   1      -3.486  -1.394  -0.114  0.00  0.00    -0.351 N 
HETATM   12  H   UNK N   1      -4.323  -1.794  -0.444  0.00  0.00     0.163 HD
HETATM   13  O   UNK N   1      -2.383  -2.296  -1.801  0.00  0.00    -0.266 OA
BRANCH  11  14
HETATM   14  C   UNK N   1      -3.518  -0.585   1.062  0.00  0.00     0.161 C 
BRANCH  14  15
HETATM   15  C   UNK N   1      -4.053   0.742   0.681  0.00  0.00    -0.040 A 
HETATM   16  C   UNK N   1      -3.278   1.881   0.887  0.00  0.00     0.011 A 
HETATM   17  C   UNK N   1      -3.804   3.140   0.602  0.00  0.00     0.038 A 
HETATM   18  C   UNK N   1      -5.113   3.277   0.091  0.00  0.00     0.135 A 
HETATM   19  C   UNK N   1      -5.864   2.107  -0.153  0.00  0.00     0.038 A 
HETATM   20  C   UNK N   1      -5.335   0.851   0.136  0.00  0.00     0.011 A 
BRANCH  18  21
HETATM   21  N   UNK N   1      -5.700   4.584  -0.042  0.00  0.00    -0.049 N 
HETATM   22  C   UNK N   1      -5.854   5.149   1.274  0.00  0.00     0.278 C 
HETATM   23  C   UNK N   1      -6.994   4.555  -0.684  0.00  0.00     0.278 C 
HETATM   24  C   UNK N   1      -4.822   5.456  -0.781  0.00  0.00     0.278 C 
ENDBRANCH  18  21
ENDBRANCH  14  15
ENDBRANCH  11  14
ENDBRANCH   1  10
BRANCH   9  25
HETATM   25  C   UNK N   1      -0.495   0.794  -1.746  0.00  0.00     0.168 C 
BRANCH  25  26
HETATM   26  C   UNK N   1      -0.021   2.140  -1.165  0.00  0.00    -0.039 A 
HETATM   27  C   UNK N   1      -0.835   3.281  -1.083  0.00  0.00     0.009 A 
HETATM   28  C   UNK N   1      -0.323   4.468  -0.511  0.00  0.00     0.002 A 
HETATM   29  C   UNK N   1       0.989   4.512   0.002  0.00  0.00     0.015 A 
HETATM   30  C   UNK N   1       1.803   3.379  -0.094  0.00  0.00     0.007 A 
HETATM   31  C   UNK N   1       1.280   2.245  -0.687  0.00  0.00     0.024 A 
BRANCH  30  32
HETATM   32  C   UNK N   1       3.193   3.323   0.429  0.00  0.00     0.102 C 
HETATM   33  N   UNK N   1       3.660   4.272   1.152  0.00  0.00    -0.385 N 
HETATM   34  H   UNK N   1       4.471   4.325   1.708  0.00  0.00     0.157 HD
ATOM     35  HN  UNK N   1       3.093   5.120   1.152  1.00  0.00     0.157 HD
BRANCH  32  36
HETATM   36  N   UNK N   1       4.012   2.203   0.148  0.00  0.00    -0.385 N 
HETATM   37  H   UNK N   1       3.623   1.320  -0.047  0.00  0.00     0.157 HD
HETATM   38  H   UNK N   1       4.991   2.309   0.148  0.00  0.00     0.157 HD
ENDBRANCH  32  36
ENDBRANCH  30  32
ENDBRANCH  25  26
ENDBRANCH   9  25
BRANCH   7  39
HETATM   39  O   UNK N   1       4.445  -2.624   0.779  0.00  0.00    -0.347 OA
BRANCH  39  40
HETATM   40  C   UNK N   1       4.616  -3.787   0.020  0.00  0.00     0.214 C 
BRANCH  40  41
HETATM   41  C   UNK N   1       3.294  -4.475  -0.246  0.00  0.00    -0.034 A 
HETATM   42  C   UNK N   1       2.664  -5.186   0.784  0.00  0.00     0.009 A 
HETATM   43  C   UNK N   1       1.336  -5.601   0.642  0.00  0.00     0.001 A 
HETATM   44  C   UNK N   1       0.621  -5.283  -0.517  0.00  0.00     0.000 A 
HETATM   45  C   UNK N   1       1.240  -4.568  -1.546  0.00  0.00     0.001 A 
HETATM   46  C   UNK N   1       2.570  -4.154  -1.408  0.00  0.00     0.009 A 
ENDBRANCH  40  41
ENDBRANCH  39  40
ENDBRANCH   7  39
TORSDOF 11
