MODEL 1
REMARK VINA RESULT:      -4.8      0.000      0.000
REMARK  9 active torsions:
REMARK  status: ('A' for Active; 'I' for Inactive)
REMARK    1  A    between atoms: C_2  and  N_1 
REMARK    2  A    between atoms: C_2  and  C_3 
REMARK    3  A    between atoms: C_2  and  C_5 
REMARK    4  A    between atoms: C_3  and  O_4 
REMARK    5  A    between atoms: C_5  and  C_6 
REMARK    6  A    between atoms: C_6  and  C_7 
REMARK    7  A    between atoms: C_7  and  C_8 
REMARK    8  A    between atoms: C_8  and  N_9 
REMARK       I    between atoms: N_9  and  C_10 
REMARK    9  A    between atoms: C_10  and  O_11 
ROOT
HETATM    1  C   UNK N   1      30.843  16.960   6.895  0.00  0.00     0.004 C 
ENDROOT
BRANCH   1   2
HETATM    2  C   UNK N   1      29.543  17.614   6.467  0.00  0.00     0.027 C 
BRANCH   2   3
HETATM    3  C   UNK N   1      28.480  17.337   7.523  0.00  0.00     0.097 C 
BRANCH   3   4
HETATM    4  N   UNK N   1      27.292  16.774   6.899  0.00  0.00    -0.424 N 
HETATM    5  H   UNK N   1      26.526  17.315   6.498  0.00  0.00     0.150 HD
HETATM    6  H   UNK N   1      27.219  15.757   6.861  0.00  0.00     0.150 HD
ENDBRANCH   3   4
BRANCH   3   7
HETATM    7  C   UNK N   1      28.115  18.624   8.239  0.00  0.00     0.188 C 
BRANCH   7   8
HETATM    8  O   UNK N   1      27.443  18.331   9.428  0.00  0.00    -0.399 OA
HETATM    9  H   UNK N   1      27.202  19.018  10.070  0.00  0.00     0.209 HD
ENDBRANCH   7   8
ENDBRANCH   3   7
ENDBRANCH   2   3
ENDBRANCH   1   2
BRANCH   1  10
HETATM   10  C   UNK N   1      31.298  17.421   8.262  0.00  0.00     0.020 C 
BRANCH  10  11
HETATM   11  C   UNK N   1      32.667  16.815   8.477  0.00  0.00     0.125 C 
BRANCH  11  12
HETATM   12  N   UNK N   1      33.600  17.790   8.978  0.00  0.00    -0.338 N 
HETATM   13  C   UNK N   1      34.499  18.379   8.155  0.00  0.00     0.249 C 
HETATM   14  O   UNK N   1      34.522  18.107   6.961  0.00  0.00    -0.632 OA
HETATM   15  H   UNK N   1      33.586  18.030   9.933  0.00  0.00     0.165 HD
BRANCH  13  16
HETATM   16  O   UNK N   1      35.375  19.272   8.648  0.00  0.00    -0.760 OA
HETATM   17  H   UNK N   1      35.078  19.954   9.217  0.00  0.00     0.169 HD
ENDBRANCH  13  16
ENDBRANCH  11  12
ENDBRANCH  10  11
ENDBRANCH   1  10
TORSDOF 9
ENDMDL
MODEL 2
REMARK VINA RESULT:      -4.5      4.353      6.727
REMARK  9 active torsions:
REMARK  status: ('A' for Active; 'I' for Inactive)
REMARK    1  A    between atoms: C_2  and  N_1 
REMARK    2  A    between atoms: C_2  and  C_3 
REMARK    3  A    between atoms: C_2  and  C_5 
REMARK    4  A    between atoms: C_3  and  O_4 
REMARK    5  A    between atoms: C_5  and  C_6 
REMARK    6  A    between atoms: C_6  and  C_7 
REMARK    7  A    between atoms: C_7  and  C_8 
REMARK    8  A    between atoms: C_8  and  N_9 
REMARK       I    between atoms: N_9  and  C_10 
REMARK    9  A    between atoms: C_10  and  O_11 
ROOT
HETATM    1  C   UNK N   1      34.874  14.186   9.673  0.00  0.00     0.004 C 
ENDROOT
BRANCH   1   2
HETATM    2  C   UNK N   1      35.310  13.218  10.755  0.00  0.00     0.027 C 
BRANCH   2   3
HETATM    3  C   UNK N   1      36.212  13.952  11.740  0.00  0.00     0.097 C 
BRANCH   3   4
HETATM    4  N   UNK N   1      37.554  13.391  11.700  0.00  0.00    -0.424 N 
HETATM    5  H   UNK N   1      37.812  12.514  11.248  0.00  0.00     0.150 HD
HETATM    6  H   UNK N   1      38.297  13.918  12.162  0.00  0.00     0.150 HD
ENDBRANCH   3   4
BRANCH   3   7
HETATM    7  C   UNK N   1      35.653  13.828  13.145  0.00  0.00     0.188 C 
BRANCH   7   8
HETATM    8  O   UNK N   1      34.451  13.119  13.117  0.00  0.00    -0.399 OA
HETATM    9  H   UNK N   1      34.377  12.208  13.444  0.00  0.00     0.209 HD
ENDBRANCH   7   8
ENDBRANCH   3   7
ENDBRANCH   2   3
ENDBRANCH   1   2
BRANCH   1  10
HETATM   10  C   UNK N   1      33.840  15.175  10.164  0.00  0.00     0.020 C 
BRANCH  10  11
HETATM   11  C   UNK N   1      33.648  16.176   9.047  0.00  0.00     0.125 C 
BRANCH  11  12
HETATM   12  N   UNK N   1      34.330  17.412   9.326  0.00  0.00    -0.338 N 
HETATM   13  C   UNK N   1      34.719  18.234   8.323  0.00  0.00     0.249 C 
HETATM   14  O   UNK N   1      34.480  17.948   7.156  0.00  0.00    -0.632 OA
HETATM   15  H   UNK N   1      34.518  17.664  10.259  0.00  0.00     0.165 HD
BRANCH  13  16
HETATM   16  O   UNK N   1      35.372  19.374   8.605  0.00  0.00    -0.760 OA
HETATM   17  H   UNK N   1      35.828  19.833   7.926  0.00  0.00     0.169 HD
ENDBRANCH  13  16
ENDBRANCH  11  12
ENDBRANCH  10  11
ENDBRANCH   1  10
TORSDOF 9
ENDMDL
MODEL 3
REMARK VINA RESULT:      -4.5      9.790     11.865
REMARK  9 active torsions:
REMARK  status: ('A' for Active; 'I' for Inactive)
REMARK    1  A    between atoms: C_2  and  N_1 
REMARK    2  A    between atoms: C_2  and  C_3 
REMARK    3  A    between atoms: C_2  and  C_5 
REMARK    4  A    between atoms: C_3  and  O_4 
REMARK    5  A    between atoms: C_5  and  C_6 
REMARK    6  A    between atoms: C_6  and  C_7 
REMARK    7  A    between atoms: C_7  and  C_8 
REMARK    8  A    between atoms: C_8  and  N_9 
REMARK       I    between atoms: N_9  and  C_10 
REMARK    9  A    between atoms: C_10  and  O_11 
ROOT
HETATM    1  C   UNK N   1      21.509  13.418   9.069  0.00  0.00     0.004 C 
ENDROOT
BRANCH   1   2
HETATM    2  C   UNK N   1      22.660  13.436  10.057  0.00  0.00     0.027 C 
BRANCH   2   3
HETATM    3  C   UNK N   1      23.257  12.036  10.144  0.00  0.00     0.097 C 
BRANCH   3   4
HETATM    4  N   UNK N   1      22.628  11.293  11.226  0.00  0.00    -0.424 N 
HETATM    5  H   UNK N   1      23.097  10.612  11.822  0.00  0.00     0.150 HD
HETATM    6  H   UNK N   1      21.638  11.467  11.401  0.00  0.00     0.150 HD
ENDBRANCH   3   4
BRANCH   3   7
HETATM    7  C   UNK N   1      24.750  12.125  10.393  0.00  0.00     0.188 C 
BRANCH   7   8
HETATM    8  O   UNK N   1      24.994  12.328  11.753  0.00  0.00    -0.399 OA
HETATM    9  H   UNK N   1      25.255  11.606  12.347  0.00  0.00     0.209 HD
ENDBRANCH   7   8
ENDBRANCH   3   7
ENDBRANCH   2   3
ENDBRANCH   1   2
BRANCH   1  10
HETATM   10  C   UNK N   1      20.303  14.179   9.574  0.00  0.00     0.020 C 
BRANCH  10  11
HETATM   11  C   UNK N   1      20.294  15.497   8.832  0.00  0.00     0.125 C 
BRANCH  11  12
HETATM   12  N   UNK N   1      19.042  16.186   8.999  0.00  0.00    -0.338 N 
HETATM   13  C   UNK N   1      18.998  17.535   9.100  0.00  0.00     0.249 C 
HETATM   14  O   UNK N   1      20.026  18.198   9.032  0.00  0.00    -0.632 OA
HETATM   15  H   UNK N   1      18.205  15.669   9.042  0.00  0.00     0.165 HD
BRANCH  13  16
HETATM   16  O   UNK N   1      17.820  18.157   9.277  0.00  0.00    -0.760 OA
HETATM   17  H   UNK N   1      17.323  18.008  10.057  0.00  0.00     0.169 HD
ENDBRANCH  13  16
ENDBRANCH  11  12
ENDBRANCH  10  11
ENDBRANCH   1  10
TORSDOF 9
ENDMDL
MODEL 4
REMARK VINA RESULT:      -4.5      3.070      3.543
REMARK  9 active torsions:
REMARK  status: ('A' for Active; 'I' for Inactive)
REMARK    1  A    between atoms: C_2  and  N_1 
REMARK    2  A    between atoms: C_2  and  C_3 
REMARK    3  A    between atoms: C_2  and  C_5 
REMARK    4  A    between atoms: C_3  and  O_4 
REMARK    5  A    between atoms: C_5  and  C_6 
REMARK    6  A    between atoms: C_6  and  C_7 
REMARK    7  A    between atoms: C_7  and  C_8 
REMARK    8  A    between atoms: C_8  and  N_9 
REMARK       I    between atoms: N_9  and  C_10 
REMARK    9  A    between atoms: C_10  and  O_11 
ROOT
HETATM    1  C   UNK N   1      30.900  16.550   6.876  0.00  0.00     0.004 C 
ENDROOT
BRANCH   1   2
HETATM    2  C   UNK N   1      32.032  15.821   6.176  0.00  0.00     0.027 C 
BRANCH   2   3
HETATM    3  C   UNK N   1      32.100  16.290   4.728  0.00  0.00     0.097 C 
BRANCH   3   4
HETATM    4  N   UNK N   1      32.761  17.585   4.654  0.00  0.00    -0.424 N 
HETATM    5  H   UNK N   1      33.334  17.995   5.390  0.00  0.00     0.150 HD
HETATM    6  H   UNK N   1      32.642  18.124   3.796  0.00  0.00     0.150 HD
ENDBRANCH   3   4
BRANCH   3   7
HETATM    7  C   UNK N   1      30.700  16.403   4.154  0.00  0.00     0.188 C 
BRANCH   7   8
HETATM    8  O   UNK N   1      30.745  17.049   2.917  0.00  0.00    -0.399 OA
HETATM    9  H   UNK N   1      31.581  17.246   2.464  0.00  0.00     0.209 HD
ENDBRANCH   7   8
ENDBRANCH   3   7
ENDBRANCH   2   3
ENDBRANCH   1   2
BRANCH   1  10
HETATM   10  C   UNK N   1      31.381  17.368   8.054  0.00  0.00     0.020 C 
BRANCH  10  11
HETATM   11  C   UNK N   1      32.714  16.779   8.461  0.00  0.00     0.125 C 
BRANCH  11  12
HETATM   12  N   UNK N   1      33.609  17.793   8.953  0.00  0.00    -0.338 N 
HETATM   13  C   UNK N   1      34.524  18.369   8.138  0.00  0.00     0.249 C 
HETATM   14  O   UNK N   1      34.594  18.049   6.957  0.00  0.00    -0.632 OA
HETATM   15  H   UNK N   1      33.556  18.071   9.896  0.00  0.00     0.165 HD
BRANCH  13  16
HETATM   16  O   UNK N   1      35.363  19.299   8.623  0.00  0.00    -0.760 OA
HETATM   17  H   UNK N   1      36.270  19.095   8.743  0.00  0.00     0.169 HD
ENDBRANCH  13  16
ENDBRANCH  11  12
ENDBRANCH  10  11
ENDBRANCH   1  10
TORSDOF 9
ENDMDL
MODEL 5
REMARK VINA RESULT:      -4.4      1.988      2.229
REMARK  9 active torsions:
REMARK  status: ('A' for Active; 'I' for Inactive)
REMARK    1  A    between atoms: C_2  and  N_1 
REMARK    2  A    between atoms: C_2  and  C_3 
REMARK    3  A    between atoms: C_2  and  C_5 
REMARK    4  A    between atoms: C_3  and  O_4 
REMARK    5  A    between atoms: C_5  and  C_6 
REMARK    6  A    between atoms: C_6  and  C_7 
REMARK    7  A    between atoms: C_7  and  C_8 
REMARK    8  A    between atoms: C_8  and  N_9 
REMARK       I    between atoms: N_9  and  C_10 
REMARK    9  A    between atoms: C_10  and  O_11 
ROOT
HETATM    1  C   UNK N   1      29.646  17.620   7.497  0.00  0.00     0.004 C 
ENDROOT
BRANCH   1   2
HETATM    2  C   UNK N   1      28.537  18.591   7.855  0.00  0.00     0.027 C 
BRANCH   2   3
HETATM    3  C   UNK N   1      28.107  19.335   6.596  0.00  0.00     0.097 C 
BRANCH   3   4
HETATM    4  N   UNK N   1      26.670  19.565   6.619  0.00  0.00    -0.424 N 
HETATM    5  H   UNK N   1      26.220  20.478   6.561  0.00  0.00     0.150 HD
HETATM    6  H   UNK N   1      26.065  18.748   6.701  0.00  0.00     0.150 HD
ENDBRANCH   3   4
BRANCH   3   7
HETATM    7  C   UNK N   1      28.470  18.524   5.366  0.00  0.00     0.188 C 
BRANCH   7   8
HETATM    8  O   UNK N   1      28.620  19.371   4.266  0.00  0.00    -0.399 OA
HETATM    9  H   UNK N   1      27.897  19.543   3.642  0.00  0.00     0.209 HD
ENDBRANCH   7   8
ENDBRANCH   3   7
ENDBRANCH   2   3
ENDBRANCH   1   2
BRANCH   1  10
HETATM   10  C   UNK N   1      30.724  17.558   8.556  0.00  0.00     0.020 C 
BRANCH  10  11
HETATM   11  C   UNK N   1      32.038  17.453   7.816  0.00  0.00     0.125 C 
BRANCH  11  12
HETATM   12  N   UNK N   1      33.057  18.259   8.435  0.00  0.00    -0.338 N 
HETATM   13  C   UNK N   1      34.284  18.382   7.876  0.00  0.00     0.249 C 
HETATM   14  O   UNK N   1      34.544  17.821   6.819  0.00  0.00    -0.632 OA
HETATM   15  H   UNK N   1      32.859  18.728   9.279  0.00  0.00     0.165 HD
BRANCH  13  16
HETATM   16  O   UNK N   1      35.226  19.124   8.482  0.00  0.00    -0.760 OA
HETATM   17  H   UNK N   1      35.348  20.019   8.235  0.00  0.00     0.169 HD
ENDBRANCH  13  16
ENDBRANCH  11  12
ENDBRANCH  10  11
ENDBRANCH   1  10
TORSDOF 9
ENDMDL
MODEL 6
REMARK VINA RESULT:      -4.4     12.323     13.419
REMARK  9 active torsions:
REMARK  status: ('A' for Active; 'I' for Inactive)
REMARK    1  A    between atoms: C_2  and  N_1 
REMARK    2  A    between atoms: C_2  and  C_3 
REMARK    3  A    between atoms: C_2  and  C_5 
REMARK    4  A    between atoms: C_3  and  O_4 
REMARK    5  A    between atoms: C_5  and  C_6 
REMARK    6  A    between atoms: C_6  and  C_7 
REMARK    7  A    between atoms: C_7  and  C_8 
REMARK    8  A    between atoms: C_8  and  N_9 
REMARK       I    between atoms: N_9  and  C_10 
REMARK    9  A    between atoms: C_10  and  O_11 
ROOT
HETATM    1  C   UNK N   1      20.561  16.881   2.339  0.00  0.00     0.004 C 
ENDROOT
BRANCH   1   2
HETATM    2  C   UNK N   1      20.149  15.423   2.290  0.00  0.00     0.027 C 
BRANCH   2   3
HETATM    3  C   UNK N   1      19.724  15.078   0.868  0.00  0.00     0.097 C 
BRANCH   3   4
HETATM    4  N   UNK N   1      19.125  16.242   0.230  0.00  0.00    -0.424 N 
HETATM    5  H   UNK N   1      19.092  16.409  -0.775  0.00  0.00     0.150 HD
HETATM    6  H   UNK N   1      18.705  16.946   0.838  0.00  0.00     0.150 HD
ENDBRANCH   3   4
BRANCH   3   7
HETATM    7  C   UNK N   1      18.720  13.940   0.889  0.00  0.00     0.188 C 
BRANCH   7   8
HETATM    8  O   UNK N   1      17.533  14.343   0.274  0.00  0.00    -0.399 OA
HETATM    9  H   UNK N   1      16.926  14.979   0.684  0.00  0.00     0.209 HD
ENDBRANCH   7   8
ENDBRANCH   3   7
ENDBRANCH   2   3
ENDBRANCH   1   2
BRANCH   1  10
HETATM   10  C   UNK N   1      19.671  17.703   3.246  0.00  0.00     0.020 C 
BRANCH  10  11
HETATM   11  C   UNK N   1      20.128  19.137   3.100  0.00  0.00     0.125 C 
BRANCH  11  12
HETATM   12  N   UNK N   1      19.906  19.627   1.766  0.00  0.00    -0.338 N 
HETATM   13  C   UNK N   1      20.852  20.351   1.123  0.00  0.00     0.249 C 
HETATM   14  O   UNK N   1      21.927  20.586   1.661  0.00  0.00    -0.632 OA
HETATM   15  H   UNK N   1      19.052  19.435   1.314  0.00  0.00     0.165 HD
BRANCH  13  16
HETATM   16  O   UNK N   1      20.615  20.816  -0.115  0.00  0.00    -0.760 OA
HETATM   17  H   UNK N   1      20.775  21.717  -0.316  0.00  0.00     0.169 HD
ENDBRANCH  13  16
ENDBRANCH  11  12
ENDBRANCH  10  11
ENDBRANCH   1  10
TORSDOF 9
ENDMDL
MODEL 7
REMARK VINA RESULT:      -4.4      9.070     10.846
REMARK  9 active torsions:
REMARK  status: ('A' for Active; 'I' for Inactive)
REMARK    1  A    between atoms: C_2  and  N_1 
REMARK    2  A    between atoms: C_2  and  C_3 
REMARK    3  A    between atoms: C_2  and  C_5 
REMARK    4  A    between atoms: C_3  and  O_4 
REMARK    5  A    between atoms: C_5  and  C_6 
REMARK    6  A    between atoms: C_6  and  C_7 
REMARK    7  A    between atoms: C_7  and  C_8 
REMARK    8  A    between atoms: C_8  and  N_9 
REMARK       I    between atoms: N_9  and  C_10 
REMARK    9  A    between atoms: C_10  and  O_11 
ROOT
HETATM    1  C   UNK N   1      36.860  13.472  15.118  0.00  0.00     0.004 C 
ENDROOT
BRANCH   1   2
HETATM    2  C   UNK N   1      36.398  14.059  13.799  0.00  0.00     0.027 C 
BRANCH   2   3
HETATM    3  C   UNK N   1      36.560  13.008  12.707  0.00  0.00     0.097 C 
BRANCH   3   4
HETATM    4  N   UNK N   1      37.592  13.421  11.767  0.00  0.00    -0.424 N 
HETATM    5  H   UNK N   1      37.445  13.599  10.774  0.00  0.00     0.150 HD
HETATM    6  H   UNK N   1      38.538  13.541  12.131  0.00  0.00     0.150 HD
ENDBRANCH   3   4
BRANCH   3   7
HETATM    7  C   UNK N   1      35.248  12.822  11.968  0.00  0.00     0.188 C 
BRANCH   7   8
HETATM    8  O   UNK N   1      34.311  13.752  12.423  0.00  0.00    -0.399 OA
HETATM    9  H   UNK N   1      34.230  14.639  12.037  0.00  0.00     0.209 HD
ENDBRANCH   7   8
ENDBRANCH   3   7
ENDBRANCH   2   3
ENDBRANCH   1   2
BRANCH   1  10
HETATM   10  C   UNK N   1      35.969  12.344  15.592  0.00  0.00     0.020 C 
BRANCH  10  11
HETATM   11  C   UNK N   1      34.926  12.977  16.486  0.00  0.00     0.125 C 
BRANCH  11  12
HETATM   12  N   UNK N   1      35.050  12.520  17.845  0.00  0.00    -0.338 N 
HETATM   13  C   UNK N   1      35.227  13.396  18.861  0.00  0.00     0.249 C 
HETATM   14  O   UNK N   1      35.266  14.601  18.644  0.00  0.00    -0.632 OA
HETATM   15  H   UNK N   1      35.007  11.555  18.038  0.00  0.00     0.165 HD
BRANCH  13  16
HETATM   16  O   UNK N   1      35.361  12.945  20.120  0.00  0.00    -0.760 OA
HETATM   17  H   UNK N   1      35.980  13.346  20.698  0.00  0.00     0.169 HD
ENDBRANCH  13  16
ENDBRANCH  11  12
ENDBRANCH  10  11
ENDBRANCH   1  10
TORSDOF 9
ENDMDL
MODEL 8
REMARK VINA RESULT:      -4.3      2.096      2.232
REMARK  9 active torsions:
REMARK  status: ('A' for Active; 'I' for Inactive)
REMARK    1  A    between atoms: C_2  and  N_1 
REMARK    2  A    between atoms: C_2  and  C_3 
REMARK    3  A    between atoms: C_2  and  C_5 
REMARK    4  A    between atoms: C_3  and  O_4 
REMARK    5  A    between atoms: C_5  and  C_6 
REMARK    6  A    between atoms: C_6  and  C_7 
REMARK    7  A    between atoms: C_7  and  C_8 
REMARK    8  A    between atoms: C_8  and  N_9 
REMARK       I    between atoms: N_9  and  C_10 
REMARK    9  A    between atoms: C_10  and  O_11 
ROOT
HETATM    1  C   UNK N   1      31.304  18.013   8.626  0.00  0.00     0.004 C 
ENDROOT
BRANCH   1   2
HETATM    2  C   UNK N   1      30.571  17.057   7.705  0.00  0.00     0.027 C 
BRANCH   2   3
HETATM    3  C   UNK N   1      29.071  17.296   7.839  0.00  0.00     0.097 C 
BRANCH   3   4
HETATM    4  N   UNK N   1      28.661  18.387   6.967  0.00  0.00    -0.424 N 
HETATM    5  H   UNK N   1      28.338  19.301   7.282  0.00  0.00     0.150 HD
HETATM    6  H   UNK N   1      28.698  18.223   5.961  0.00  0.00     0.150 HD
ENDBRANCH   3   4
BRANCH   3   7
HETATM    7  C   UNK N   1      28.728  17.640   9.276  0.00  0.00     0.188 C 
BRANCH   7   8
HETATM    8  O   UNK N   1      27.491  18.285   9.327  0.00  0.00    -0.399 OA
HETATM    9  H   UNK N   1      27.313  19.020   9.936  0.00  0.00     0.209 HD
ENDBRANCH   7   8
ENDBRANCH   3   7
ENDBRANCH   2   3
ENDBRANCH   1   2
BRANCH   1  10
HETATM   10  C   UNK N   1      32.787  18.074   8.333  0.00  0.00     0.020 C 
BRANCH  10  11
HETATM   11  C   UNK N   1      33.384  16.810   8.910  0.00  0.00     0.125 C 
BRANCH  11  12
HETATM   12  N   UNK N   1      34.515  17.099   9.752  0.00  0.00    -0.338 N 
HETATM   13  C   UNK N   1      35.448  16.155  10.012  0.00  0.00     0.249 C 
HETATM   14  O   UNK N   1      35.358  15.038   9.519  0.00  0.00    -0.632 OA
HETATM   15  H   UNK N   1      34.610  17.997  10.146  0.00  0.00     0.165 HD
BRANCH  13  16
HETATM   16  O   UNK N   1      36.486  16.441  10.818  0.00  0.00    -0.760 OA
HETATM   17  H   UNK N   1      37.099  17.106  10.574  0.00  0.00     0.169 HD
ENDBRANCH  13  16
ENDBRANCH  11  12
ENDBRANCH  10  11
ENDBRANCH   1  10
TORSDOF 9
ENDMDL
MODEL 9
REMARK VINA RESULT:      -4.3      4.408      6.193
REMARK  9 active torsions:
REMARK  status: ('A' for Active; 'I' for Inactive)
REMARK    1  A    between atoms: C_2  and  N_1 
REMARK    2  A    between atoms: C_2  and  C_3 
REMARK    3  A    between atoms: C_2  and  C_5 
REMARK    4  A    between atoms: C_3  and  O_4 
REMARK    5  A    between atoms: C_5  and  C_6 
REMARK    6  A    between atoms: C_6  and  C_7 
REMARK    7  A    between atoms: C_7  and  C_8 
REMARK    8  A    between atoms: C_8  and  N_9 
REMARK       I    between atoms: N_9  and  C_10 
REMARK    9  A    between atoms: C_10  and  O_11 
ROOT
HETATM    1  C   UNK N   1      33.810  14.958   9.659  0.00  0.00     0.004 C 
ENDROOT
BRANCH   1   2
HETATM    2  C   UNK N   1      34.302  15.886   8.565  0.00  0.00     0.027 C 
BRANCH   2   3
HETATM    3  C   UNK N   1      33.905  17.315   8.914  0.00  0.00     0.097 C 
BRANCH   3   4
HETATM    4  N   UNK N   1      32.455  17.443   8.917  0.00  0.00    -0.424 N 
HETATM    5  H   UNK N   1      31.819  16.915   9.514  0.00  0.00     0.150 HD
HETATM    6  H   UNK N   1      32.042  18.115   8.269  0.00  0.00     0.150 HD
ENDBRANCH   3   4
BRANCH   3   7
HETATM    7  C   UNK N   1      34.496  18.278   7.901  0.00  0.00     0.188 C 
BRANCH   7   8
HETATM    8  O   UNK N   1      35.292  19.223   8.553  0.00  0.00    -0.399 OA
HETATM    9  H   UNK N   1      35.249  20.170   8.345  0.00  0.00     0.209 HD
ENDBRANCH   7   8
ENDBRANCH   3   7
ENDBRANCH   2   3
ENDBRANCH   1   2
BRANCH   1  10
HETATM   10  C   UNK N   1      34.433  15.267  11.002  0.00  0.00     0.020 C 
BRANCH  10  11
HETATM   11  C   UNK N   1      35.573  14.288  11.174  0.00  0.00     0.125 C 
BRANCH  11  12
HETATM   12  N   UNK N   1      36.469  14.702  12.222  0.00  0.00    -0.338 N 
HETATM   13  C   UNK N   1      36.212  14.401  13.516  0.00  0.00     0.249 C 
HETATM   14  O   UNK N   1      35.218  13.752  13.819  0.00  0.00    -0.632 OA
HETATM   15  H   UNK N   1      37.280  15.213  11.994  0.00  0.00     0.165 HD
BRANCH  13  16
HETATM   16  O   UNK N   1      37.051  14.815  14.481  0.00  0.00    -0.760 OA
HETATM   17  H   UNK N   1      36.730  14.966  15.348  0.00  0.00     0.169 HD
ENDBRANCH  13  16
ENDBRANCH  11  12
ENDBRANCH  10  11
ENDBRANCH   1  10
TORSDOF 9
ENDMDL
