MODEL 1
REMARK VINA RESULT:      -4.4      0.000      0.000
REMARK  10 active torsions:
REMARK  status: ('A' for Active; 'I' for Inactive)
REMARK    1  A    between atoms: C_4  and  C_2 
REMARK    2  A    between atoms: O_8  and  C_2 
REMARK    3  A    between atoms: C_5  and  C_3 
REMARK    4  A    between atoms: O_9  and  C_3 
REMARK    5  A    between atoms: C_6  and  C_4 
REMARK    6  A    between atoms: C_4  and  O_10 
REMARK    7  A    between atoms: C_7  and  C_5 
REMARK    8  A    between atoms: C_7  and  C_6 
REMARK    9  A    between atoms: C_6  and  O_12 
REMARK   10  A    between atoms: C_7  and  O_13 
ROOT
HETATM    1  C   UNK N   1      20.709  19.653   3.284  0.00  0.00     0.185 C 
ENDROOT
BRANCH   1   2
HETATM    2  C   UNK N   1      21.486  20.495   2.246  0.00  0.00     0.173 C 
BRANCH   2   3
HETATM    3  C   UNK N   1      20.641  20.818   1.016  0.00  0.00     0.198 C 
BRANCH   3   4
HETATM    4  O   UNK N   1      20.616  19.745   0.124  0.00  0.00    -0.398 OA
HETATM    5  H   UNK N   1      20.890  18.839  -0.091  0.00  0.00     0.209 HD
ENDBRANCH   3   4
ENDBRANCH   2   3
BRANCH   2   6
HETATM    6  O   UNK N   1      21.931  21.692   2.812  0.00  0.00    -0.391 OA
HETATM    7  H   UNK N   1      21.981  22.169   3.655  0.00  0.00     0.210 HD
ENDBRANCH   2   6
ENDBRANCH   1   2
BRANCH   1   8
HETATM    8  C   UNK N   1      21.349  18.255   3.518  0.00  0.00     0.223 C 
BRANCH   8   9
HETATM    9  C   UNK N   1      20.603  17.139   2.799  0.00  0.00     0.181 C 
HETATM   10  O   UNK N   1      20.600  17.086   1.580  0.00  0.00    -0.293 OA
BRANCH   9  11
HETATM   11  C   UNK N   1      19.856  16.075   3.557  0.00  0.00     0.245 C 
BRANCH  11  12
HETATM   12  O   UNK N   1      18.784  16.595   4.284  0.00  0.00    -0.393 OA
HETATM   13  H   UNK N   1      18.227  16.021   4.832  0.00  0.00     0.209 HD
ENDBRANCH  11  12
ENDBRANCH   9  11
ENDBRANCH   8   9
BRANCH   8  14
HETATM   14  O   UNK N   1      21.361  17.954   4.902  0.00  0.00    -0.380 OA
HETATM   15  C   UNK N   1      22.676  18.042   5.391  0.00  0.00     0.202 C 
ENDBRANCH   8  14
ENDBRANCH   1   8
BRANCH   1  16
HETATM   16  O   UNK N   1      19.398  19.476   2.829  0.00  0.00    -0.390 OA
HETATM   17  H   UNK N   1      18.873  18.808   2.360  0.00  0.00     0.210 HD
ENDBRANCH   1  16
TORSDOF 10
ENDMDL
MODEL 2
REMARK VINA RESULT:      -4.4      1.809      2.339
REMARK  10 active torsions:
REMARK  status: ('A' for Active; 'I' for Inactive)
REMARK    1  A    between atoms: C_4  and  C_2 
REMARK    2  A    between atoms: O_8  and  C_2 
REMARK    3  A    between atoms: C_5  and  C_3 
REMARK    4  A    between atoms: O_9  and  C_3 
REMARK    5  A    between atoms: C_6  and  C_4 
REMARK    6  A    between atoms: C_4  and  O_10 
REMARK    7  A    between atoms: C_7  and  C_5 
REMARK    8  A    between atoms: C_7  and  C_6 
REMARK    9  A    between atoms: C_6  and  O_12 
REMARK   10  A    between atoms: C_7  and  O_13 
ROOT
HETATM    1  C   UNK N   1      20.083  18.495   2.639  0.00  0.00     0.185 C 
ENDROOT
BRANCH   1   2
HETATM    2  C   UNK N   1      21.083  19.624   2.297  0.00  0.00     0.173 C 
BRANCH   2   3
HETATM    3  C   UNK N   1      20.463  20.689   1.394  0.00  0.00     0.198 C 
BRANCH   3   4
HETATM    4  O   UNK N   1      20.600  20.351   0.047  0.00  0.00    -0.398 OA
HETATM    5  H   UNK N   1      21.183  20.156  -0.704  0.00  0.00     0.209 HD
ENDBRANCH   3   4
ENDBRANCH   2   3
BRANCH   2   6
HETATM    6  O   UNK N   1      21.552  20.239   3.459  0.00  0.00    -0.391 OA
HETATM    7  H   UNK N   1      21.579  20.136   4.423  0.00  0.00     0.210 HD
ENDBRANCH   2   6
ENDBRANCH   1   2
BRANCH   1   8
HETATM    8  C   UNK N   1      20.558  17.104   2.132  0.00  0.00     0.223 C 
BRANCH   8   9
HETATM    9  C   UNK N   1      20.074  16.796   0.721  0.00  0.00     0.181 C 
HETATM   10  O   UNK N   1      20.387  17.521  -0.210  0.00  0.00    -0.293 OA
BRANCH   9  11
HETATM   11  C   UNK N   1      19.207  15.600   0.428  0.00  0.00     0.245 C 
BRANCH  11  12
HETATM   12  O   UNK N   1      18.058  15.942  -0.285  0.00  0.00    -0.393 OA
HETATM   13  H   UNK N   1      18.031  16.739  -0.838  0.00  0.00     0.209 HD
ENDBRANCH  11  12
ENDBRANCH   9  11
ENDBRANCH   8   9
BRANCH   8  14
HETATM   14  O   UNK N   1      20.078  16.086   2.992  0.00  0.00    -0.380 OA
HETATM   15  C   UNK N   1      21.104  15.689   3.869  0.00  0.00     0.202 C 
ENDBRANCH   8  14
ENDBRANCH   1   8
BRANCH   1  16
HETATM   16  O   UNK N   1      18.850  18.792   2.048  0.00  0.00    -0.390 OA
HETATM   17  H   UNK N   1      17.959  19.063   2.318  0.00  0.00     0.210 HD
ENDBRANCH   1  16
TORSDOF 10
ENDMDL
MODEL 3
REMARK VINA RESULT:      -4.3     14.287     16.720
REMARK  10 active torsions:
REMARK  status: ('A' for Active; 'I' for Inactive)
REMARK    1  A    between atoms: C_4  and  C_2 
REMARK    2  A    between atoms: O_8  and  C_2 
REMARK    3  A    between atoms: C_5  and  C_3 
REMARK    4  A    between atoms: O_9  and  C_3 
REMARK    5  A    between atoms: C_6  and  C_4 
REMARK    6  A    between atoms: C_4  and  O_10 
REMARK    7  A    between atoms: C_7  and  C_5 
REMARK    8  A    between atoms: C_7  and  C_6 
REMARK    9  A    between atoms: C_6  and  O_12 
REMARK   10  A    between atoms: C_7  and  O_13 
ROOT
HETATM    1  C   UNK N   1      35.504  16.133  10.629  0.00  0.00     0.185 C 
ENDROOT
BRANCH   1   2
HETATM    2  C   UNK N   1      35.023  14.806  11.260  0.00  0.00     0.173 C 
BRANCH   2   3
HETATM    3  C   UNK N   1      35.654  14.556  12.629  0.00  0.00     0.198 C 
BRANCH   3   4
HETATM    4  O   UNK N   1      36.930  14.005  12.505  0.00  0.00    -0.398 OA
HETATM    5  H   UNK N   1      37.484  13.220  12.365  0.00  0.00     0.209 HD
ENDBRANCH   3   4
ENDBRANCH   2   3
BRANCH   2   6
HETATM    6  O   UNK N   1      33.633  14.798  11.399  0.00  0.00    -0.391 OA
HETATM    7  H   UNK N   1      32.903  15.275  11.823  0.00  0.00     0.210 HD
ENDBRANCH   2   6
ENDBRANCH   1   2
BRANCH   1   8
HETATM    8  C   UNK N   1      35.230  16.199   9.100  0.00  0.00     0.223 C 
BRANCH   8   9
HETATM    9  C   UNK N   1      34.047  17.094   8.753  0.00  0.00     0.181 C 
HETATM   10  O   UNK N   1      32.912  16.758   9.051  0.00  0.00    -0.293 OA
BRANCH   9  11
HETATM   11  C   UNK N   1      34.234  18.409   8.044  0.00  0.00     0.245 C 
BRANCH  11  12
HETATM   12  O   UNK N   1      35.303  19.142   8.562  0.00  0.00    -0.393 OA
HETATM   13  H   UNK N   1      35.231  20.100   8.700  0.00  0.00     0.209 HD
ENDBRANCH  11  12
ENDBRANCH   9  11
ENDBRANCH   8   9
BRANCH   8  14
HETATM   14  O   UNK N   1      34.958  14.902   8.601  0.00  0.00    -0.380 OA
HETATM   15  C   UNK N   1      35.280  14.848   7.232  0.00  0.00     0.202 C 
ENDBRANCH   8  14
ENDBRANCH   1   8
BRANCH   1  16
HETATM   16  O   UNK N   1      36.881  16.260  10.845  0.00  0.00    -0.390 OA
HETATM   17  H   UNK N   1      37.551  16.961  10.879  0.00  0.00     0.210 HD
ENDBRANCH   1  16
TORSDOF 10
ENDMDL
MODEL 4
REMARK VINA RESULT:      -4.3     16.027     18.309
REMARK  10 active torsions:
REMARK  status: ('A' for Active; 'I' for Inactive)
REMARK    1  A    between atoms: C_4  and  C_2 
REMARK    2  A    between atoms: O_8  and  C_2 
REMARK    3  A    between atoms: C_5  and  C_3 
REMARK    4  A    between atoms: O_9  and  C_3 
REMARK    5  A    between atoms: C_6  and  C_4 
REMARK    6  A    between atoms: C_4  and  O_10 
REMARK    7  A    between atoms: C_7  and  C_5 
REMARK    8  A    between atoms: C_7  and  C_6 
REMARK    9  A    between atoms: C_6  and  O_12 
REMARK   10  A    between atoms: C_7  and  O_13 
ROOT
HETATM    1  C   UNK N   1      35.153  14.814  11.790  0.00  0.00     0.185 C 
ENDROOT
BRANCH   1   2
HETATM    2  C   UNK N   1      35.897  15.264  10.512  0.00  0.00     0.173 C 
BRANCH   2   3
HETATM    3  C   UNK N   1      34.979  16.007   9.542  0.00  0.00     0.198 C 
BRANCH   3   4
HETATM    4  O   UNK N   1      34.482  17.179  10.116  0.00  0.00    -0.398 OA
HETATM    5  H   UNK N   1      33.994  17.606  10.837  0.00  0.00     0.209 HD
ENDBRANCH   3   4
ENDBRANCH   2   3
BRANCH   2   6
HETATM    6  O   UNK N   1      36.976  16.090  10.831  0.00  0.00    -0.391 OA
HETATM    7  H   UNK N   1      37.668  16.224  11.498  0.00  0.00     0.210 HD
ENDBRANCH   2   6
ENDBRANCH   1   2
BRANCH   1   8
HETATM    8  C   UNK N   1      35.759  13.521  12.408  0.00  0.00     0.223 C 
BRANCH   8   9
HETATM    9  C   UNK N   1      35.549  13.435  13.914  0.00  0.00     0.181 C 
HETATM   10  O   UNK N   1      34.470  13.087  14.367  0.00  0.00    -0.293 OA
BRANCH   9  11
HETATM   11  C   UNK N   1      36.650  13.769  14.884  0.00  0.00     0.245 C 
BRANCH  11  12
HETATM   12  O   UNK N   1      37.165  15.050  14.681  0.00  0.00    -0.393 OA
HETATM   13  H   UNK N   1      36.846  15.607  13.954  0.00  0.00     0.209 HD
ENDBRANCH  11  12
ENDBRANCH   9  11
ENDBRANCH   8   9
BRANCH   8  14
HETATM   14  O   UNK N   1      37.152  13.472  12.157  0.00  0.00    -0.380 OA
HETATM   15  C   UNK N   1      37.500  12.192  11.690  0.00  0.00     0.202 C 
ENDBRANCH   8  14
ENDBRANCH   1   8
BRANCH   1  16
HETATM   16  O   UNK N   1      33.812  14.573  11.470  0.00  0.00    -0.390 OA
HETATM   17  H   UNK N   1      33.296  14.145  10.769  0.00  0.00     0.210 HD
ENDBRANCH   1  16
TORSDOF 10
ENDMDL
MODEL 5
REMARK VINA RESULT:      -4.1     14.263     16.806
REMARK  10 active torsions:
REMARK  status: ('A' for Active; 'I' for Inactive)
REMARK    1  A    between atoms: C_4  and  C_2 
REMARK    2  A    between atoms: O_8  and  C_2 
REMARK    3  A    between atoms: C_5  and  C_3 
REMARK    4  A    between atoms: O_9  and  C_3 
REMARK    5  A    between atoms: C_6  and  C_4 
REMARK    6  A    between atoms: C_4  and  O_10 
REMARK    7  A    between atoms: C_7  and  C_5 
REMARK    8  A    between atoms: C_7  and  C_6 
REMARK    9  A    between atoms: C_6  and  O_12 
REMARK   10  A    between atoms: C_7  and  O_13 
ROOT
HETATM    1  C   UNK N   1      34.288  14.304  10.479  0.00  0.00     0.185 C 
ENDROOT
BRANCH   1   2
HETATM    2  C   UNK N   1      35.147  13.434  11.425  0.00  0.00     0.173 C 
BRANCH   2   3
HETATM    3  C   UNK N   1      36.487  14.089  11.754  0.00  0.00     0.198 C 
BRANCH   3   4
HETATM    4  O   UNK N   1      36.326  15.146  12.651  0.00  0.00    -0.398 OA
HETATM    5  H   UNK N   1      36.296  16.103  12.807  0.00  0.00     0.209 HD
ENDBRANCH   3   4
ENDBRANCH   2   3
BRANCH   2   6
HETATM    6  O   UNK N   1      34.467  13.179  12.618  0.00  0.00    -0.391 OA
HETATM    7  H   UNK N   1      33.666  12.760  12.970  0.00  0.00     0.210 HD
ENDBRANCH   2   6
ENDBRANCH   1   2
BRANCH   1   8
HETATM    8  C   UNK N   1      35.151  15.151   9.501  0.00  0.00     0.223 C 
BRANCH   8   9
HETATM    9  C   UNK N   1      34.950  16.649   9.687  0.00  0.00     0.181 C 
HETATM   10  O   UNK N   1      35.561  17.250  10.556  0.00  0.00    -0.293 OA
BRANCH   9  11
HETATM   11  C   UNK N   1      34.006  17.433   8.815  0.00  0.00     0.245 C 
BRANCH  11  12
HETATM   12  O   UNK N   1      32.676  17.054   8.999  0.00  0.00    -0.393 OA
HETATM   13  H   UNK N   1      32.012  17.692   9.305  0.00  0.00     0.209 HD
ENDBRANCH  11  12
ENDBRANCH   9  11
ENDBRANCH   8   9
BRANCH   8  14
HETATM   14  O   UNK N   1      34.821  14.828   8.162  0.00  0.00    -0.380 OA
HETATM   15  C   UNK N   1      35.936  14.250   7.530  0.00  0.00     0.202 C 
ENDBRANCH   8  14
ENDBRANCH   1   8
BRANCH   1  16
HETATM   16  O   UNK N   1      33.504  15.169  11.252  0.00  0.00    -0.390 OA
HETATM   17  H   UNK N   1      32.827  15.851  11.121  0.00  0.00     0.210 HD
ENDBRANCH   1  16
TORSDOF 10
ENDMDL
MODEL 6
REMARK VINA RESULT:      -4.1     16.133     17.981
REMARK  10 active torsions:
REMARK  status: ('A' for Active; 'I' for Inactive)
REMARK    1  A    between atoms: C_4  and  C_2 
REMARK    2  A    between atoms: O_8  and  C_2 
REMARK    3  A    between atoms: C_5  and  C_3 
REMARK    4  A    between atoms: O_9  and  C_3 
REMARK    5  A    between atoms: C_6  and  C_4 
REMARK    6  A    between atoms: C_4  and  O_10 
REMARK    7  A    between atoms: C_7  and  C_5 
REMARK    8  A    between atoms: C_7  and  C_6 
REMARK    9  A    between atoms: C_6  and  O_12 
REMARK   10  A    between atoms: C_7  and  O_13 
ROOT
HETATM    1  C   UNK N   1      34.987  15.099  11.839  0.00  0.00     0.185 C 
ENDROOT
BRANCH   1   2
HETATM    2  C   UNK N   1      35.777  15.531  10.582  0.00  0.00     0.173 C 
BRANCH   2   3
HETATM    3  C   UNK N   1      35.040  16.599   9.775  0.00  0.00     0.198 C 
BRANCH   3   4
HETATM    4  O   UNK N   1      35.566  17.868  10.017  0.00  0.00    -0.398 OA
HETATM    5  H   UNK N   1      35.891  18.523  10.655  0.00  0.00     0.209 HD
ENDBRANCH   3   4
ENDBRANCH   2   3
BRANCH   2   6
HETATM    6  O   UNK N   1      37.036  16.024  10.933  0.00  0.00    -0.391 OA
HETATM    7  H   UNK N   1      37.969  15.999  10.670  0.00  0.00     0.210 HD
ENDBRANCH   2   6
ENDBRANCH   1   2
BRANCH   1   8
HETATM    8  C   UNK N   1      35.685  13.946  12.613  0.00  0.00     0.223 C 
BRANCH   8   9
HETATM    9  C   UNK N   1      35.945  12.725  11.741  0.00  0.00     0.181 C 
HETATM   10  O   UNK N   1      35.015  12.130  11.220  0.00  0.00    -0.293 OA
BRANCH   9  11
HETATM   11  C   UNK N   1      37.340  12.218  11.489  0.00  0.00     0.245 C 
BRANCH  11  12
HETATM   12  O   UNK N   1      38.261  13.256  11.340  0.00  0.00    -0.393 OA
HETATM   13  H   UNK N   1      39.211  13.074  11.262  0.00  0.00     0.209 HD
ENDBRANCH  11  12
ENDBRANCH   9  11
ENDBRANCH   8   9
BRANCH   8  14
HETATM   14  O   UNK N   1      34.878  13.539  13.705  0.00  0.00    -0.380 OA
HETATM   15  C   UNK N   1      35.696  13.257  14.814  0.00  0.00     0.202 C 
ENDBRANCH   8  14
ENDBRANCH   1   8
BRANCH   1  16
HETATM   16  O   UNK N   1      33.714  14.671  11.444  0.00  0.00    -0.390 OA
HETATM   17  H   UNK N   1      32.996  14.113  11.782  0.00  0.00     0.210 HD
ENDBRANCH   1  16
TORSDOF 10
ENDMDL
MODEL 7
REMARK VINA RESULT:      -3.9     13.980     16.148
REMARK  10 active torsions:
REMARK  status: ('A' for Active; 'I' for Inactive)
REMARK    1  A    between atoms: C_4  and  C_2 
REMARK    2  A    between atoms: O_8  and  C_2 
REMARK    3  A    between atoms: C_5  and  C_3 
REMARK    4  A    between atoms: O_9  and  C_3 
REMARK    5  A    between atoms: C_6  and  C_4 
REMARK    6  A    between atoms: C_4  and  O_10 
REMARK    7  A    between atoms: C_7  and  C_5 
REMARK    8  A    between atoms: C_7  and  C_6 
REMARK    9  A    between atoms: C_6  and  O_12 
REMARK   10  A    between atoms: C_7  and  O_13 
ROOT
HETATM    1  C   UNK N   1      34.799  16.622   9.489  0.00  0.00     0.185 C 
ENDROOT
BRANCH   1   2
HETATM    2  C   UNK N   1      33.568  17.277   8.821  0.00  0.00     0.173 C 
BRANCH   2   3
HETATM    3  C   UNK N   1      33.952  18.469   7.946  0.00  0.00     0.198 C 
BRANCH   3   4
HETATM    4  O   UNK N   1      35.093  19.107   8.433  0.00  0.00    -0.398 OA
HETATM    5  H   UNK N   1      35.507  19.657   9.118  0.00  0.00     0.209 HD
ENDBRANCH   3   4
ENDBRANCH   2   3
BRANCH   2   6
HETATM    6  O   UNK N   1      32.877  16.349   8.039  0.00  0.00    -0.391 OA
HETATM    7  H   UNK N   1      32.761  15.396   7.904  0.00  0.00     0.210 HD
ENDBRANCH   2   6
ENDBRANCH   1   2
BRANCH   1   8
HETATM    8  C   UNK N   1      34.643  15.083   9.647  0.00  0.00     0.223 C 
BRANCH   8   9
HETATM    9  C   UNK N   1      35.241  14.562  10.947  0.00  0.00     0.181 C 
HETATM   10  O   UNK N   1      34.536  14.414  11.933  0.00  0.00    -0.293 OA
BRANCH   9  11
HETATM   11  C   UNK N   1      36.701  14.212  11.060  0.00  0.00     0.245 C 
BRANCH  11  12
HETATM   12  O   UNK N   1      37.525  15.202  10.524  0.00  0.00    -0.393 OA
HETATM   13  H   UNK N   1      37.899  15.112   9.633  0.00  0.00     0.209 HD
ENDBRANCH  11  12
ENDBRANCH   9  11
ENDBRANCH   8   9
BRANCH   8  14
HETATM   14  O   UNK N   1      35.287  14.420   8.573  0.00  0.00    -0.380 OA
HETATM   15  C   UNK N   1      34.558  13.267   8.229  0.00  0.00     0.202 C 
ENDBRANCH   8  14
ENDBRANCH   1   8
BRANCH   1  16
HETATM   16  O   UNK N   1      34.976  17.188  10.757  0.00  0.00    -0.390 OA
HETATM   17  H   UNK N   1      35.665  17.252  11.437  0.00  0.00     0.210 HD
ENDBRANCH   1  16
TORSDOF 10
ENDMDL
MODEL 8
REMARK VINA RESULT:      -3.9     23.095     24.600
REMARK  10 active torsions:
REMARK  status: ('A' for Active; 'I' for Inactive)
REMARK    1  A    between atoms: C_4  and  C_2 
REMARK    2  A    between atoms: O_8  and  C_2 
REMARK    3  A    between atoms: C_5  and  C_3 
REMARK    4  A    between atoms: O_9  and  C_3 
REMARK    5  A    between atoms: C_6  and  C_4 
REMARK    6  A    between atoms: C_4  and  O_10 
REMARK    7  A    between atoms: C_7  and  C_5 
REMARK    8  A    between atoms: C_7  and  C_6 
REMARK    9  A    between atoms: C_6  and  O_12 
REMARK   10  A    between atoms: C_7  and  O_13 
ROOT
HETATM    1  C   UNK N   1      43.676  22.701   3.226  0.00  0.00     0.185 C 
ENDROOT
BRANCH   1   2
HETATM    2  C   UNK N   1      44.612  21.798   4.061  0.00  0.00     0.173 C 
BRANCH   2   3
HETATM    3  C   UNK N   1      44.859  20.447   3.392  0.00  0.00     0.198 C 
BRANCH   3   4
HETATM    4  O   UNK N   1      46.202  20.078   3.479  0.00  0.00    -0.398 OA
HETATM    5  H   UNK N   1      46.959  19.605   3.097  0.00  0.00     0.209 HD
ENDBRANCH   3   4
ENDBRANCH   2   3
BRANCH   2   6
HETATM    6  O   UNK N   1      45.842  22.424   4.275  0.00  0.00    -0.391 OA
HETATM    7  H   UNK N   1      46.574  22.479   4.910  0.00  0.00     0.210 HD
ENDBRANCH   2   6
ENDBRANCH   1   2
BRANCH   1   8
HETATM    8  C   UNK N   1      44.138  22.833   1.747  0.00  0.00     0.223 C 
BRANCH   8   9
HETATM    9  C   UNK N   1      44.522  24.259   1.376  0.00  0.00     0.181 C 
HETATM   10  O   UNK N   1      43.667  25.056   1.024  0.00  0.00    -0.293 OA
BRANCH   9  11
HETATM   11  C   UNK N   1      45.950  24.732   1.434  0.00  0.00     0.245 C 
BRANCH  11  12
HETATM   12  O   UNK N   1      46.457  24.728   2.734  0.00  0.00    -0.393 OA
HETATM   13  H   UNK N   1      45.863  24.712   3.501  0.00  0.00     0.209 HD
ENDBRANCH  11  12
ENDBRANCH   9  11
ENDBRANCH   8   9
BRANCH   8  14
HETATM   14  O   UNK N   1      43.099  22.419   0.877  0.00  0.00    -0.380 OA
HETATM   15  C   UNK N   1      43.618  21.540  -0.090  0.00  0.00     0.202 C 
ENDBRANCH   8  14
ENDBRANCH   1   8
BRANCH   1  16
HETATM   16  O   UNK N   1      43.648  23.976   3.803  0.00  0.00    -0.390 OA
HETATM   17  H   UNK N   1      43.426  24.886   3.550  0.00  0.00     0.210 HD
ENDBRANCH   1  16
TORSDOF 10
ENDMDL
MODEL 9
REMARK VINA RESULT:      -3.8      6.945      9.798
REMARK  10 active torsions:
REMARK  status: ('A' for Active; 'I' for Inactive)
REMARK    1  A    between atoms: C_4  and  C_2 
REMARK    2  A    between atoms: O_8  and  C_2 
REMARK    3  A    between atoms: C_5  and  C_3 
REMARK    4  A    between atoms: O_9  and  C_3 
REMARK    5  A    between atoms: C_6  and  C_4 
REMARK    6  A    between atoms: C_4  and  O_10 
REMARK    7  A    between atoms: C_7  and  C_5 
REMARK    8  A    between atoms: C_7  and  C_6 
REMARK    9  A    between atoms: C_6  and  O_12 
REMARK   10  A    between atoms: C_7  and  O_13 
ROOT
HETATM    1  C   UNK N   1      22.574  13.404  10.217  0.00  0.00     0.185 C 
ENDROOT
BRANCH   1   2
HETATM    2  C   UNK N   1      22.345  12.057  10.940  0.00  0.00     0.173 C 
BRANCH   2   3
HETATM    3  C   UNK N   1      23.119  11.969  12.255  0.00  0.00     0.198 C 
BRANCH   3   4
HETATM    4  O   UNK N   1      24.493  12.084  12.041  0.00  0.00    -0.398 OA
HETATM    5  H   UNK N   1      25.239  12.076  11.420  0.00  0.00     0.209 HD
ENDBRANCH   3   4
ENDBRANCH   2   3
BRANCH   2   6
HETATM    6  O   UNK N   1      20.988  11.862  11.205  0.00  0.00    -0.391 OA
HETATM    7  H   UNK N   1      20.194  11.425  10.857  0.00  0.00     0.210 HD
ENDBRANCH   2   6
ENDBRANCH   1   2
BRANCH   1   8
HETATM    8  C   UNK N   1      21.657  13.576   8.973  0.00  0.00     0.223 C 
BRANCH   8   9
HETATM    9  C   UNK N   1      20.454  14.468   9.250  0.00  0.00     0.181 C 
HETATM   10  O   UNK N   1      19.494  14.035   9.868  0.00  0.00    -0.293 OA
BRANCH   9  11
HETATM   11  C   UNK N   1      20.407  15.898   8.782  0.00  0.00     0.245 C 
BRANCH  11  12
HETATM   12  O   UNK N   1      21.304  16.144   7.741  0.00  0.00    -0.393 OA
HETATM   13  H   UNK N   1      21.323  17.003   7.291  0.00  0.00     0.209 HD
ENDBRANCH  11  12
ENDBRANCH   9  11
ENDBRANCH   8   9
BRANCH   8  14
HETATM   14  O   UNK N   1      21.177  12.314   8.547  0.00  0.00    -0.380 OA
HETATM   15  C   UNK N   1      21.431  12.154   7.173  0.00  0.00     0.202 C 
ENDBRANCH   8  14
ENDBRANCH   1   8
BRANCH   1  16
HETATM   16  O   UNK N   1      23.910  13.471   9.803  0.00  0.00    -0.390 OA
HETATM   17  H   UNK N   1      24.795  13.310  10.167  0.00  0.00     0.210 HD
ENDBRANCH   1  16
TORSDOF 10
ENDMDL
