REMARK  21 active torsions:
REMARK  status: ('A' for Active; 'I' for Inactive)
REMARK    1  A    between atoms: C_23  and  C_19 
REMARK    2  A    between atoms: C_28  and  C_19 
REMARK    3  A    between atoms: C_26  and  C_20 
REMARK    4  A    between atoms: C_30  and  C_20 
REMARK    5  A    between atoms: C_27  and  C_22 
REMARK    6  A    between atoms: N_41  and  C_22 
REMARK    7  A    between atoms: C_32  and  C_24 
REMARK    8  A    between atoms: C_33  and  C_25 
REMARK    9  A    between atoms: C_34  and  C_26 
REMARK   10  A    between atoms: C_30  and  C_28 
REMARK   11  A    between atoms: C_28  and  N_43 
REMARK   12  A    between atoms: C_29  and  C_35 
REMARK   13  A    between atoms: C_30  and  O_51 
REMARK   14  A    between atoms: O_52  and  C_31 
REMARK   15  A    between atoms: C_36  and  C_32 
REMARK   16  A    between atoms: C_32  and  N_47 
REMARK   17  A    between atoms: C_34  and  O_53 
REMARK   18  A    between atoms: C_35  and  O_54 
REMARK   19  A    between atoms: O_55  and  C_36 
REMARK   20  A    between atoms: C_37  and  O_56 
REMARK   21  A    between atoms: C_38  and  O_57 
ROOT
HETATM    1  C   UNK N   1       6.107   5.435  -1.071  0.00  0.00     0.135 C 
HETATM    2  N   UNK N   1       5.509   4.883  -0.075  0.00  0.00    -0.366 N 
ATOM      3  HN  UNK N   1       5.159   5.510   0.649  1.00  0.00     0.161 HD
ENDROOT
BRANCH   2   4
HETATM    4  C   UNK N   1       5.280   3.477   0.128  0.00  0.00     0.112 C 
BRANCH   4   5
HETATM    5  C   UNK N   1       3.750   3.290   0.188  0.00  0.00     0.031 C 
BRANCH   5   6
HETATM    6  C   UNK N   1       3.276   1.837   0.159  0.00  0.00    -0.021 C 
HETATM    7  C   UNK N   1       2.839   1.395   1.542  0.00  0.00     0.009 C 
HETATM    8  C   UNK N   1       2.079   1.724  -0.762  0.00  0.00     0.009 C 
ENDBRANCH   5   6
ENDBRANCH   4   5
BRANCH   4   9
HETATM    9  C   UNK N   1       5.978   3.134   1.474  0.00  0.00     0.141 C 
BRANCH   9  10
HETATM   10  C   UNK N   1       7.539   3.131   1.519  0.00  0.00     0.046 C 
BRANCH  10  11
HETATM   11  C   UNK N   1       8.516   3.538   0.387  0.00  0.00     0.058 C 
HETATM   12  C   UNK N   1       9.844   3.771   1.080  0.00  0.00     0.018 C 
BRANCH  11  13
HETATM   13  C   UNK N   1       8.832   2.681  -0.860  0.00  0.00     0.115 C 
HETATM   14  N   UNK N   1       8.431   1.465  -1.085  0.00  0.00    -0.362 N 
ATOM     15  HN  UNK N   1       8.692   1.056  -1.982  1.00  0.00     0.162 HD
BRANCH  14  16
HETATM   16  C   UNK N   1       7.655   0.634  -0.196  0.00  0.00     0.161 C 
BRANCH  16  17
HETATM   17  C   UNK N   1       6.891  -0.452  -0.963  0.00  0.00     0.008 C 
HETATM   18  C   UNK N   1       5.908  -1.150  -0.031  0.00  0.00     0.012 C 
HETATM   19  C   UNK N   1       6.086   0.151  -2.105  0.00  0.00     0.012 C 
ENDBRANCH  16  17
BRANCH  16  20
HETATM   20  C   UNK N   1       8.538   0.104   0.929  0.00  0.00     0.135 C 
HETATM   21  N   UNK N   1       9.481  -0.755   0.740  0.00  0.00    -0.368 N 
ATOM     22  HN  UNK N   1      10.060  -1.005   1.542  1.00  0.00     0.161 HD
BRANCH  21  23
HETATM   23  C   UNK N   1       9.778  -1.389  -0.520  0.00  0.00     0.160 C 
BRANCH  23  24
HETATM   24  C   UNK N   1       9.445  -2.835  -0.367  0.00  0.00    -0.041 A 
HETATM   25  C   UNK N   1      10.460  -3.776  -0.172  0.00  0.00     0.009 A 
HETATM   26  C   UNK N   1      10.132  -5.116   0.067  0.00  0.00     0.001 A 
HETATM   27  C   UNK N   1       8.791  -5.514   0.115  0.00  0.00     0.000 A 
HETATM   28  C   UNK N   1       7.777  -4.575  -0.081  0.00  0.00     0.001 A 
HETATM   29  C   UNK N   1       8.107  -3.240  -0.314  0.00  0.00     0.009 A 
ENDBRANCH  23  24
ENDBRANCH  21  23
BRANCH  20  30
HETATM   30  O   UNK N   1       8.325   0.543   2.183  0.00  0.00    -0.348 OA
HETATM   31  H   UNK N   1       8.515   0.824   3.056  0.00  0.00     0.219 HD
ENDBRANCH  20  30
ENDBRANCH  16  20
ENDBRANCH  14  16
BRANCH  13  32
HETATM   32  O   UNK N   1       9.617   3.254  -1.796  0.00  0.00    -0.349 OA
HETATM   33  H   UNK N   1      10.234   2.981  -2.445  0.00  0.00     0.219 HD
ENDBRANCH  13  32
ENDBRANCH  11  13
ENDBRANCH  10  11
ENDBRANCH   9  10
BRANCH   9  34
HETATM   34  O   UNK N   1       5.556   1.902   1.971  0.00  0.00    -0.393 OA
HETATM   35  H   UNK N   1       4.666   1.727   2.316  0.00  0.00     0.210 HD
ENDBRANCH   9  34
ENDBRANCH   4   9
ENDBRANCH   2   4
BRANCH   1  36
HETATM   36  C   UNK N   1       6.402   6.897  -0.960  0.00  0.00     0.165 C 
HETATM   37  C   UNK N   1       7.763   7.303  -1.538  0.00  0.00     0.117 C 
HETATM   38  C   UNK N   1       8.905   7.037  -0.589  0.00  0.00     0.113 C 
HETATM   39  N   UNK N   1      10.030   6.615  -1.044  0.00  0.00    -0.374 N 
HETATM   40  C   UNK N   1      11.158   6.405  -0.168  0.00  0.00     0.121 C 
ATOM     41  HN  UNK N   1      10.128   6.426  -2.041  1.00  0.00     0.161 HD
HETATM   42  C   UNK N   1      12.242   7.420  -0.486  0.00  0.00     0.020 C 
HETATM   43  C   UNK N   1      12.488   8.375   0.681  0.00  0.00     0.002 C 
HETATM   44  C   UNK N   1      11.307   9.303   0.953  0.00  0.00     0.002 C 
HETATM   45  C   UNK N   1      11.062  10.273  -0.202  0.00  0.00     0.027 C 
HETATM   46  C   UNK N   1       9.740  11.023  -0.028  0.00  0.00     0.179 C 
HETATM   47  O   UNK N   1       8.754  10.124   0.290  0.00  0.00    -0.317 OA
HETATM   48  C   UNK N   1       7.424  10.341   0.191  0.00  0.00     0.258 C 
HETATM   49  N   UNK N   1       6.637   9.385   0.532  0.00  0.00    -0.338 N 
HETATM   50  C   UNK N   1       5.190   9.216   0.439  0.00  0.00     0.163 C 
ATOM     51  HN  UNK N   1       7.116   8.588   0.950  1.00  0.00     0.164 HD
HETATM   52  C   UNK N   1       4.773   8.723  -0.958  0.00  0.00     0.135 C 
HETATM   53  N   UNK N   1       5.341   7.705  -1.541  0.00  0.00    -0.360 N 
ATOM     54  HN  UNK N   1       5.017   7.456  -2.475  1.00  0.00     0.162 HD
BRANCH  38  55
HETATM   55  O   UNK N   1       8.762   7.301   0.730  0.00  0.00    -0.349 OA
HETATM   56  H   UNK N   1       8.871   7.479   1.643  0.00  0.00     0.219 HD
ENDBRANCH  38  55
BRANCH  48  57
HETATM   57  O   UNK N   1       6.957  11.522  -0.269  0.00  0.00    -0.327 OA
HETATM   58  H   UNK N   1       7.505  12.212  -0.588  0.00  0.00     0.221 HD
ENDBRANCH  48  57
BRANCH  50  59
HETATM   59  C   UNK N   1       4.378  10.392   1.034  0.00  0.00     0.008 C 
HETATM   60  C   UNK N   1       4.277  11.609   0.130  0.00  0.00     0.012 C 
HETATM   61  C   UNK N   1       2.969   9.955   1.399  0.00  0.00     0.012 C 
ENDBRANCH  50  59
BRANCH  52  62
HETATM   62  O   UNK N   1       3.779   9.357  -1.611  0.00  0.00    -0.348 OA
HETATM   63  H   UNK N   1       3.816  10.176  -2.064  0.00  0.00     0.219 HD
ENDBRANCH  52  62
ENDBRANCH   1  36
BRANCH   1  64
HETATM   64  O   UNK N   1       6.596   4.699  -2.093  0.00  0.00    -0.348 OA
HETATM   65  H   UNK N   1       6.324   4.150  -2.802  0.00  0.00     0.219 HD
ENDBRANCH   1  64
TORSDOF 21
