MODEL 1
REMARK VINA RESULT:      -3.8      0.000      0.000
REMARK  3 active torsions:
REMARK  status: ('A' for Active; 'I' for Inactive)
REMARK    1  A    between atoms: C_5  and  C_4 
REMARK    2  A    between atoms: N_6  and  C_4 
REMARK    3  A    between atoms: O_8  and  C_5 
ROOT
HETATM    1  C   UNK N   1      33.715  16.175   9.001  0.00  0.00     0.055 C 
HETATM    2  C   UNK N   1      33.248  17.597   8.676  0.00  0.00     0.314 C 
ENDROOT
BRANCH   2   3
HETATM    3  C   UNK N   1      34.349  18.290   7.883  0.00  0.00     0.174 C 
HETATM    4  O   UNK N   1      34.556  17.973   6.723  0.00  0.00    -0.648 OA
BRANCH   3   5
HETATM    5  O   UNK N   1      35.220  19.119   8.492  0.00  0.00    -0.775 OA
HETATM    6  H   UNK N   1      35.734  18.822   9.218  0.00  0.00     0.167 HD
ENDBRANCH   3   5
ENDBRANCH   2   3
BRANCH   2   7
HETATM    7  N   UNK N   1      31.955  17.536   7.958  0.00  0.00     0.094 N 
HETATM    8  C   UNK N   1      31.596  16.142   7.714  0.00  0.00     0.310 C 
HETATM    9  C   UNK N   1      30.863  18.069   8.762  0.00  0.00     0.310 C 
ENDBRANCH   2   7
TORSDOF 3
ENDMDL
MODEL 2
REMARK VINA RESULT:      -3.8     13.633     14.276
REMARK  3 active torsions:
REMARK  status: ('A' for Active; 'I' for Inactive)
REMARK    1  A    between atoms: C_5  and  C_4 
REMARK    2  A    between atoms: N_6  and  C_4 
REMARK    3  A    between atoms: O_8  and  C_5 
ROOT
HETATM    1  C   UNK N   1      20.535  19.859   3.582  0.00  0.00     0.055 C 
HETATM    2  C   UNK N   1      20.283  19.367   2.154  0.00  0.00     0.314 C 
ENDROOT
BRANCH   2   3
HETATM    3  C   UNK N   1      21.075  20.252   1.199  0.00  0.00     0.174 C 
HETATM    4  O   UNK N   1      22.089  20.810   1.585  0.00  0.00    -0.648 OA
BRANCH   3   5
HETATM    5  O   UNK N   1      20.579  20.577  -0.012  0.00  0.00    -0.775 OA
HETATM    6  H   UNK N   1      20.660  21.451  -0.342  0.00  0.00     0.167 HD
ENDBRANCH   3   5
ENDBRANCH   2   3
BRANCH   2   7
HETATM    7  N   UNK N   1      20.640  17.934   2.060  0.00  0.00     0.094 N 
HETATM    8  C   UNK N   1      20.087  17.215   3.203  0.00  0.00     0.310 C 
HETATM    9  C   UNK N   1      20.037  17.302   0.893  0.00  0.00     0.310 C 
ENDBRANCH   2   7
TORSDOF 3
ENDMDL
MODEL 3
REMARK VINA RESULT:      -3.7     11.297     11.972
REMARK  3 active torsions:
REMARK  status: ('A' for Active; 'I' for Inactive)
REMARK    1  A    between atoms: C_5  and  C_4 
REMARK    2  A    between atoms: N_6  and  C_4 
REMARK    3  A    between atoms: O_8  and  C_5 
ROOT
HETATM    1  C   UNK N   1      23.333  11.225   9.675  0.00  0.00     0.055 C 
HETATM    2  C   UNK N   1      22.740  11.882  10.925  0.00  0.00     0.314 C 
ENDROOT
BRANCH   2   3
HETATM    3  C   UNK N   1      23.853  12.036  11.954  0.00  0.00     0.174 C 
HETATM    4  O   UNK N   1      23.585  12.042  13.145  0.00  0.00    -0.648 OA
BRANCH   3   5
HETATM    5  O   UNK N   1      25.107  12.348  11.572  0.00  0.00    -0.775 OA
HETATM    6  H   UNK N   1      25.302  13.193  11.214  0.00  0.00     0.167 HD
ENDBRANCH   3   5
ENDBRANCH   2   3
BRANCH   2   7
HETATM    7  N   UNK N   1      22.107  13.166  10.548  0.00  0.00     0.094 N 
HETATM    8  C   UNK N   1      22.559  13.564   9.218  0.00  0.00     0.310 C 
HETATM    9  C   UNK N   1      20.660  13.042  10.430  0.00  0.00     0.310 C 
ENDBRANCH   2   7
TORSDOF 3
ENDMDL
MODEL 4
REMARK VINA RESULT:      -3.5      1.274      2.014
REMARK  3 active torsions:
REMARK  status: ('A' for Active; 'I' for Inactive)
REMARK    1  A    between atoms: C_5  and  C_4 
REMARK    2  A    between atoms: N_6  and  C_4 
REMARK    3  A    between atoms: O_8  and  C_5 
ROOT
HETATM    1  C   UNK N   1      33.759  17.569   6.511  0.00  0.00     0.055 C 
HETATM    2  C   UNK N   1      33.987  16.963   7.899  0.00  0.00     0.314 C 
ENDROOT
BRANCH   2   3
HETATM    3  C   UNK N   1      34.757  17.974   8.739  0.00  0.00     0.174 C 
HETATM    4  O   UNK N   1      35.005  19.080   8.286  0.00  0.00    -0.648 OA
BRANCH   3   5
HETATM    5  O   UNK N   1      35.330  17.608   9.903  0.00  0.00    -0.775 OA
HETATM    6  H   UNK N   1      34.856  17.095  10.529  0.00  0.00     0.167 HD
ENDBRANCH   3   5
ENDBRANCH   2   3
BRANCH   2   7
HETATM    7  N   UNK N   1      32.682  16.584   8.486  0.00  0.00     0.094 N 
HETATM    8  C   UNK N   1      31.772  17.724   8.437  0.00  0.00     0.310 C 
HETATM    9  C   UNK N   1      32.021  15.543   7.709  0.00  0.00     0.310 C 
ENDBRANCH   2   7
TORSDOF 3
ENDMDL
MODEL 5
REMARK VINA RESULT:      -3.5      1.969      2.489
REMARK  3 active torsions:
REMARK  status: ('A' for Active; 'I' for Inactive)
REMARK    1  A    between atoms: C_5  and  C_4 
REMARK    2  A    between atoms: N_6  and  C_4 
REMARK    3  A    between atoms: O_8  and  C_5 
ROOT
HETATM    1  C   UNK N   1      32.537  16.915   8.111  0.00  0.00     0.055 C 
HETATM    2  C   UNK N   1      33.530  17.904   7.492  0.00  0.00     0.314 C 
ENDROOT
BRANCH   2   3
HETATM    3  C   UNK N   1      34.566  18.264   8.550  0.00  0.00     0.174 C 
HETATM    4  O   UNK N   1      35.313  19.212   8.374  0.00  0.00    -0.648 OA
BRANCH   3   5
HETATM    5  O   UNK N   1      34.797  17.443   9.595  0.00  0.00    -0.775 OA
HETATM    6  H   UNK N   1      35.656  17.368   9.962  0.00  0.00     0.167 HD
ENDBRANCH   3   5
ENDBRANCH   2   3
BRANCH   2   7
HETATM    7  N   UNK N   1      34.118  17.307   6.272  0.00  0.00     0.094 N 
HETATM    8  C   UNK N   1      34.313  15.875   6.473  0.00  0.00     0.310 C 
HETATM    9  C   UNK N   1      33.216  17.407   5.132  0.00  0.00     0.310 C 
ENDBRANCH   2   7
TORSDOF 3
ENDMDL
MODEL 6
REMARK VINA RESULT:      -3.4     10.829     11.789
REMARK  3 active torsions:
REMARK  status: ('A' for Active; 'I' for Inactive)
REMARK    1  A    between atoms: C_5  and  C_4 
REMARK    2  A    between atoms: N_6  and  C_4 
REMARK    3  A    between atoms: O_8  and  C_5 
ROOT
HETATM    1  C   UNK N   1      21.470  12.661  10.563  0.00  0.00     0.055 C 
HETATM    2  C   UNK N   1      22.991  12.751  10.407  0.00  0.00     0.314 C 
ENDROOT
BRANCH   2   3
HETATM    3  C   UNK N   1      23.633  12.140  11.646  0.00  0.00     0.174 C 
HETATM    4  O   UNK N   1      22.932  11.725  12.554  0.00  0.00    -0.648 OA
BRANCH   3   5
HETATM    5  O   UNK N   1      24.966  12.216  11.840  0.00  0.00    -0.775 OA
HETATM    6  H   UNK N   1      25.533  11.537  11.531  0.00  0.00     0.167 HD
ENDBRANCH   3   5
ENDBRANCH   2   3
BRANCH   2   7
HETATM    7  N   UNK N   1      23.394  12.086   9.148  0.00  0.00     0.094 N 
HETATM    8  C   UNK N   1      22.280  12.106   8.205  0.00  0.00     0.310 C 
HETATM    9  C   UNK N   1      24.467  12.807   8.475  0.00  0.00     0.310 C 
ENDBRANCH   2   7
TORSDOF 3
ENDMDL
MODEL 7
REMARK VINA RESULT:      -3.3     11.380     12.315
REMARK  3 active torsions:
REMARK  status: ('A' for Active; 'I' for Inactive)
REMARK    1  A    between atoms: C_5  and  C_4 
REMARK    2  A    between atoms: N_6  and  C_4 
REMARK    3  A    between atoms: O_8  and  C_5 
ROOT
HETATM    1  C   UNK N   1      44.065  20.207   2.987  0.00  0.00     0.055 C 
HETATM    2  C   UNK N   1      43.307  21.339   3.686  0.00  0.00     0.314 C 
ENDROOT
BRANCH   2   3
HETATM    3  C   UNK N   1      44.296  22.112   4.549  0.00  0.00     0.174 C 
HETATM    4  O   UNK N   1      43.890  22.824   5.453  0.00  0.00    -0.648 OA
BRANCH   3   5
HETATM    5  O   UNK N   1      45.602  22.168   4.219  0.00  0.00    -0.775 OA
HETATM    6  H   UNK N   1      46.236  22.491   4.829  0.00  0.00     0.167 HD
ENDBRANCH   3   5
ENDBRANCH   2   3
BRANCH   2   7
HETATM    7  N   UNK N   1      42.634  22.178   2.669  0.00  0.00     0.094 N 
HETATM    8  C   UNK N   1      43.385  22.129   1.419  0.00  0.00     0.310 C 
HETATM    9  C   UNK N   1      41.312  21.664   2.332  0.00  0.00     0.310 C 
ENDBRANCH   2   7
TORSDOF 3
ENDMDL
MODEL 8
REMARK VINA RESULT:      -3.3     12.815     13.381
REMARK  3 active torsions:
REMARK  status: ('A' for Active; 'I' for Inactive)
REMARK    1  A    between atoms: C_5  and  C_4 
REMARK    2  A    between atoms: N_6  and  C_4 
REMARK    3  A    between atoms: O_8  and  C_5 
ROOT
HETATM    1  C   UNK N   1      31.590  23.956  -4.355  0.00  0.00     0.055 C 
HETATM    2  C   UNK N   1      31.270  22.483  -4.089  0.00  0.00     0.314 C 
ENDROOT
BRANCH   2   3
HETATM    3  C   UNK N   1      31.429  22.223  -2.596  0.00  0.00     0.174 C 
HETATM    4  O   UNK N   1      30.822  22.910  -1.790  0.00  0.00    -0.648 OA
BRANCH   3   5
HETATM    5  O   UNK N   1      32.367  21.369  -2.141  0.00  0.00    -0.775 OA
HETATM    6  H   UNK N   1      33.044  21.665  -1.563  0.00  0.00     0.167 HD
ENDBRANCH   3   5
ENDBRANCH   2   3
BRANCH   2   7
HETATM    7  N   UNK N   1      29.914  22.177  -4.598  0.00  0.00     0.094 N 
HETATM    8  C   UNK N   1      29.254  23.414  -5.006  0.00  0.00     0.310 C 
HETATM    9  C   UNK N   1      29.959  21.362  -5.805  0.00  0.00     0.310 C 
ENDBRANCH   2   7
TORSDOF 3
ENDMDL
MODEL 9
REMARK VINA RESULT:      -3.2     12.768     13.418
REMARK  3 active torsions:
REMARK  status: ('A' for Active; 'I' for Inactive)
REMARK    1  A    between atoms: C_5  and  C_4 
REMARK    2  A    between atoms: N_6  and  C_4 
REMARK    3  A    between atoms: O_8  and  C_5 
ROOT
HETATM    1  C   UNK N   1      30.305  21.636  -4.723  0.00  0.00     0.055 C 
HETATM    2  C   UNK N   1      31.164  22.696  -4.028  0.00  0.00     0.314 C 
ENDROOT
BRANCH   2   3
HETATM    3  C   UNK N   1      31.297  22.314  -2.560  0.00  0.00     0.174 C 
HETATM    4  O   UNK N   1      30.664  22.922  -1.712  0.00  0.00    -0.648 OA
BRANCH   3   5
HETATM    5  O   UNK N   1      32.240  21.438  -2.158  0.00  0.00    -0.775 OA
HETATM    6  H   UNK N   1      32.707  20.918  -2.784  0.00  0.00     0.167 HD
ENDBRANCH   3   5
ENDBRANCH   2   3
BRANCH   2   7
HETATM    7  N   UNK N   1      32.465  22.806  -4.727  0.00  0.00     0.094 N 
HETATM    8  C   UNK N   1      32.357  22.217  -6.058  0.00  0.00     0.310 C 
HETATM    9  C   UNK N   1      32.838  24.195  -4.961  0.00  0.00     0.310 C 
ENDBRANCH   2   7
TORSDOF 3
ENDMDL
