MODEL 1
REMARK VINA RESULT:      -5.7      0.000      0.000
REMARK  14 active torsions:
REMARK  status: ('A' for Active; 'I' for Inactive)
REMARK    1  A    between atoms: C_1  and  C_5 
REMARK    2  A    between atoms: C_3  and  C_6 
REMARK    3  A    between atoms: C_5  and  C_19 
REMARK    4  A    between atoms: C_13  and  C_7 
REMARK    5  A    between atoms: C_8  and  C_13 
REMARK    6  A    between atoms: C_9  and  C_8 
REMARK    7  A    between atoms: C_10  and  C_9 
REMARK    8  A    between atoms: C_11  and  C_10 
REMARK    9  A    between atoms: C_13  and  O_14 
REMARK   10  A    between atoms: C_22  and  C_17 
REMARK   11  A    between atoms: O_18  and  C_17 
REMARK   12  A    between atoms: C_23  and  C_20 
REMARK   13  A    between atoms: C_24  and  C_22 
REMARK   14  A    between atoms: C_24  and  C_23 
ROOT
HETATM    1  C   UNK N   1      27.846  19.023   6.640  0.00  0.00    -0.003 A 
HETATM    2  C   UNK N   1      27.174  20.908   5.273  0.00  0.00     0.088 A 
HETATM    3  C   UNK N   1      28.287  18.758   5.406  0.00  0.00    -0.048 A 
HETATM    4  C   UNK N   1      27.947  19.863   4.441  0.00  0.00     0.047 A 
HETATM    5  C   UNK N   1      27.171  20.297   6.626  0.00  0.00     0.156 A 
HETATM    6  O   UNK N   1      26.652  20.813   7.604  0.00  0.00    -0.293 OA
ENDROOT
BRANCH   1   7
HETATM    7  C   UNK N   1      28.035  18.204   7.889  0.00  0.00     0.070 C 
BRANCH   7   8
HETATM    8  C   UNK N   1      29.081  18.766   8.802  0.00  0.00    -0.026 C 
HETATM    9  C   UNK N   1      30.286  18.199   8.944  0.00  0.00    -0.030 C 
BRANCH   9  10
HETATM   10  C   UNK N   1      30.712  16.989   8.171  0.00  0.00     0.027 C 
BRANCH  10  11
HETATM   11  C   UNK N   1      32.047  17.269   7.508  0.00  0.00     0.014 C 
BRANCH  11  12
HETATM   12  C   UNK N   1      32.882  18.210   8.362  0.00  0.00     0.110 C 
BRANCH  12  13
HETATM   13  C   UNK N   1      34.277  18.362   7.824  0.00  0.00     0.139 C 
HETATM   14  O   UNK N   1      35.068  19.086   8.404  0.00  0.00    -0.650 OA
BRANCH  13  15
HETATM   15  O   UNK N   1      34.664  17.710   6.708  0.00  0.00    -0.776 OA
HETATM   16  H   UNK N   1      34.705  16.775   6.700  0.00  0.00     0.167 HD
ENDBRANCH  13  15
ENDBRANCH  12  13
ENDBRANCH  11  12
ENDBRANCH  10  11
ENDBRANCH   9  10
ENDBRANCH   7   8
ENDBRANCH   1   7
BRANCH   3  17
HETATM   17  C   UNK N   1      29.036  17.568   4.936  0.00  0.00     0.006 C 
HETATM   18  C   UNK N   1      28.464  16.420   4.570  0.00  0.00     0.005 C 
BRANCH  18  19
HETATM   19  C   UNK N   1      29.286  15.262   4.092  0.00  0.00     0.141 C 
BRANCH  19  20
HETATM   20  C   UNK N   1      29.952  14.572   5.272  0.00  0.00     0.036 C 
BRANCH  20  21
HETATM   21  C   UNK N   1      31.467  14.567   5.147  0.00  0.00     0.003 C 
BRANCH  21  22
HETATM   22  C   UNK N   1      31.887  15.152   3.809  0.00  0.00    -0.000 C 
BRANCH  22  23
HETATM   23  C   UNK N   1      33.046  16.115   3.988  0.00  0.00    -0.005 C 
HETATM   24  C   UNK N   1      32.550  17.539   3.849  0.00  0.00     0.005 C 
ENDBRANCH  22  23
ENDBRANCH  21  22
ENDBRANCH  20  21
ENDBRANCH  19  20
BRANCH  19  25
HETATM   25  O   UNK N   1      28.465  14.334   3.449  0.00  0.00    -0.392 OA
HETATM   26  H   UNK N   1      28.707  13.541   2.944  0.00  0.00     0.210 HD
ENDBRANCH  19  25
ENDBRANCH  18  19
ENDBRANCH   3  17
TORSDOF 14
ENDMDL
MODEL 2
REMARK VINA RESULT:      -5.5      9.747     12.428
REMARK  14 active torsions:
REMARK  status: ('A' for Active; 'I' for Inactive)
REMARK    1  A    between atoms: C_1  and  C_5 
REMARK    2  A    between atoms: C_3  and  C_6 
REMARK    3  A    between atoms: C_5  and  C_19 
REMARK    4  A    between atoms: C_13  and  C_7 
REMARK    5  A    between atoms: C_8  and  C_13 
REMARK    6  A    between atoms: C_9  and  C_8 
REMARK    7  A    between atoms: C_10  and  C_9 
REMARK    8  A    between atoms: C_11  and  C_10 
REMARK    9  A    between atoms: C_13  and  O_14 
REMARK   10  A    between atoms: C_22  and  C_17 
REMARK   11  A    between atoms: O_18  and  C_17 
REMARK   12  A    between atoms: C_23  and  C_20 
REMARK   13  A    between atoms: C_24  and  C_22 
REMARK   14  A    between atoms: C_24  and  C_23 
ROOT
HETATM    1  C   UNK N   1      35.359  12.451  17.507  0.00  0.00    -0.003 A 
HETATM    2  C   UNK N   1      35.455  11.677  19.801  0.00  0.00     0.088 A 
HETATM    3  C   UNK N   1      35.645  11.148  17.443  0.00  0.00    -0.048 A 
HETATM    4  C   UNK N   1      35.725  10.524  18.811  0.00  0.00     0.047 A 
HETATM    5  C   UNK N   1      35.232  12.830  18.892  0.00  0.00     0.156 A 
HETATM    6  O   UNK N   1      34.980  13.961  19.278  0.00  0.00    -0.293 OA
ENDROOT
BRANCH   1   7
HETATM    7  C   UNK N   1      35.136  13.410  16.367  0.00  0.00     0.070 C 
BRANCH   7   8
HETATM    8  C   UNK N   1      36.410  13.831  15.702  0.00  0.00    -0.026 C 
HETATM    9  C   UNK N   1      36.570  13.792  14.373  0.00  0.00    -0.030 C 
BRANCH   9  10
HETATM   10  C   UNK N   1      35.480  13.373  13.435  0.00  0.00     0.027 C 
BRANCH  10  11
HETATM   11  C   UNK N   1      35.852  13.792  12.026  0.00  0.00     0.014 C 
BRANCH  11  12
HETATM   12  C   UNK N   1      34.967  14.936  11.555  0.00  0.00     0.110 C 
BRANCH  12  13
HETATM   13  C   UNK N   1      35.777  16.100  11.060  0.00  0.00     0.139 C 
HETATM   14  O   UNK N   1      35.219  17.154  10.804  0.00  0.00    -0.650 OA
BRANCH  13  15
HETATM   15  O   UNK N   1      37.111  15.995  10.891  0.00  0.00    -0.776 OA
HETATM   16  H   UNK N   1      37.473  15.249  10.454  0.00  0.00     0.167 HD
ENDBRANCH  13  15
ENDBRANCH  12  13
ENDBRANCH  11  12
ENDBRANCH  10  11
ENDBRANCH   9  10
ENDBRANCH   7   8
ENDBRANCH   1   7
BRANCH   3  17
HETATM   17  C   UNK N   1      35.864  10.315  16.236  0.00  0.00     0.006 C 
HETATM   18  C   UNK N   1      37.058  10.095  15.685  0.00  0.00     0.005 C 
BRANCH  18  19
HETATM   19  C   UNK N   1      37.205   9.230  14.470  0.00  0.00     0.141 C 
BRANCH  19  20
HETATM   20  C   UNK N   1      36.481   9.860  13.290  0.00  0.00     0.036 C 
BRANCH  20  21
HETATM   21  C   UNK N   1      35.202   9.115  12.944  0.00  0.00     0.003 C 
BRANCH  21  22
HETATM   22  C   UNK N   1      34.059  10.096  12.742  0.00  0.00    -0.000 C 
BRANCH  22  23
HETATM   23  C   UNK N   1      33.476   9.954  11.347  0.00  0.00    -0.005 C 
HETATM   24  C   UNK N   1      34.220  10.862  10.391  0.00  0.00     0.005 C 
ENDBRANCH  22  23
ENDBRANCH  21  22
ENDBRANCH  20  21
ENDBRANCH  19  20
BRANCH  19  25
HETATM   25  O   UNK N   1      38.556   9.106  14.139  0.00  0.00    -0.392 OA
HETATM   26  H   UNK N   1      39.006   9.299  13.302  0.00  0.00     0.210 HD
ENDBRANCH  19  25
ENDBRANCH  18  19
ENDBRANCH   3  17
TORSDOF 14
ENDMDL
MODEL 3
REMARK VINA RESULT:      -5.4     11.678     14.585
REMARK  14 active torsions:
REMARK  status: ('A' for Active; 'I' for Inactive)
REMARK    1  A    between atoms: C_1  and  C_5 
REMARK    2  A    between atoms: C_3  and  C_6 
REMARK    3  A    between atoms: C_5  and  C_19 
REMARK    4  A    between atoms: C_13  and  C_7 
REMARK    5  A    between atoms: C_8  and  C_13 
REMARK    6  A    between atoms: C_9  and  C_8 
REMARK    7  A    between atoms: C_10  and  C_9 
REMARK    8  A    between atoms: C_11  and  C_10 
REMARK    9  A    between atoms: C_13  and  O_14 
REMARK   10  A    between atoms: C_22  and  C_17 
REMARK   11  A    between atoms: O_18  and  C_17 
REMARK   12  A    between atoms: C_23  and  C_20 
REMARK   13  A    between atoms: C_24  and  C_22 
REMARK   14  A    between atoms: C_24  and  C_23 
ROOT
HETATM    1  C   UNK N   1      29.747  23.045  -3.801  0.00  0.00    -0.003 A 
HETATM    2  C   UNK N   1      31.287  21.235  -3.327  0.00  0.00     0.088 A 
HETATM    3  C   UNK N   1      29.745  22.267  -4.888  0.00  0.00    -0.048 A 
HETATM    4  C   UNK N   1      30.659  21.081  -4.729  0.00  0.00     0.047 A 
HETATM    5  C   UNK N   1      30.650  22.481  -2.829  0.00  0.00     0.156 A 
HETATM    6  O   UNK N   1      30.875  22.967  -1.732  0.00  0.00    -0.293 OA
ENDROOT
BRANCH   1   7
HETATM    7  C   UNK N   1      28.928  24.283  -3.544  0.00  0.00     0.070 C 
BRANCH   7   8
HETATM    8  C   UNK N   1      27.518  23.976  -3.143  0.00  0.00    -0.026 C 
HETATM    9  C   UNK N   1      26.465  24.558  -3.730  0.00  0.00    -0.030 C 
BRANCH   9  10
HETATM   10  C   UNK N   1      26.599  25.525  -4.867  0.00  0.00     0.027 C 
BRANCH  10  11
HETATM   11  C   UNK N   1      25.216  25.913  -5.352  0.00  0.00     0.014 C 
BRANCH  11  12
HETATM   12  C   UNK N   1      25.129  27.414  -5.582  0.00  0.00     0.110 C 
BRANCH  12  13
HETATM   13  C   UNK N   1      25.759  28.188  -4.460  0.00  0.00     0.139 C 
HETATM   14  O   UNK N   1      26.702  28.925  -4.696  0.00  0.00    -0.650 OA
BRANCH  13  15
HETATM   15  O   UNK N   1      25.299  28.078  -3.198  0.00  0.00    -0.776 OA
HETATM   16  H   UNK N   1      24.445  27.730  -3.037  0.00  0.00     0.167 HD
ENDBRANCH  13  15
ENDBRANCH  12  13
ENDBRANCH  11  12
ENDBRANCH  10  11
ENDBRANCH   9  10
ENDBRANCH   7   8
ENDBRANCH   1   7
BRANCH   3  17
HETATM   17  C   UNK N   1      28.973  22.444  -6.141  0.00  0.00     0.006 C 
HETATM   18  C   UNK N   1      29.328  23.265  -7.129  0.00  0.00     0.005 C 
BRANCH  18  19
HETATM   19  C   UNK N   1      28.503  23.383  -8.375  0.00  0.00     0.141 C 
BRANCH  19  20
HETATM   20  C   UNK N   1      27.431  24.448  -8.193  0.00  0.00     0.036 C 
BRANCH  20  21
HETATM   21  C   UNK N   1      26.037  23.901  -8.452  0.00  0.00     0.003 C 
BRANCH  21  22
HETATM   22  C   UNK N   1      25.661  22.890  -7.382  0.00  0.00    -0.000 C 
BRANCH  22  23
HETATM   23  C   UNK N   1      24.800  21.787  -7.972  0.00  0.00    -0.005 C 
HETATM   24  C   UNK N   1      25.622  20.522  -8.112  0.00  0.00     0.005 C 
ENDBRANCH  22  23
ENDBRANCH  21  22
ENDBRANCH  20  21
ENDBRANCH  19  20
BRANCH  19  25
HETATM   25  O   UNK N   1      29.315  23.758  -9.446  0.00  0.00    -0.392 OA
HETATM   26  H   UNK N   1      30.014  24.430  -9.485  0.00  0.00     0.210 HD
ENDBRANCH  19  25
ENDBRANCH  18  19
ENDBRANCH   3  17
TORSDOF 14
ENDMDL
MODEL 4
REMARK VINA RESULT:      -5.3      2.071      4.355
REMARK  14 active torsions:
REMARK  status: ('A' for Active; 'I' for Inactive)
REMARK    1  A    between atoms: C_1  and  C_5 
REMARK    2  A    between atoms: C_3  and  C_6 
REMARK    3  A    between atoms: C_5  and  C_19 
REMARK    4  A    between atoms: C_13  and  C_7 
REMARK    5  A    between atoms: C_8  and  C_13 
REMARK    6  A    between atoms: C_9  and  C_8 
REMARK    7  A    between atoms: C_10  and  C_9 
REMARK    8  A    between atoms: C_11  and  C_10 
REMARK    9  A    between atoms: C_13  and  O_14 
REMARK   10  A    between atoms: C_22  and  C_17 
REMARK   11  A    between atoms: O_18  and  C_17 
REMARK   12  A    between atoms: C_23  and  C_20 
REMARK   13  A    between atoms: C_24  and  C_22 
REMARK   14  A    between atoms: C_24  and  C_23 
ROOT
HETATM    1  C   UNK N   1      26.760  18.868   5.384  0.00  0.00    -0.003 A 
HETATM    2  C   UNK N   1      26.377  21.258   5.487  0.00  0.00     0.088 A 
HETATM    3  C   UNK N   1      27.560  19.327   6.352  0.00  0.00    -0.048 A 
HETATM    4  C   UNK N   1      27.417  20.814   6.538  0.00  0.00     0.047 A 
HETATM    5  C   UNK N   1      26.025  19.976   4.827  0.00  0.00     0.156 A 
HETATM    6  O   UNK N   1      25.216  19.879   3.918  0.00  0.00    -0.293 OA
ENDROOT
BRANCH   1   7
HETATM    7  C   UNK N   1      26.567  17.443   4.937  0.00  0.00     0.070 C 
BRANCH   7   8
HETATM    8  C   UNK N   1      27.381  17.096   3.728  0.00  0.00    -0.026 C 
HETATM    9  C   UNK N   1      28.505  16.373   3.807  0.00  0.00    -0.030 C 
BRANCH   9  10
HETATM   10  C   UNK N   1      29.022  15.809   5.096  0.00  0.00     0.027 C 
BRANCH  10  11
HETATM   11  C   UNK N   1      30.525  16.000   5.152  0.00  0.00     0.014 C 
BRANCH  11  12
HETATM   12  C   UNK N   1      30.917  17.351   4.575  0.00  0.00     0.110 C 
BRANCH  12  13
HETATM   13  C   UNK N   1      32.077  17.239   3.628  0.00  0.00     0.139 C 
HETATM   14  O   UNK N   1      33.206  17.115   4.073  0.00  0.00    -0.650 OA
BRANCH  13  15
HETATM   15  O   UNK N   1      31.888  17.276   2.294  0.00  0.00    -0.776 OA
HETATM   16  H   UNK N   1      32.132  18.037   1.805  0.00  0.00     0.167 HD
ENDBRANCH  13  15
ENDBRANCH  12  13
ENDBRANCH  11  12
ENDBRANCH  10  11
ENDBRANCH   9  10
ENDBRANCH   7   8
ENDBRANCH   1   7
BRANCH   3  17
HETATM   17  C   UNK N   1      28.498  18.560   7.206  0.00  0.00     0.006 C 
HETATM   18  C   UNK N   1      28.529  18.634   8.537  0.00  0.00     0.005 C 
BRANCH  18  19
HETATM   19  C   UNK N   1      29.498  17.819   9.338  0.00  0.00     0.141 C 
BRANCH  19  20
HETATM   20  C   UNK N   1      30.861  17.814   8.661  0.00  0.00     0.036 C 
BRANCH  20  21
HETATM   21  C   UNK N   1      31.461  16.419   8.600  0.00  0.00     0.003 C 
BRANCH  21  22
HETATM   22  C   UNK N   1      32.883  16.480   8.069  0.00  0.00    -0.000 C 
BRANCH  22  23
HETATM   23  C   UNK N   1      33.196  17.870   7.544  0.00  0.00    -0.005 C 
HETATM   24  C   UNK N   1      34.493  18.363   8.152  0.00  0.00     0.005 C 
ENDBRANCH  22  23
ENDBRANCH  21  22
ENDBRANCH  20  21
ENDBRANCH  19  20
BRANCH  19  25
HETATM   25  O   UNK N   1      29.644  18.373  10.611  0.00  0.00    -0.392 OA
HETATM   26  H   UNK N   1      29.243  18.102  11.452  0.00  0.00     0.210 HD
ENDBRANCH  19  25
ENDBRANCH  18  19
ENDBRANCH   3  17
TORSDOF 14
ENDMDL
MODEL 5
REMARK VINA RESULT:      -5.3     11.989     14.668
REMARK  14 active torsions:
REMARK  status: ('A' for Active; 'I' for Inactive)
REMARK    1  A    between atoms: C_1  and  C_5 
REMARK    2  A    between atoms: C_3  and  C_6 
REMARK    3  A    between atoms: C_5  and  C_19 
REMARK    4  A    between atoms: C_13  and  C_7 
REMARK    5  A    between atoms: C_8  and  C_13 
REMARK    6  A    between atoms: C_9  and  C_8 
REMARK    7  A    between atoms: C_10  and  C_9 
REMARK    8  A    between atoms: C_11  and  C_10 
REMARK    9  A    between atoms: C_13  and  O_14 
REMARK   10  A    between atoms: C_22  and  C_17 
REMARK   11  A    between atoms: O_18  and  C_17 
REMARK   12  A    between atoms: C_23  and  C_20 
REMARK   13  A    between atoms: C_24  and  C_22 
REMARK   14  A    between atoms: C_24  and  C_23 
ROOT
HETATM    1  C   UNK N   1      35.307  11.714  17.017  0.00  0.00    -0.003 A 
HETATM    2  C   UNK N   1      35.315  13.779  18.284  0.00  0.00     0.088 A 
HETATM    3  C   UNK N   1      35.193  11.358  18.300  0.00  0.00    -0.048 A 
HETATM    4  C   UNK N   1      35.172  12.555  19.214  0.00  0.00     0.047 A 
HETATM    5  C   UNK N   1      35.385  13.152  16.941  0.00  0.00     0.156 A 
HETATM    6  O   UNK N   1      35.500  13.782  15.901  0.00  0.00    -0.293 OA
ENDROOT
BRANCH   1   7
HETATM    7  C   UNK N   1      35.305  10.823  15.803  0.00  0.00     0.070 C 
BRANCH   7   8
HETATM    8  C   UNK N   1      33.967  10.750  15.135  0.00  0.00    -0.026 C 
HETATM    9  C   UNK N   1      33.832  10.465  13.834  0.00  0.00    -0.030 C 
BRANCH   9  10
HETATM   10  C   UNK N   1      34.995  10.148  12.945  0.00  0.00     0.027 C 
BRANCH  10  11
HETATM   11  C   UNK N   1      35.057  11.170  11.827  0.00  0.00     0.014 C 
BRANCH  11  12
HETATM   12  C   UNK N   1      36.268  12.075  11.993  0.00  0.00     0.110 C 
BRANCH  12  13
HETATM   13  C   UNK N   1      35.903  13.383  12.636  0.00  0.00     0.139 C 
HETATM   14  O   UNK N   1      34.742  13.757  12.618  0.00  0.00    -0.650 OA
BRANCH  13  15
HETATM   15  O   UNK N   1      36.840  14.149  13.229  0.00  0.00    -0.776 OA
HETATM   16  H   UNK N   1      37.185  13.908  14.066  0.00  0.00     0.167 HD
ENDBRANCH  13  15
ENDBRANCH  12  13
ENDBRANCH  11  12
ENDBRANCH  10  11
ENDBRANCH   9  10
ENDBRANCH   7   8
ENDBRANCH   1   7
BRANCH   3  17
HETATM   17  C   UNK N   1      35.082   9.993  18.866  0.00  0.00     0.006 C 
HETATM   18  C   UNK N   1      33.987   9.236  18.784  0.00  0.00     0.005 C 
BRANCH  18  19
HETATM   19  C   UNK N   1      33.950   7.857  19.371  0.00  0.00     0.141 C 
BRANCH  19  20
HETATM   20  C   UNK N   1      32.512   7.444  19.645  0.00  0.00     0.036 C 
BRANCH  20  21
HETATM   21  C   UNK N   1      31.691   8.587  20.218  0.00  0.00     0.003 C 
BRANCH  21  22
HETATM   22  C   UNK N   1      31.991   8.761  21.698  0.00  0.00    -0.000 C 
BRANCH  22  23
HETATM   23  C   UNK N   1      32.435  10.184  21.987  0.00  0.00    -0.005 C 
HETATM   24  C   UNK N   1      33.108  10.240  23.343  0.00  0.00     0.005 C 
ENDBRANCH  22  23
ENDBRANCH  21  22
ENDBRANCH  20  21
ENDBRANCH  19  20
BRANCH  19  25
HETATM   25  O   UNK N   1      34.504   6.945  18.470  0.00  0.00    -0.392 OA
HETATM   26  H   UNK N   1      34.900   6.076  18.637  0.00  0.00     0.210 HD
ENDBRANCH  19  25
ENDBRANCH  18  19
ENDBRANCH   3  17
TORSDOF 14
ENDMDL
MODEL 6
REMARK VINA RESULT:      -5.2     11.641     14.512
REMARK  14 active torsions:
REMARK  status: ('A' for Active; 'I' for Inactive)
REMARK    1  A    between atoms: C_1  and  C_5 
REMARK    2  A    between atoms: C_3  and  C_6 
REMARK    3  A    between atoms: C_5  and  C_19 
REMARK    4  A    between atoms: C_13  and  C_7 
REMARK    5  A    between atoms: C_8  and  C_13 
REMARK    6  A    between atoms: C_9  and  C_8 
REMARK    7  A    between atoms: C_10  and  C_9 
REMARK    8  A    between atoms: C_11  and  C_10 
REMARK    9  A    between atoms: C_13  and  O_14 
REMARK   10  A    between atoms: C_22  and  C_17 
REMARK   11  A    between atoms: O_18  and  C_17 
REMARK   12  A    between atoms: C_23  and  C_20 
REMARK   13  A    between atoms: C_24  and  C_22 
REMARK   14  A    between atoms: C_24  and  C_23 
ROOT
HETATM    1  C   UNK N   1      27.325  22.203  -7.587  0.00  0.00    -0.003 A 
HETATM    2  C   UNK N   1      25.285  21.296  -8.529  0.00  0.00     0.088 A 
HETATM    3  C   UNK N   1      26.329  22.686  -6.838  0.00  0.00    -0.048 A 
HETATM    4  C   UNK N   1      24.986  22.189  -7.306  0.00  0.00     0.047 A 
HETATM    5  C   UNK N   1      26.766  21.364  -8.616  0.00  0.00     0.156 A 
HETATM    6  O   UNK N   1      27.424  20.781  -9.465  0.00  0.00    -0.293 OA
ENDROOT
BRANCH   1   7
HETATM    7  C   UNK N   1      28.806  22.414  -7.408  0.00  0.00     0.070 C 
BRANCH   7   8
HETATM    8  C   UNK N   1      29.461  21.314  -6.631  0.00  0.00    -0.026 C 
HETATM    9  C   UNK N   1      30.468  21.544  -5.778  0.00  0.00    -0.030 C 
BRANCH   9  10
HETATM   10  C   UNK N   1      30.994  22.917  -5.490  0.00  0.00     0.027 C 
BRANCH  10  11
HETATM   11  C   UNK N   1      30.882  23.188  -4.003  0.00  0.00     0.014 C 
BRANCH  11  12
HETATM   12  C   UNK N   1      29.424  23.268  -3.580  0.00  0.00     0.110 C 
BRANCH  12  13
HETATM   13  C   UNK N   1      29.264  23.105  -2.095  0.00  0.00     0.139 C 
HETATM   14  O   UNK N   1      30.255  23.003  -1.392  0.00  0.00    -0.650 OA
BRANCH  13  15
HETATM   15  O   UNK N   1      28.040  23.066  -1.530  0.00  0.00    -0.776 OA
HETATM   16  H   UNK N   1      27.946  23.167  -0.604  0.00  0.00     0.167 HD
ENDBRANCH  13  15
ENDBRANCH  12  13
ENDBRANCH  11  12
ENDBRANCH  10  11
ENDBRANCH   9  10
ENDBRANCH   7   8
ENDBRANCH   1   7
BRANCH   3  17
HETATM   17  C   UNK N   1      26.416  23.590  -5.667  0.00  0.00     0.006 C 
HETATM   18  C   UNK N   1      26.437  24.921  -5.748  0.00  0.00     0.005 C 
BRANCH  18  19
HETATM   19  C   UNK N   1      26.515  25.773  -4.518  0.00  0.00     0.141 C 
BRANCH  19  20
HETATM   20  C   UNK N   1      25.417  26.826  -4.542  0.00  0.00     0.036 C 
BRANCH  20  21
HETATM   21  C   UNK N   1      25.957  28.217  -4.252  0.00  0.00     0.003 C 
BRANCH  21  22
HETATM   22  C   UNK N   1      27.435  28.290  -4.596  0.00  0.00    -0.000 C 
BRANCH  22  23
HETATM   23  C   UNK N   1      27.659  29.201  -5.790  0.00  0.00    -0.005 C 
HETATM   24  C   UNK N   1      27.877  28.364  -7.033  0.00  0.00     0.005 C 
ENDBRANCH  22  23
ENDBRANCH  21  22
ENDBRANCH  20  21
ENDBRANCH  19  20
BRANCH  19  25
HETATM   25  O   UNK N   1      26.337  24.981  -3.382  0.00  0.00    -0.392 OA
HETATM   26  H   UNK N   1      26.866  24.233  -3.062  0.00  0.00     0.210 HD
ENDBRANCH  19  25
ENDBRANCH  18  19
ENDBRANCH   3  17
TORSDOF 14
ENDMDL
MODEL 7
REMARK VINA RESULT:      -5.2      1.446      2.461
REMARK  14 active torsions:
REMARK  status: ('A' for Active; 'I' for Inactive)
REMARK    1  A    between atoms: C_1  and  C_5 
REMARK    2  A    between atoms: C_3  and  C_6 
REMARK    3  A    between atoms: C_5  and  C_19 
REMARK    4  A    between atoms: C_13  and  C_7 
REMARK    5  A    between atoms: C_8  and  C_13 
REMARK    6  A    between atoms: C_9  and  C_8 
REMARK    7  A    between atoms: C_10  and  C_9 
REMARK    8  A    between atoms: C_11  and  C_10 
REMARK    9  A    between atoms: C_13  and  O_14 
REMARK   10  A    between atoms: C_22  and  C_17 
REMARK   11  A    between atoms: O_18  and  C_17 
REMARK   12  A    between atoms: C_23  and  C_20 
REMARK   13  A    between atoms: C_24  and  C_22 
REMARK   14  A    between atoms: C_24  and  C_23 
ROOT
HETATM    1  C   UNK N   1      28.016  18.962   6.867  0.00  0.00    -0.003 A 
HETATM    2  C   UNK N   1      27.213  20.558   5.231  0.00  0.00     0.088 A 
HETATM    3  C   UNK N   1      28.461  18.530   5.683  0.00  0.00    -0.048 A 
HETATM    4  C   UNK N   1      28.044  19.443   4.561  0.00  0.00     0.047 A 
HETATM    5  C   UNK N   1      27.261  20.173   6.664  0.00  0.00     0.156 A 
HETATM    6  O   UNK N   1      26.718  20.806   7.556  0.00  0.00    -0.293 OA
ENDROOT
BRANCH   1   7
HETATM    7  C   UNK N   1      28.267  18.366   8.227  0.00  0.00     0.070 C 
BRANCH   7   8
HETATM    8  C   UNK N   1      29.497  18.913   8.885  0.00  0.00    -0.026 C 
HETATM    9  C   UNK N   1      30.637  18.215   8.961  0.00  0.00    -0.030 C 
BRANCH   9  10
HETATM   10  C   UNK N   1      30.800  16.854   8.357  0.00  0.00     0.027 C 
BRANCH  10  11
HETATM   11  C   UNK N   1      32.268  16.619   8.056  0.00  0.00     0.014 C 
BRANCH  11  12
HETATM   12  C   UNK N   1      32.965  17.929   7.725  0.00  0.00     0.110 C 
BRANCH  12  13
HETATM   13  C   UNK N   1      34.188  18.139   8.571  0.00  0.00     0.139 C 
HETATM   14  O   UNK N   1      34.995  18.998   8.256  0.00  0.00    -0.650 OA
BRANCH  13  15
HETATM   15  O   UNK N   1      34.408  17.391   9.670  0.00  0.00    -0.776 OA
HETATM   16  H   UNK N   1      35.191  16.881   9.744  0.00  0.00     0.167 HD
ENDBRANCH  13  15
ENDBRANCH  12  13
ENDBRANCH  11  12
ENDBRANCH  10  11
ENDBRANCH   9  10
ENDBRANCH   7   8
ENDBRANCH   1   7
BRANCH   3  17
HETATM   17  C   UNK N   1      29.281  17.329   5.394  0.00  0.00     0.006 C 
HETATM   18  C   UNK N   1      30.333  17.320   4.575  0.00  0.00     0.005 C 
BRANCH  18  19
HETATM   19  C   UNK N   1      31.123  16.069   4.340  0.00  0.00     0.141 C 
BRANCH  19  20
HETATM   20  C   UNK N   1      30.273  15.045   3.604  0.00  0.00     0.036 C 
BRANCH  20  21
HETATM   21  C   UNK N   1      29.516  15.664   2.440  0.00  0.00     0.003 C 
BRANCH  21  22
HETATM   22  C   UNK N   1      28.254  14.869   2.150  0.00  0.00    -0.000 C 
BRANCH  22  23
HETATM   23  C   UNK N   1      27.234  15.067   3.258  0.00  0.00    -0.005 C 
HETATM   24  C   UNK N   1      26.452  16.339   3.006  0.00  0.00     0.005 C 
ENDBRANCH  22  23
ENDBRANCH  21  22
ENDBRANCH  20  21
ENDBRANCH  19  20
BRANCH  19  25
HETATM   25  O   UNK N   1      32.241  16.356   3.554  0.00  0.00    -0.392 OA
HETATM   26  H   UNK N   1      33.125  15.958   3.570  0.00  0.00     0.210 HD
ENDBRANCH  19  25
ENDBRANCH  18  19
ENDBRANCH   3  17
TORSDOF 14
ENDMDL
MODEL 8
REMARK VINA RESULT:      -5.2      2.695      5.746
REMARK  14 active torsions:
REMARK  status: ('A' for Active; 'I' for Inactive)
REMARK    1  A    between atoms: C_1  and  C_5 
REMARK    2  A    between atoms: C_3  and  C_6 
REMARK    3  A    between atoms: C_5  and  C_19 
REMARK    4  A    between atoms: C_13  and  C_7 
REMARK    5  A    between atoms: C_8  and  C_13 
REMARK    6  A    between atoms: C_9  and  C_8 
REMARK    7  A    between atoms: C_10  and  C_9 
REMARK    8  A    between atoms: C_11  and  C_10 
REMARK    9  A    between atoms: C_13  and  O_14 
REMARK   10  A    between atoms: C_22  and  C_17 
REMARK   11  A    between atoms: O_18  and  C_17 
REMARK   12  A    between atoms: C_23  and  C_20 
REMARK   13  A    between atoms: C_24  and  C_22 
REMARK   14  A    between atoms: C_24  and  C_23 
ROOT
HETATM    1  C   UNK N   1      33.374  16.637   5.319  0.00  0.00    -0.003 A 
HETATM    2  C   UNK N   1      33.991  14.631   4.108  0.00  0.00     0.088 A 
HETATM    3  C   UNK N   1      32.351  16.373   4.500  0.00  0.00    -0.048 A 
HETATM    4  C   UNK N   1      32.594  15.130   3.684  0.00  0.00     0.047 A 
HETATM    5  C   UNK N   1      34.388  15.630   5.132  0.00  0.00     0.156 A 
HETATM    6  O   UNK N   1      35.450  15.600   5.735  0.00  0.00    -0.293 OA
ENDROOT
BRANCH   1   7
HETATM    7  C   UNK N   1      33.490  17.746   6.331  0.00  0.00     0.070 C 
BRANCH   7   8
HETATM    8  C   UNK N   1      32.656  17.511   7.553  0.00  0.00    -0.026 C 
HETATM    9  C   UNK N   1      33.200  17.271   8.753  0.00  0.00    -0.030 C 
BRANCH   9  10
HETATM   10  C   UNK N   1      34.679  17.265   8.990  0.00  0.00     0.027 C 
BRANCH  10  11
HETATM   11  C   UNK N   1      35.127  15.846   9.280  0.00  0.00     0.014 C 
BRANCH  11  12
HETATM   12  C   UNK N   1      35.465  15.680  10.753  0.00  0.00     0.110 C 
BRANCH  12  13
HETATM   13  C   UNK N   1      34.454  14.828  11.465  0.00  0.00     0.139 C 
HETATM   14  O   UNK N   1      34.817  14.098  12.373  0.00  0.00    -0.650 OA
BRANCH  13  15
HETATM   15  O   UNK N   1      33.153  14.857  11.114  0.00  0.00    -0.776 OA
HETATM   16  H   UNK N   1      32.508  15.163  11.720  0.00  0.00     0.167 HD
ENDBRANCH  13  15
ENDBRANCH  12  13
ENDBRANCH  11  12
ENDBRANCH  10  11
ENDBRANCH   9  10
ENDBRANCH   7   8
ENDBRANCH   1   7
BRANCH   3  17
HETATM   17  C   UNK N   1      31.086  17.128   4.340  0.00  0.00     0.006 C 
HETATM   18  C   UNK N   1      29.998  16.932   5.086  0.00  0.00     0.005 C 
BRANCH  18  19
HETATM   19  C   UNK N   1      28.756  17.743   4.875  0.00  0.00     0.141 C 
BRANCH  19  20
HETATM   20  C   UNK N   1      28.011  17.909   6.191  0.00  0.00     0.036 C 
BRANCH  20  21
HETATM   21  C   UNK N   1      28.696  17.172   7.330  0.00  0.00     0.003 C 
BRANCH  21  22
HETATM   22  C   UNK N   1      27.996  17.468   8.645  0.00  0.00    -0.000 C 
BRANCH  22  23
HETATM   23  C   UNK N   1      29.003  17.545   9.779  0.00  0.00    -0.005 C 
HETATM   24  C   UNK N   1      29.818  18.815   9.649  0.00  0.00     0.005 C 
ENDBRANCH  22  23
ENDBRANCH  21  22
ENDBRANCH  20  21
ENDBRANCH  19  20
BRANCH  19  25
HETATM   25  O   UNK N   1      29.094  19.012   4.400  0.00  0.00    -0.392 OA
HETATM   26  H   UNK N   1      29.930  19.498   4.480  0.00  0.00     0.210 HD
ENDBRANCH  19  25
ENDBRANCH  18  19
ENDBRANCH   3  17
TORSDOF 14
ENDMDL
MODEL 9
REMARK VINA RESULT:      -5.2      2.904      3.911
REMARK  14 active torsions:
REMARK  status: ('A' for Active; 'I' for Inactive)
REMARK    1  A    between atoms: C_1  and  C_5 
REMARK    2  A    between atoms: C_3  and  C_6 
REMARK    3  A    between atoms: C_5  and  C_19 
REMARK    4  A    between atoms: C_13  and  C_7 
REMARK    5  A    between atoms: C_8  and  C_13 
REMARK    6  A    between atoms: C_9  and  C_8 
REMARK    7  A    between atoms: C_10  and  C_9 
REMARK    8  A    between atoms: C_11  and  C_10 
REMARK    9  A    between atoms: C_13  and  O_14 
REMARK   10  A    between atoms: C_22  and  C_17 
REMARK   11  A    between atoms: O_18  and  C_17 
REMARK   12  A    between atoms: C_23  and  C_20 
REMARK   13  A    between atoms: C_24  and  C_22 
REMARK   14  A    between atoms: C_24  and  C_23 
ROOT
HETATM    1  C   UNK N   1      30.290  17.764   8.193  0.00  0.00    -0.003 A 
HETATM    2  C   UNK N   1      28.074  18.680   8.542  0.00  0.00     0.088 A 
HETATM    3  C   UNK N   1      29.605  17.503   7.076  0.00  0.00    -0.048 A 
HETATM    4  C   UNK N   1      28.196  18.033   7.146  0.00  0.00     0.047 A 
HETATM    5  C   UNK N   1      29.429  18.467   9.111  0.00  0.00     0.156 A 
HETATM    6  O   UNK N   1      29.765  18.838  10.225  0.00  0.00    -0.293 OA
ENDROOT
BRANCH   1   7
HETATM    7  C   UNK N   1      31.734  17.454   8.489  0.00  0.00     0.070 C 
BRANCH   7   8
HETATM    8  C   UNK N   1      31.954  16.029   8.892  0.00  0.00    -0.026 C 
HETATM    9  C   UNK N   1      33.178  15.520   9.080  0.00  0.00    -0.030 C 
BRANCH   9  10
HETATM   10  C   UNK N   1      34.427  16.338   8.954  0.00  0.00     0.027 C 
BRANCH  10  11
HETATM   11  C   UNK N   1      34.925  16.698  10.340  0.00  0.00     0.014 C 
BRANCH  11  12
HETATM   12  C   UNK N   1      36.048  15.766  10.766  0.00  0.00     0.110 C 
BRANCH  12  13
HETATM   13  C   UNK N   1      35.695  14.999  12.009  0.00  0.00     0.139 C 
HETATM   14  O   UNK N   1      34.651  14.369  12.050  0.00  0.00    -0.650 OA
BRANCH  13  15
HETATM   15  O   UNK N   1      36.515  14.999  13.079  0.00  0.00    -0.776 OA
HETATM   16  H   UNK N   1      36.354  15.581  13.796  0.00  0.00     0.167 HD
ENDBRANCH  13  15
ENDBRANCH  12  13
ENDBRANCH  11  12
ENDBRANCH  10  11
ENDBRANCH   9  10
ENDBRANCH   7   8
ENDBRANCH   1   7
BRANCH   3  17
HETATM   17  C   UNK N   1      30.072  16.803   5.855  0.00  0.00     0.006 C 
HETATM   18  C   UNK N   1      30.436  17.421   4.731  0.00  0.00     0.005 C 
BRANCH  18  19
HETATM   19  C   UNK N   1      30.910  16.647   3.539  0.00  0.00     0.141 C 
BRANCH  19  20
HETATM   20  C   UNK N   1      32.404  16.854   3.342  0.00  0.00     0.036 C 
BRANCH  20  21
HETATM   21  C   UNK N   1      33.016  17.681   4.461  0.00  0.00     0.003 C 
BRANCH  21  22
HETATM   22  C   UNK N   1      33.774  16.783   5.425  0.00  0.00    -0.000 C 
BRANCH  22  23
HETATM   23  C   UNK N   1      34.091  15.450   4.773  0.00  0.00    -0.005 C 
HETATM   24  C   UNK N   1      33.645  14.322   5.681  0.00  0.00     0.005 C 
ENDBRANCH  22  23
ENDBRANCH  21  22
ENDBRANCH  20  21
ENDBRANCH  19  20
BRANCH  19  25
HETATM   25  O   UNK N   1      30.680  15.284   3.737  0.00  0.00    -0.392 OA
HETATM   26  H   UNK N   1      31.303  14.583   3.987  0.00  0.00     0.210 HD
ENDBRANCH  19  25
ENDBRANCH  18  19
ENDBRANCH   3  17
TORSDOF 14
ENDMDL
