MODEL 1
REMARK VINA RESULT:      -6.3      0.000      0.000
REMARK  15 active torsions:
REMARK  status: ('A' for Active; 'I' for Inactive)
REMARK    1  A    between atoms: C_1  and  O_2 
REMARK    2  A    between atoms: C_5  and  O_2 
REMARK    3  A    between atoms: C_4  and  O_8 
REMARK    4  A    between atoms: C_6  and  C_12 
REMARK    5  A    between atoms: C_7  and  O_13 
REMARK    6  A    between atoms: C_10  and  O_16 
REMARK    7  A    between atoms: C_11  and  O_17 
REMARK    8  A    between atoms: C_12  and  O_18 
REMARK    9  A    between atoms: C_14  and  C_20 
REMARK   10  A    between atoms: C_15  and  O_21 
REMARK   11  A    between atoms: O_18  and  P_22 
REMARK   12  A    between atoms: C_19  and  O_23 
REMARK   13  A    between atoms: C_20  and  O_24 
REMARK   14  A    between atoms: P_22  and  O_25 
REMARK   15  A    between atoms: P_22  and  O_26 
ROOT
HETATM    1  C   UNK N   1      32.754  15.921   7.999  0.00  0.00     0.294 C 
HETATM    2  O   UNK N   1      32.926  15.608   9.369  0.00  0.00    -0.348 OA
HETATM    3  C   UNK N   1      33.065  17.427   7.779  0.00  0.00     0.204 C 
HETATM    4  C   UNK N   1      34.275  15.775   9.745  0.00  0.00     0.180 C 
HETATM    5  C   UNK N   1      34.435  17.784   8.334  0.00  0.00     0.183 C 
HETATM    6  C   UNK N   1      34.594  17.277   9.755  0.00  0.00     0.180 C 
ENDROOT
BRANCH   1   7
HETATM    7  O   UNK N   1      31.406  15.619   7.694  0.00  0.00    -0.326 OA
BRANCH   7   8
HETATM    8  C   UNK N   1      30.657  16.799   7.535  0.00  0.00     0.294 C 
HETATM    9  O   UNK N   1      30.000  16.783   6.288  0.00  0.00    -0.348 OA
HETATM   10  C   UNK N   1      29.417  18.057   6.082  0.00  0.00     0.179 C 
HETATM   11  C   UNK N   1      28.281  18.287   7.102  0.00  0.00     0.180 C 
HETATM   12  C   UNK N   1      28.849  18.172   8.511  0.00  0.00     0.183 C 
HETATM   13  C   UNK N   1      29.601  16.858   8.648  0.00  0.00     0.204 C 
BRANCH  10  14
HETATM   14  C   UNK N   1      28.882  18.106   4.654  0.00  0.00     0.198 C 
BRANCH  14  15
HETATM   15  O   UNK N   1      28.635  19.421   4.257  0.00  0.00    -0.398 OA
HETATM   16  H   UNK N   1      27.901  19.888   3.827  0.00  0.00     0.209 HD
ENDBRANCH  14  15
ENDBRANCH  10  14
BRANCH  11  17
HETATM   17  O   UNK N   1      27.717  19.556   6.943  0.00  0.00    -0.390 OA
HETATM   18  H   UNK N   1      27.062  19.886   6.309  0.00  0.00     0.210 HD
ENDBRANCH  11  17
BRANCH  12  19
HETATM   19  O   UNK N   1      27.822  18.240   9.454  0.00  0.00    -0.390 OA
HETATM   20  H   UNK N   1      27.403  19.012   9.864  0.00  0.00     0.210 HD
ENDBRANCH  12  19
BRANCH  13  21
HETATM   21  O   UNK N   1      30.187  16.777   9.911  0.00  0.00    -0.388 OA
HETATM   22  H   UNK N   1      30.663  17.538  10.278  0.00  0.00     0.210 HD
ENDBRANCH  13  21
ENDBRANCH   7   8
ENDBRANCH   1   7
BRANCH   3  23
HETATM   23  O   UNK N   1      33.069  17.736   6.416  0.00  0.00    -0.388 OA
HETATM   24  H   UNK N   1      33.162  17.172   5.632  0.00  0.00     0.210 HD
ENDBRANCH   3  23
BRANCH   4  25
HETATM   25  C   UNK N   1      34.447  15.153  11.130  0.00  0.00     0.215 C 
BRANCH  25  26
HETATM   26  O   UNK N   1      35.776  15.218  11.571  0.00  0.00    -0.294 OA
BRANCH  26  27
HETATM   27  P   UNK N   1      36.549  13.824  10.869  0.00  0.00     0.390 P 
HETATM   28  O   UNK N   1      36.630  13.479  12.379  0.00  0.00    -0.632 OA
BRANCH  27  29
HETATM   29  O   UNK N   1      38.243  13.514  11.089  0.00  0.00    -0.307 OA
HETATM   30  H   UNK N   1      38.896  13.688  10.393  0.00  0.00     0.222 HD
ENDBRANCH  27  29
BRANCH  27  31
HETATM   31  O   UNK N   1      37.507  15.242  10.567  0.00  0.00    -0.307 OA
HETATM   32  H   UNK N   1      37.462  15.747   9.740  0.00  0.00     0.222 HD
ENDBRANCH  27  31
ENDBRANCH  26  27
ENDBRANCH  25  26
ENDBRANCH   4  25
BRANCH   5  33
HETATM   33  O   UNK N   1      34.616  19.168   8.296  0.00  0.00    -0.390 OA
HETATM   34  H   UNK N   1      34.492  19.655   7.467  0.00  0.00     0.210 HD
ENDBRANCH   5  33
BRANCH   6  35
HETATM   35  O   UNK N   1      35.906  17.512  10.164  0.00  0.00    -0.390 OA
HETATM   36  H   UNK N   1      36.277  17.947  10.948  0.00  0.00     0.210 HD
ENDBRANCH   6  35
TORSDOF 15
ENDMDL
MODEL 2
REMARK VINA RESULT:      -6.3     10.757     12.448
REMARK  15 active torsions:
REMARK  status: ('A' for Active; 'I' for Inactive)
REMARK    1  A    between atoms: C_1  and  O_2 
REMARK    2  A    between atoms: C_5  and  O_2 
REMARK    3  A    between atoms: C_4  and  O_8 
REMARK    4  A    between atoms: C_6  and  C_12 
REMARK    5  A    between atoms: C_7  and  O_13 
REMARK    6  A    between atoms: C_10  and  O_16 
REMARK    7  A    between atoms: C_11  and  O_17 
REMARK    8  A    between atoms: C_12  and  O_18 
REMARK    9  A    between atoms: C_14  and  C_20 
REMARK   10  A    between atoms: C_15  and  O_21 
REMARK   11  A    between atoms: O_18  and  P_22 
REMARK   12  A    between atoms: C_19  and  O_23 
REMARK   13  A    between atoms: C_20  and  O_24 
REMARK   14  A    between atoms: P_22  and  O_25 
REMARK   15  A    between atoms: P_22  and  O_26 
ROOT
HETATM    1  C   UNK N   1      22.051  16.460   6.469  0.00  0.00     0.294 C 
HETATM    2  O   UNK N   1      21.710  15.090   6.354  0.00  0.00    -0.348 OA
HETATM    3  C   UNK N   1      20.789  17.264   6.888  0.00  0.00     0.204 C 
HETATM    4  C   UNK N   1      21.331  14.573   7.610  0.00  0.00     0.180 C 
HETATM    5  C   UNK N   1      20.159  16.671   8.139  0.00  0.00     0.183 C 
HETATM    6  C   UNK N   1      19.970  15.172   7.992  0.00  0.00     0.180 C 
ENDROOT
BRANCH   1   7
HETATM    7  O   UNK N   1      22.519  16.856   5.194  0.00  0.00    -0.326 OA
BRANCH   7   8
HETATM    8  C   UNK N   1      21.510  16.702   4.226  0.00  0.00     0.294 C 
HETATM    9  O   UNK N   1      21.050  17.967   3.809  0.00  0.00    -0.348 OA
HETATM   10  C   UNK N   1      19.915  17.773   2.985  0.00  0.00     0.179 C 
HETATM   11  C   UNK N   1      20.330  17.075   1.672  0.00  0.00     0.180 C 
HETATM   12  C   UNK N   1      20.991  15.743   2.008  0.00  0.00     0.183 C 
HETATM   13  C   UNK N   1      22.108  15.972   3.014  0.00  0.00     0.204 C 
BRANCH  10  14
HETATM   14  C   UNK N   1      19.299  19.140   2.701  0.00  0.00     0.198 C 
BRANCH  14  15
HETATM   15  O   UNK N   1      17.968  19.015   2.300  0.00  0.00    -0.398 OA
HETATM   16  H   UNK N   1      17.501  18.986   1.450  0.00  0.00     0.209 HD
ENDBRANCH  14  15
ENDBRANCH  10  14
BRANCH  11  17
HETATM   17  O   UNK N   1      19.218  16.837   0.860  0.00  0.00    -0.390 OA
HETATM   18  H   UNK N   1      18.954  16.051   0.358  0.00  0.00     0.210 HD
ENDBRANCH  11  17
BRANCH  12  19
HETATM   19  O   UNK N   1      21.500  15.151   0.850  0.00  0.00    -0.390 OA
HETATM   20  H   UNK N   1      21.233  14.336   0.398  0.00  0.00     0.210 HD
ENDBRANCH  12  19
BRANCH  13  21
HETATM   21  O   UNK N   1      22.670  14.749   3.382  0.00  0.00    -0.388 OA
HETATM   22  H   UNK N   1      22.917  14.101   2.704  0.00  0.00     0.210 HD
ENDBRANCH  13  21
ENDBRANCH   7   8
ENDBRANCH   1   7
BRANCH   3  23
HETATM   23  O   UNK N   1      21.122  18.591   7.173  0.00  0.00    -0.388 OA
HETATM   24  H   UNK N   1      20.772  19.428   6.830  0.00  0.00     0.210 HD
ENDBRANCH   3  23
BRANCH   4  25
HETATM   25  C   UNK N   1      21.260  13.051   7.479  0.00  0.00     0.215 C 
BRANCH  25  26
HETATM   26  O   UNK N   1      21.341  12.415   8.724  0.00  0.00    -0.294 OA
BRANCH  26  27
HETATM   27  P   UNK N   1      22.771  13.074   9.470  0.00  0.00     0.390 P 
HETATM   28  O   UNK N   1      23.210  11.605   9.235  0.00  0.00    -0.632 OA
BRANCH  27  29
HETATM   29  O   UNK N   1      23.282  12.580  11.054  0.00  0.00    -0.307 OA
HETATM   30  H   UNK N   1      24.215  12.424  11.271  0.00  0.00     0.222 HD
ENDBRANCH  27  29
BRANCH  27  31
HETATM   31  O   UNK N   1      21.455  13.090  10.605  0.00  0.00    -0.307 OA
HETATM   32  H   UNK N   1      21.485  13.572  11.446  0.00  0.00     0.222 HD
ENDBRANCH  27  31
ENDBRANCH  26  27
ENDBRANCH  25  26
ENDBRANCH   4  25
BRANCH   5  33
HETATM   33  O   UNK N   1      18.932  17.286   8.390  0.00  0.00    -0.390 OA
HETATM   34  H   UNK N   1      18.900  18.192   8.735  0.00  0.00     0.210 HD
ENDBRANCH   5  33
BRANCH   6  35
HETATM   35  O   UNK N   1      19.517  14.663   9.209  0.00  0.00    -0.390 OA
HETATM   36  H   UNK N   1      18.799  14.934   9.803  0.00  0.00     0.210 HD
ENDBRANCH   6  35
TORSDOF 15
ENDMDL
MODEL 3
REMARK VINA RESULT:      -6.2      2.836      7.279
REMARK  15 active torsions:
REMARK  status: ('A' for Active; 'I' for Inactive)
REMARK    1  A    between atoms: C_1  and  O_2 
REMARK    2  A    between atoms: C_5  and  O_2 
REMARK    3  A    between atoms: C_4  and  O_8 
REMARK    4  A    between atoms: C_6  and  C_12 
REMARK    5  A    between atoms: C_7  and  O_13 
REMARK    6  A    between atoms: C_10  and  O_16 
REMARK    7  A    between atoms: C_11  and  O_17 
REMARK    8  A    between atoms: C_12  and  O_18 
REMARK    9  A    between atoms: C_14  and  C_20 
REMARK   10  A    between atoms: C_15  and  O_21 
REMARK   11  A    between atoms: O_18  and  P_22 
REMARK   12  A    between atoms: C_19  and  O_23 
REMARK   13  A    between atoms: C_20  and  O_24 
REMARK   14  A    between atoms: P_22  and  O_25 
REMARK   15  A    between atoms: P_22  and  O_26 
ROOT
HETATM    1  C   UNK N   1      30.931  17.657   8.276  0.00  0.00     0.294 C 
HETATM    2  O   UNK N   1      30.587  17.458   6.916  0.00  0.00    -0.348 OA
HETATM    3  C   UNK N   1      29.764  18.390   8.993  0.00  0.00     0.204 C 
HETATM    4  C   UNK N   1      29.477  16.594   6.814  0.00  0.00     0.180 C 
HETATM    5  C   UNK N   1      28.451  17.652   8.783  0.00  0.00     0.183 C 
HETATM    6  C   UNK N   1      28.233  17.341   7.314  0.00  0.00     0.180 C 
ENDROOT
BRANCH   1   7
HETATM    7  O   UNK N   1      32.111  18.438   8.271  0.00  0.00    -0.326 OA
BRANCH   7   8
HETATM    8  C   UNK N   1      33.251  17.616   8.295  0.00  0.00     0.294 C 
HETATM    9  O   UNK N   1      33.077  16.585   9.241  0.00  0.00    -0.348 OA
HETATM   10  C   UNK N   1      34.307  15.898   9.374  0.00  0.00     0.179 C 
HETATM   11  C   UNK N   1      34.639  15.152   8.064  0.00  0.00     0.180 C 
HETATM   12  C   UNK N   1      34.701  16.159   6.923  0.00  0.00     0.183 C 
HETATM   13  C   UNK N   1      33.424  16.984   6.906  0.00  0.00     0.204 C 
BRANCH  10  14
HETATM   14  C   UNK N   1      34.178  14.920  10.539  0.00  0.00     0.198 C 
BRANCH  14  15
HETATM   15  O   UNK N   1      32.896  14.963  11.089  0.00  0.00    -0.398 OA
HETATM   16  H   UNK N   1      32.022  14.630  10.831  0.00  0.00     0.209 HD
ENDBRANCH  14  15
ENDBRANCH  10  14
BRANCH  11  17
HETATM   17  O   UNK N   1      35.870  14.498   8.159  0.00  0.00    -0.390 OA
HETATM   18  H   UNK N   1      36.090  13.555   8.171  0.00  0.00     0.210 HD
ENDBRANCH  11  17
BRANCH  12  19
HETATM   19  O   UNK N   1      34.862  15.499   5.704  0.00  0.00    -0.390 OA
HETATM   20  H   UNK N   1      34.261  15.433   4.946  0.00  0.00     0.210 HD
ENDBRANCH  12  19
BRANCH  13  21
HETATM   21  O   UNK N   1      33.503  17.959   5.911  0.00  0.00    -0.388 OA
HETATM   22  H   UNK N   1      33.228  18.870   6.096  0.00  0.00     0.210 HD
ENDBRANCH  13  21
ENDBRANCH   7   8
ENDBRANCH   1   7
BRANCH   3  23
HETATM   23  O   UNK N   1      29.995  18.455  10.370  0.00  0.00    -0.388 OA
HETATM   24  H   UNK N   1      30.543  19.055  10.900  0.00  0.00     0.210 HD
ENDBRANCH   3  23
BRANCH   4  25
HETATM   25  C   UNK N   1      29.341  16.194   5.344  0.00  0.00     0.215 C 
BRANCH  25  26
HETATM   26  O   UNK N   1      30.581  15.889   4.768  0.00  0.00    -0.294 OA
BRANCH  26  27
HETATM   27  P   UNK N   1      30.431  16.372   3.101  0.00  0.00     0.390 P 
HETATM   28  O   UNK N   1      31.480  15.235   2.987  0.00  0.00    -0.632 OA
BRANCH  27  29
HETATM   29  O   UNK N   1      31.733  17.151   2.257  0.00  0.00    -0.307 OA
HETATM   30  H   UNK N   1      32.567  17.382   2.693  0.00  0.00     0.222 HD
ENDBRANCH  27  29
BRANCH  27  31
HETATM   31  O   UNK N   1      31.113  17.672   4.031  0.00  0.00    -0.307 OA
HETATM   32  H   UNK N   1      30.575  18.336   4.490  0.00  0.00     0.222 HD
ENDBRANCH  27  31
ENDBRANCH  26  27
ENDBRANCH  25  26
ENDBRANCH   4  25
BRANCH   5  33
HETATM   33  O   UNK N   1      27.393  18.420   9.273  0.00  0.00    -0.390 OA
HETATM   34  H   UNK N   1      26.485  18.081   9.236  0.00  0.00     0.210 HD
ENDBRANCH   5  33
BRANCH   6  35
HETATM   35  O   UNK N   1      27.088  16.553   7.195  0.00  0.00    -0.390 OA
HETATM   36  H   UNK N   1      26.459  16.212   7.851  0.00  0.00     0.210 HD
ENDBRANCH   6  35
TORSDOF 15
ENDMDL
MODEL 4
REMARK VINA RESULT:      -6.2      3.109      5.867
REMARK  15 active torsions:
REMARK  status: ('A' for Active; 'I' for Inactive)
REMARK    1  A    between atoms: C_1  and  O_2 
REMARK    2  A    between atoms: C_5  and  O_2 
REMARK    3  A    between atoms: C_4  and  O_8 
REMARK    4  A    between atoms: C_6  and  C_12 
REMARK    5  A    between atoms: C_7  and  O_13 
REMARK    6  A    between atoms: C_10  and  O_16 
REMARK    7  A    between atoms: C_11  and  O_17 
REMARK    8  A    between atoms: C_12  and  O_18 
REMARK    9  A    between atoms: C_14  and  C_20 
REMARK   10  A    between atoms: C_15  and  O_21 
REMARK   11  A    between atoms: O_18  and  P_22 
REMARK   12  A    between atoms: C_19  and  O_23 
REMARK   13  A    between atoms: C_20  and  O_24 
REMARK   14  A    between atoms: P_22  and  O_25 
REMARK   15  A    between atoms: P_22  and  O_26 
ROOT
HETATM    1  C   UNK N   1      35.177  14.080  10.816  0.00  0.00     0.294 C 
HETATM    2  O   UNK N   1      34.583  12.797  10.728  0.00  0.00    -0.348 OA
HETATM    3  C   UNK N   1      35.766  14.271  12.241  0.00  0.00     0.204 C 
HETATM    4  C   UNK N   1      35.563  11.793  10.871  0.00  0.00     0.180 C 
HETATM    5  C   UNK N   1      36.700  13.125  12.599  0.00  0.00     0.183 C 
HETATM    6  C   UNK N   1      36.041  11.785  12.329  0.00  0.00     0.180 C 
ENDROOT
BRANCH   1   7
HETATM    7  O   UNK N   1      34.143  15.010  10.553  0.00  0.00    -0.326 OA
BRANCH   7   8
HETATM    8  C   UNK N   1      34.341  15.633   9.308  0.00  0.00     0.294 C 
HETATM    9  O   UNK N   1      33.209  15.440   8.491  0.00  0.00    -0.348 OA
HETATM   10  C   UNK N   1      33.517  15.910   7.192  0.00  0.00     0.179 C 
HETATM   11  C   UNK N   1      33.703  17.443   7.217  0.00  0.00     0.180 C 
HETATM   12  C   UNK N   1      34.816  17.790   8.200  0.00  0.00     0.183 C 
HETATM   13  C   UNK N   1      34.527  17.139   9.542  0.00  0.00     0.204 C 
BRANCH  10  14
HETATM   14  C   UNK N   1      32.372  15.518   6.263  0.00  0.00     0.198 C 
BRANCH  14  15
HETATM   15  O   UNK N   1      31.446  16.556   6.144  0.00  0.00    -0.398 OA
HETATM   16  H   UNK N   1      30.605  16.682   5.676  0.00  0.00     0.209 HD
ENDBRANCH  14  15
ENDBRANCH  10  14
BRANCH  11  17
HETATM   17  O   UNK N   1      34.049  17.924   5.952  0.00  0.00    -0.390 OA
HETATM   18  H   UNK N   1      33.526  18.398   5.288  0.00  0.00     0.210 HD
ENDBRANCH  11  17
BRANCH  12  19
HETATM   19  O   UNK N   1      34.916  19.174   8.347  0.00  0.00    -0.390 OA
HETATM   20  H   UNK N   1      35.076  19.862   7.683  0.00  0.00     0.210 HD
ENDBRANCH  12  19
BRANCH  13  21
HETATM   21  O   UNK N   1      35.577  17.390  10.426  0.00  0.00    -0.388 OA
HETATM   22  H   UNK N   1      36.093  18.208  10.351  0.00  0.00     0.210 HD
ENDBRANCH  13  21
ENDBRANCH   7   8
ENDBRANCH   1   7
BRANCH   3  23
HETATM   23  O   UNK N   1      36.505  15.455  12.314  0.00  0.00    -0.388 OA
HETATM   24  H   UNK N   1      36.454  16.275  11.798  0.00  0.00     0.210 HD
ENDBRANCH   3  23
BRANCH   4  25
HETATM   25  C   UNK N   1      34.918  10.463  10.481  0.00  0.00     0.215 C 
BRANCH  25  26
HETATM   26  O   UNK N   1      34.035  10.606   9.403  0.00  0.00    -0.294 OA
BRANCH  26  27
HETATM   27  P   UNK N   1      32.729   9.505   9.745  0.00  0.00     0.390 P 
HETATM   28  O   UNK N   1      33.143   9.041   8.324  0.00  0.00    -0.632 OA
BRANCH  27  29
HETATM   29  O   UNK N   1      31.227   9.576   8.879  0.00  0.00    -0.307 OA
HETATM   30  H   UNK N   1      31.153   9.985   8.002  0.00  0.00     0.222 HD
ENDBRANCH  27  29
BRANCH  27  31
HETATM   31  O   UNK N   1      32.119  11.129   9.649  0.00  0.00    -0.307 OA
HETATM   32  H   UNK N   1      32.303  11.806  10.319  0.00  0.00     0.222 HD
ENDBRANCH  27  31
ENDBRANCH  26  27
ENDBRANCH  25  26
ENDBRANCH   4  25
BRANCH   5  33
HETATM   33  O   UNK N   1      37.069  13.216  13.942  0.00  0.00    -0.390 OA
HETATM   34  H   UNK N   1      36.895  14.028  14.443  0.00  0.00     0.210 HD
ENDBRANCH   5  33
BRANCH   6  35
HETATM   35  O   UNK N   1      36.983  10.778  12.547  0.00  0.00    -0.390 OA
HETATM   36  H   UNK N   1      37.320  10.365  13.357  0.00  0.00     0.210 HD
ENDBRANCH   6  35
TORSDOF 15
ENDMDL
MODEL 5
REMARK VINA RESULT:      -6.1      9.751     13.826
REMARK  15 active torsions:
REMARK  status: ('A' for Active; 'I' for Inactive)
REMARK    1  A    between atoms: C_1  and  O_2 
REMARK    2  A    between atoms: C_5  and  O_2 
REMARK    3  A    between atoms: C_4  and  O_8 
REMARK    4  A    between atoms: C_6  and  C_12 
REMARK    5  A    between atoms: C_7  and  O_13 
REMARK    6  A    between atoms: C_10  and  O_16 
REMARK    7  A    between atoms: C_11  and  O_17 
REMARK    8  A    between atoms: C_12  and  O_18 
REMARK    9  A    between atoms: C_14  and  C_20 
REMARK   10  A    between atoms: C_15  and  O_21 
REMARK   11  A    between atoms: O_18  and  P_22 
REMARK   12  A    between atoms: C_19  and  O_23 
REMARK   13  A    between atoms: C_20  and  O_24 
REMARK   14  A    between atoms: P_22  and  O_25 
REMARK   15  A    between atoms: P_22  and  O_26 
ROOT
HETATM    1  C   UNK N   1      21.253  15.412   6.576  0.00  0.00     0.294 C 
HETATM    2  O   UNK N   1      21.303  16.743   6.096  0.00  0.00    -0.348 OA
HETATM    3  C   UNK N   1      19.901  14.770   6.158  0.00  0.00     0.204 C 
HETATM    4  C   UNK N   1      21.298  16.755   4.685  0.00  0.00     0.180 C 
HETATM    5  C   UNK N   1      19.681  14.901   4.658  0.00  0.00     0.183 C 
HETATM    6  C   UNK N   1      19.905  16.331   4.200  0.00  0.00     0.180 C 
ENDROOT
BRANCH   1   7
HETATM    7  O   UNK N   1      21.372  15.498   7.984  0.00  0.00    -0.326 OA
BRANCH   7   8
HETATM    8  C   UNK N   1      21.679  14.241   8.533  0.00  0.00     0.294 C 
HETATM    9  O   UNK N   1      23.036  14.202   8.910  0.00  0.00    -0.348 OA
HETATM   10  C   UNK N   1      23.352  12.872   9.278  0.00  0.00     0.179 C 
HETATM   11  C   UNK N   1      22.596  12.488  10.568  0.00  0.00     0.180 C 
HETATM   12  C   UNK N   1      21.099  12.643  10.327  0.00  0.00     0.183 C 
HETATM   13  C   UNK N   1      20.815  14.035   9.786  0.00  0.00     0.204 C 
BRANCH  10  14
HETATM   14  C   UNK N   1      24.862  12.787   9.489  0.00  0.00     0.198 C 
BRANCH  14  15
HETATM   15  O   UNK N   1      25.189  12.944  10.837  0.00  0.00    -0.398 OA
HETATM   16  H   UNK N   1      26.012  13.017  11.345  0.00  0.00     0.209 HD
ENDBRANCH  14  15
ENDBRANCH  10  14
BRANCH  11  17
HETATM   17  O   UNK N   1      22.862  11.164  10.928  0.00  0.00    -0.390 OA
HETATM   18  H   UNK N   1      23.239  10.431  10.419  0.00  0.00     0.210 HD
ENDBRANCH  11  17
BRANCH  12  19
HETATM   19  O   UNK N   1      20.395  12.436  11.515  0.00  0.00    -0.390 OA
HETATM   20  H   UNK N   1      20.122  11.608  11.942  0.00  0.00     0.210 HD
ENDBRANCH  12  19
BRANCH  13  21
HETATM   21  O   UNK N   1      19.456  14.161   9.494  0.00  0.00    -0.388 OA
HETATM   22  H   UNK N   1      19.111  13.863   8.638  0.00  0.00     0.210 HD
ENDBRANCH  13  21
ENDBRANCH   7   8
ENDBRANCH   1   7
BRANCH   3  23
HETATM   23  O   UNK N   1      19.885  13.408   6.468  0.00  0.00    -0.388 OA
HETATM   24  H   UNK N   1      20.359  12.899   7.144  0.00  0.00     0.210 HD
ENDBRANCH   3  23
BRANCH   4  25
HETATM   25  C   UNK N   1      21.643  18.175   4.236  0.00  0.00     0.215 C 
BRANCH  25  26
HETATM   26  O   UNK N   1      20.542  18.823   3.661  0.00  0.00    -0.294 OA
BRANCH  26  27
HETATM   27  P   UNK N   1      21.227  19.916   2.490  0.00  0.00     0.390 P 
HETATM   28  O   UNK N   1      20.507  20.910   3.437  0.00  0.00    -0.632 OA
BRANCH  27  29
HETATM   29  O   UNK N   1      20.231  20.818   1.393  0.00  0.00    -0.307 OA
HETATM   30  H   UNK N   1      19.609  20.387   0.785  0.00  0.00     0.222 HD
ENDBRANCH  27  29
BRANCH  27  31
HETATM   31  O   UNK N   1      20.037  18.906   1.727  0.00  0.00    -0.307 OA
HETATM   32  H   UNK N   1      19.266  19.258   1.256  0.00  0.00     0.222 HD
ENDBRANCH  27  31
ENDBRANCH  26  27
ENDBRANCH  25  26
ENDBRANCH   4  25
BRANCH   5  33
HETATM   33  O   UNK N   1      18.387  14.491   4.331  0.00  0.00    -0.390 OA
HETATM   34  H   UNK N   1      18.246  13.680   3.819  0.00  0.00     0.210 HD
ENDBRANCH   5  33
BRANCH   6  35
HETATM   35  O   UNK N   1      19.822  16.366   2.808  0.00  0.00    -0.390 OA
HETATM   36  H   UNK N   1      19.460  17.022   2.193  0.00  0.00     0.210 HD
ENDBRANCH   6  35
TORSDOF 15
ENDMDL
MODEL 6
REMARK VINA RESULT:      -6.0      6.686     10.274
REMARK  15 active torsions:
REMARK  status: ('A' for Active; 'I' for Inactive)
REMARK    1  A    between atoms: C_1  and  O_2 
REMARK    2  A    between atoms: C_5  and  O_2 
REMARK    3  A    between atoms: C_4  and  O_8 
REMARK    4  A    between atoms: C_6  and  C_12 
REMARK    5  A    between atoms: C_7  and  O_13 
REMARK    6  A    between atoms: C_10  and  O_16 
REMARK    7  A    between atoms: C_11  and  O_17 
REMARK    8  A    between atoms: C_12  and  O_18 
REMARK    9  A    between atoms: C_14  and  C_20 
REMARK   10  A    between atoms: C_15  and  O_21 
REMARK   11  A    between atoms: O_18  and  P_22 
REMARK   12  A    between atoms: C_19  and  O_23 
REMARK   13  A    between atoms: C_20  and  O_24 
REMARK   14  A    between atoms: P_22  and  O_25 
REMARK   15  A    between atoms: P_22  and  O_26 
ROOT
HETATM    1  C   UNK N   1      24.066  19.192   3.993  0.00  0.00     0.294 C 
HETATM    2  O   UNK N   1      24.923  18.998   5.104  0.00  0.00    -0.348 OA
HETATM    3  C   UNK N   1      24.513  20.465   3.222  0.00  0.00     0.204 C 
HETATM    4  C   UNK N   1      26.238  18.734   4.667  0.00  0.00     0.180 C 
HETATM    5  C   UNK N   1      25.990  20.390   2.865  0.00  0.00     0.183 C 
HETATM    6  C   UNK N   1      26.824  20.025   4.079  0.00  0.00     0.180 C 
ENDROOT
BRANCH   1   7
HETATM    7  O   UNK N   1      22.763  19.339   4.525  0.00  0.00    -0.326 OA
BRANCH   7   8
HETATM    8  C   UNK N   1      21.940  18.272   4.124  0.00  0.00     0.294 C 
HETATM    9  O   UNK N   1      21.501  17.555   5.256  0.00  0.00    -0.348 OA
HETATM   10  C   UNK N   1      20.839  16.387   4.808  0.00  0.00     0.179 C 
HETATM   11  C   UNK N   1      19.534  16.768   4.076  0.00  0.00     0.180 C 
HETATM   12  C   UNK N   1      19.873  17.683   2.905  0.00  0.00     0.183 C 
HETATM   13  C   UNK N   1      20.715  18.848   3.400  0.00  0.00     0.204 C 
BRANCH  10  14
HETATM   14  C   UNK N   1      20.544  15.515   6.025  0.00  0.00     0.198 C 
BRANCH  14  15
HETATM   15  O   UNK N   1      19.240  15.718   6.481  0.00  0.00    -0.398 OA
HETATM   16  H   UNK N   1      18.824  16.265   7.166  0.00  0.00     0.209 HD
ENDBRANCH  14  15
ENDBRANCH  10  14
BRANCH  11  17
HETATM   17  O   UNK N   1      18.884  15.631   3.589  0.00  0.00    -0.390 OA
HETATM   18  H   UNK N   1      18.386  14.938   4.048  0.00  0.00     0.210 HD
ENDBRANCH  11  17
BRANCH  12  19
HETATM   19  O   UNK N   1      18.703  18.155   2.307  0.00  0.00    -0.390 OA
HETATM   20  H   UNK N   1      18.382  19.064   2.197  0.00  0.00     0.210 HD
ENDBRANCH  12  19
BRANCH  13  21
HETATM   21  O   UNK N   1      21.091  19.651   2.323  0.00  0.00    -0.388 OA
HETATM   22  H   UNK N   1      21.623  19.282   1.601  0.00  0.00     0.210 HD
ENDBRANCH  13  21
ENDBRANCH   7   8
ENDBRANCH   1   7
BRANCH   3  23
HETATM   23  O   UNK N   1      23.798  20.595   2.029  0.00  0.00    -0.388 OA
HETATM   24  H   UNK N   1      23.908  21.200   1.279  0.00  0.00     0.210 HD
ENDBRANCH   3  23
BRANCH   4  25
HETATM   25  C   UNK N   1      27.037  18.252   5.878  0.00  0.00     0.215 C 
BRANCH  25  26
HETATM   26  O   UNK N   1      27.806  19.281   6.439  0.00  0.00    -0.294 OA
BRANCH  26  27
HETATM   27  P   UNK N   1      28.422  18.618   7.928  0.00  0.00     0.390 P 
HETATM   28  O   UNK N   1      27.811  17.353   7.270  0.00  0.00    -0.632 OA
BRANCH  27  29
HETATM   29  O   UNK N   1      27.362  18.029   9.170  0.00  0.00    -0.307 OA
HETATM   30  H   UNK N   1      26.598  18.538   9.482  0.00  0.00     0.222 HD
ENDBRANCH  27  29
BRANCH  27  31
HETATM   31  O   UNK N   1      27.144  19.745   8.269  0.00  0.00    -0.307 OA
HETATM   32  H   UNK N   1      26.228  19.474   8.438  0.00  0.00     0.222 HD
ENDBRANCH  27  31
ENDBRANCH  26  27
ENDBRANCH  25  26
ENDBRANCH   4  25
BRANCH   5  33
HETATM   33  O   UNK N   1      26.414  21.614   2.343  0.00  0.00    -0.390 OA
HETATM   34  H   UNK N   1      27.074  21.640   1.634  0.00  0.00     0.210 HD
ENDBRANCH   5  33
BRANCH   6  35
HETATM   35  O   UNK N   1      28.144  19.841   3.668  0.00  0.00    -0.390 OA
HETATM   36  H   UNK N   1      28.882  20.458   3.547  0.00  0.00     0.210 HD
ENDBRANCH   6  35
TORSDOF 15
ENDMDL
MODEL 7
REMARK VINA RESULT:      -5.9      1.782      2.109
REMARK  15 active torsions:
REMARK  status: ('A' for Active; 'I' for Inactive)
REMARK    1  A    between atoms: C_1  and  O_2 
REMARK    2  A    between atoms: C_5  and  O_2 
REMARK    3  A    between atoms: C_4  and  O_8 
REMARK    4  A    between atoms: C_6  and  C_12 
REMARK    5  A    between atoms: C_7  and  O_13 
REMARK    6  A    between atoms: C_10  and  O_16 
REMARK    7  A    between atoms: C_11  and  O_17 
REMARK    8  A    between atoms: C_12  and  O_18 
REMARK    9  A    between atoms: C_14  and  C_20 
REMARK   10  A    between atoms: C_15  and  O_21 
REMARK   11  A    between atoms: O_18  and  P_22 
REMARK   12  A    between atoms: C_19  and  O_23 
REMARK   13  A    between atoms: C_20  and  O_24 
REMARK   14  A    between atoms: P_22  and  O_25 
REMARK   15  A    between atoms: P_22  and  O_26 
ROOT
HETATM    1  C   UNK N   1      32.667  16.392   8.145  0.00  0.00     0.294 C 
HETATM    2  O   UNK N   1      33.279  15.799   9.276  0.00  0.00    -0.348 OA
HETATM    3  C   UNK N   1      33.755  16.690   7.077  0.00  0.00     0.204 C 
HETATM    4  C   UNK N   1      33.828  14.545   8.935  0.00  0.00     0.180 C 
HETATM    5  C   UNK N   1      34.565  15.441   6.765  0.00  0.00     0.183 C 
HETATM    6  C   UNK N   1      35.054  14.779   8.040  0.00  0.00     0.180 C 
ENDROOT
BRANCH   1   7
HETATM    7  O   UNK N   1      32.056  17.581   8.609  0.00  0.00    -0.326 OA
BRANCH   7   8
HETATM    8  C   UNK N   1      30.791  17.751   8.018  0.00  0.00     0.294 C 
HETATM    9  O   UNK N   1      30.501  16.652   7.184  0.00  0.00    -0.348 OA
HETATM   10  C   UNK N   1      29.318  16.946   6.465  0.00  0.00     0.179 C 
HETATM   11  C   UNK N   1      28.116  17.010   7.431  0.00  0.00     0.180 C 
HETATM   12  C   UNK N   1      28.387  18.075   8.487  0.00  0.00     0.183 C 
HETATM   13  C   UNK N   1      29.738  17.814   9.133  0.00  0.00     0.204 C 
BRANCH  10  14
HETATM   14  C   UNK N   1      29.117  15.851   5.421  0.00  0.00     0.198 C 
BRANCH  14  15
HETATM   15  O   UNK N   1      28.328  16.307   4.363  0.00  0.00    -0.398 OA
HETATM   16  H   UNK N   1      28.485  16.815   3.551  0.00  0.00     0.209 HD
ENDBRANCH  14  15
ENDBRANCH  10  14
BRANCH  11  17
HETATM   17  O   UNK N   1      26.942  17.339   6.747  0.00  0.00    -0.390 OA
HETATM   18  H   UNK N   1      26.012  17.197   6.976  0.00  0.00     0.210 HD
ENDBRANCH  11  17
BRANCH  12  19
HETATM   19  O   UNK N   1      27.380  18.063   9.455  0.00  0.00    -0.390 OA
HETATM   20  H   UNK N   1      27.416  18.300  10.395  0.00  0.00     0.210 HD
ENDBRANCH  12  19
BRANCH  13  21
HETATM   21  O   UNK N   1      30.027  18.826  10.050  0.00  0.00    -0.388 OA
HETATM   22  H   UNK N   1      29.531  18.888  10.881  0.00  0.00     0.210 HD
ENDBRANCH  13  21
ENDBRANCH   7   8
ENDBRANCH   1   7
BRANCH   3  23
HETATM   23  O   UNK N   1      33.170  17.121   5.884  0.00  0.00    -0.388 OA
HETATM   24  H   UNK N   1      32.465  16.736   5.340  0.00  0.00     0.210 HD
ENDBRANCH   3  23
BRANCH   4  25
HETATM   25  C   UNK N   1      34.207  13.839  10.237  0.00  0.00     0.215 C 
BRANCH  25  26
HETATM   26  O   UNK N   1      34.671  14.741  11.204  0.00  0.00    -0.294 OA
BRANCH  26  27
HETATM   27  P   UNK N   1      35.994  13.919  11.984  0.00  0.00     0.390 P 
HETATM   28  O   UNK N   1      34.895  13.807  13.071  0.00  0.00    -0.632 OA
BRANCH  27  29
HETATM   29  O   UNK N   1      36.784  14.582  13.379  0.00  0.00    -0.307 OA
HETATM   30  H   UNK N   1      37.748  14.563  13.487  0.00  0.00     0.222 HD
ENDBRANCH  27  29
BRANCH  27  31
HETATM   31  O   UNK N   1      36.393  15.595  11.759  0.00  0.00    -0.307 OA
HETATM   32  H   UNK N   1      37.258  15.897  11.440  0.00  0.00     0.222 HD
ENDBRANCH  27  31
ENDBRANCH  26  27
ENDBRANCH  25  26
ENDBRANCH   4  25
BRANCH   5  33
HETATM   33  O   UNK N   1      35.649  15.770   5.950  0.00  0.00    -0.390 OA
HETATM   34  H   UNK N   1      36.356  16.343   6.284  0.00  0.00     0.210 HD
ENDBRANCH   5  33
BRANCH   6  35
HETATM   35  O   UNK N   1      35.671  13.575   7.703  0.00  0.00    -0.390 OA
HETATM   36  H   UNK N   1      36.325  13.026   8.164  0.00  0.00     0.210 HD
ENDBRANCH   6  35
TORSDOF 15
ENDMDL
MODEL 8
REMARK VINA RESULT:      -5.9      2.314      3.683
REMARK  15 active torsions:
REMARK  status: ('A' for Active; 'I' for Inactive)
REMARK    1  A    between atoms: C_1  and  O_2 
REMARK    2  A    between atoms: C_5  and  O_2 
REMARK    3  A    between atoms: C_4  and  O_8 
REMARK    4  A    between atoms: C_6  and  C_12 
REMARK    5  A    between atoms: C_7  and  O_13 
REMARK    6  A    between atoms: C_10  and  O_16 
REMARK    7  A    between atoms: C_11  and  O_17 
REMARK    8  A    between atoms: C_12  and  O_18 
REMARK    9  A    between atoms: C_14  and  C_20 
REMARK   10  A    between atoms: C_15  and  O_21 
REMARK   11  A    between atoms: O_18  and  P_22 
REMARK   12  A    between atoms: C_19  and  O_23 
REMARK   13  A    between atoms: C_20  and  O_24 
REMARK   14  A    between atoms: P_22  and  O_25 
REMARK   15  A    between atoms: P_22  and  O_26 
ROOT
HETATM    1  C   UNK N   1      33.648  16.839   7.393  0.00  0.00     0.294 C 
HETATM    2  O   UNK N   1      33.082  15.571   7.671  0.00  0.00    -0.348 OA
HETATM    3  C   UNK N   1      34.006  17.542   8.731  0.00  0.00     0.204 C 
HETATM    4  C   UNK N   1      34.034  14.737   8.295  0.00  0.00     0.180 C 
HETATM    5  C   UNK N   1      34.879  16.645   9.597  0.00  0.00     0.183 C 
HETATM    6  C   UNK N   1      34.278  15.257   9.718  0.00  0.00     0.180 C 
ENDROOT
BRANCH   1   7
HETATM    7  O   UNK N   1      32.663  17.559   6.676  0.00  0.00    -0.326 OA
BRANCH   7   8
HETATM    8  C   UNK N   1      31.379  17.063   6.964  0.00  0.00     0.294 C 
HETATM    9  O   UNK N   1      30.605  18.069   7.576  0.00  0.00    -0.348 OA
HETATM   10  C   UNK N   1      29.395  17.483   8.021  0.00  0.00     0.179 C 
HETATM   11  C   UNK N   1      28.546  17.043   6.809  0.00  0.00     0.180 C 
HETATM   12  C   UNK N   1      29.352  16.056   5.973  0.00  0.00     0.183 C 
HETATM   13  C   UNK N   1      30.707  16.661   5.643  0.00  0.00     0.204 C 
BRANCH  10  14
HETATM   14  C   UNK N   1      28.649  18.518   8.859  0.00  0.00     0.198 C 
BRANCH  14  15
HETATM   15  O   UNK N   1      27.514  17.960   9.449  0.00  0.00    -0.398 OA
HETATM   16  H   UNK N   1      26.678  18.304   9.801  0.00  0.00     0.209 HD
ENDBRANCH  14  15
ENDBRANCH  10  14
BRANCH  11  17
HETATM   17  O   UNK N   1      27.364  16.425   7.226  0.00  0.00    -0.390 OA
HETATM   18  H   UNK N   1      26.722  16.675   7.907  0.00  0.00     0.210 HD
ENDBRANCH  11  17
BRANCH  12  19
HETATM   19  O   UNK N   1      28.665  15.745   4.798  0.00  0.00    -0.390 OA
HETATM   20  H   UNK N   1      27.783  15.360   4.675  0.00  0.00     0.210 HD
ENDBRANCH  12  19
BRANCH  13  21
HETATM   21  O   UNK N   1      31.479  15.736   4.940  0.00  0.00    -0.388 OA
HETATM   22  H   UNK N   1      31.581  15.814   3.979  0.00  0.00     0.210 HD
ENDBRANCH  13  21
ENDBRANCH   7   8
ENDBRANCH   1   7
BRANCH   3  23
HETATM   23  O   UNK N   1      34.718  18.720   8.495  0.00  0.00    -0.388 OA
HETATM   24  H   UNK N   1      34.445  19.568   8.109  0.00  0.00     0.210 HD
ENDBRANCH   3  23
BRANCH   4  25
HETATM   25  C   UNK N   1      33.465  13.318   8.303  0.00  0.00     0.215 C 
BRANCH  25  26
HETATM   26  O   UNK N   1      34.462  12.357   8.516  0.00  0.00    -0.294 OA
BRANCH  26  27
HETATM   27  P   UNK N   1      33.597  10.880   8.840  0.00  0.00     0.390 P 
HETATM   28  O   UNK N   1      32.688  11.525   7.763  0.00  0.00    -0.632 OA
BRANCH  27  29
HETATM   29  O   UNK N   1      32.046  10.884   9.619  0.00  0.00    -0.307 OA
HETATM   30  H   UNK N   1      31.660  10.083  10.008  0.00  0.00     0.222 HD
ENDBRANCH  27  29
BRANCH  27  31
HETATM   31  O   UNK N   1      33.592  11.887  10.256  0.00  0.00    -0.307 OA
HETATM   32  H   UNK N   1      32.982  12.631  10.376  0.00  0.00     0.222 HD
ENDBRANCH  27  31
ENDBRANCH  26  27
ENDBRANCH  25  26
ENDBRANCH   4  25
BRANCH   5  33
HETATM   33  O   UNK N   1      35.033  17.213  10.863  0.00  0.00    -0.390 OA
HETATM   34  H   UNK N   1      35.917  17.329  11.243  0.00  0.00     0.210 HD
ENDBRANCH   5  33
BRANCH   6  35
HETATM   35  O   UNK N   1      35.179  14.444  10.406  0.00  0.00    -0.390 OA
HETATM   36  H   UNK N   1      35.941  13.921  10.112  0.00  0.00     0.210 HD
ENDBRANCH   6  35
TORSDOF 15
ENDMDL
MODEL 9
REMARK VINA RESULT:      -5.9      1.726      2.642
REMARK  15 active torsions:
REMARK  status: ('A' for Active; 'I' for Inactive)
REMARK    1  A    between atoms: C_1  and  O_2 
REMARK    2  A    between atoms: C_5  and  O_2 
REMARK    3  A    between atoms: C_4  and  O_8 
REMARK    4  A    between atoms: C_6  and  C_12 
REMARK    5  A    between atoms: C_7  and  O_13 
REMARK    6  A    between atoms: C_10  and  O_16 
REMARK    7  A    between atoms: C_11  and  O_17 
REMARK    8  A    between atoms: C_12  and  O_18 
REMARK    9  A    between atoms: C_14  and  C_20 
REMARK   10  A    between atoms: C_15  and  O_21 
REMARK   11  A    between atoms: O_18  and  P_22 
REMARK   12  A    between atoms: C_19  and  O_23 
REMARK   13  A    between atoms: C_20  and  O_24 
REMARK   14  A    between atoms: P_22  and  O_25 
REMARK   15  A    between atoms: P_22  and  O_26 
ROOT
HETATM    1  C   UNK N   1      30.964  15.816   6.147  0.00  0.00     0.294 C 
HETATM    2  O   UNK N   1      31.493  15.979   7.450  0.00  0.00    -0.348 OA
HETATM    3  C   UNK N   1      31.512  16.945   5.230  0.00  0.00     0.204 C 
HETATM    4  C   UNK N   1      32.893  15.808   7.435  0.00  0.00     0.180 C 
HETATM    5  C   UNK N   1      33.031  16.997   5.285  0.00  0.00     0.183 C 
HETATM    6  C   UNK N   1      33.522  17.013   6.721  0.00  0.00     0.180 C 
ENDROOT
BRANCH   1   7
HETATM    7  O   UNK N   1      29.558  15.895   6.282  0.00  0.00    -0.326 OA
BRANCH   7   8
HETATM    8  C   UNK N   1      29.129  17.233   6.236  0.00  0.00     0.294 C 
HETATM    9  O   UNK N   1      28.222  17.408   5.171  0.00  0.00    -0.348 OA
HETATM   10  C   UNK N   1      27.962  18.793   5.038  0.00  0.00     0.179 C 
HETATM   11  C   UNK N   1      27.192  19.307   6.274  0.00  0.00     0.180 C 
HETATM   12  C   UNK N   1      28.020  19.028   7.523  0.00  0.00     0.183 C 
HETATM   13  C   UNK N   1      28.410  17.559   7.553  0.00  0.00     0.204 C 
BRANCH  10  14
HETATM   14  C   UNK N   1      27.144  18.999   3.765  0.00  0.00     0.198 C 
BRANCH  14  15
HETATM   15  O   UNK N   1      27.107  20.348   3.408  0.00  0.00    -0.398 OA
HETATM   16  H   UNK N   1      27.700  21.109   3.514  0.00  0.00     0.209 HD
ENDBRANCH  14  15
ENDBRANCH  10  14
BRANCH  11  17
HETATM   17  O   UNK N   1      26.960  20.682   6.181  0.00  0.00    -0.390 OA
HETATM   18  H   UNK N   1      27.573  21.432   6.196  0.00  0.00     0.210 HD
ENDBRANCH  11  17
BRANCH  12  19
HETATM   19  O   UNK N   1      27.292  19.356   8.668  0.00  0.00    -0.390 OA
HETATM   20  H   UNK N   1      26.344  19.266   8.851  0.00  0.00     0.210 HD
ENDBRANCH  12  19
BRANCH  13  21
HETATM   21  O   UNK N   1      29.230  17.310   8.655  0.00  0.00    -0.388 OA
HETATM   22  H   UNK N   1      28.857  16.929   9.465  0.00  0.00     0.210 HD
ENDBRANCH  13  21
ENDBRANCH   7   8
ENDBRANCH   1   7
BRANCH   3  23
HETATM   23  O   UNK N   1      31.146  16.722   3.901  0.00  0.00    -0.388 OA
HETATM   24  H   UNK N   1      31.010  17.335   3.162  0.00  0.00     0.210 HD
ENDBRANCH   3  23
BRANCH   4  25
HETATM   25  C   UNK N   1      33.360  15.707   8.887  0.00  0.00     0.215 C 
BRANCH  25  26
HETATM   26  O   UNK N   1      34.719  15.379   8.978  0.00  0.00    -0.294 OA
BRANCH  26  27
HETATM   27  P   UNK N   1      35.191  15.868  10.582  0.00  0.00     0.390 P 
HETATM   28  O   UNK N   1      35.352  17.201   9.806  0.00  0.00    -0.632 OA
BRANCH  27  29
HETATM   29  O   UNK N   1      36.826  16.319  10.953  0.00  0.00    -0.307 OA
HETATM   30  H   UNK N   1      37.328  16.942  10.404  0.00  0.00     0.222 HD
ENDBRANCH  27  29
BRANCH  27  31
HETATM   31  O   UNK N   1      36.333  14.716   9.958  0.00  0.00    -0.307 OA
HETATM   32  H   UNK N   1      37.056  14.346  10.487  0.00  0.00     0.222 HD
ENDBRANCH  27  31
ENDBRANCH  26  27
ENDBRANCH  25  26
ENDBRANCH   4  25
BRANCH   5  33
HETATM   33  O   UNK N   1      33.492  18.128   4.608  0.00  0.00    -0.390 OA
HETATM   34  H   UNK N   1      34.134  18.038   3.887  0.00  0.00     0.210 HD
ENDBRANCH   5  33
BRANCH   6  35
HETATM   35  O   UNK N   1      34.914  16.926   6.713  0.00  0.00    -0.390 OA
HETATM   36  H   UNK N   1      35.593  17.386   6.195  0.00  0.00     0.210 HD
ENDBRANCH   6  35
TORSDOF 15
ENDMDL
