MODEL 1
REMARK VINA RESULT:      -3.8      0.000      0.000
REMARK  1 active torsions:
REMARK  status: ('A' for Active; 'I' for Inactive)
REMARK    1  A    between atoms: C_2  and  O_4 
ROOT
HETATM    1  C   UNK N   1      22.791  11.835   9.953  0.00  0.00     0.062 C 
HETATM    2  C   UNK N   1      22.868  11.910  11.463  0.00  0.00     0.139 C 
HETATM    3  C   UNK N   1      24.320  12.075  11.062  0.00  0.00     0.062 C 
HETATM    4  C   UNK N   1      23.303  12.025  12.860  0.00  0.00     0.097 C 
HETATM    5  N   UNK N   1      23.651  12.116  13.960  0.00  0.00    -0.194 NA
ENDROOT
BRANCH   2   6
HETATM    6  O   UNK N   1      21.495  11.745  11.644  0.00  0.00    -0.376 OA
HETATM    7  H   UNK N   1      21.034  12.241  12.339  0.00  0.00     0.211 HD
ENDBRANCH   2   6
TORSDOF 1
ENDMDL
MODEL 2
REMARK VINA RESULT:      -3.7     12.653     13.171
REMARK  1 active torsions:
REMARK  status: ('A' for Active; 'I' for Inactive)
REMARK    1  A    between atoms: C_2  and  O_4 
ROOT
HETATM    1  C   UNK N   1      32.331  17.087   6.689  0.00  0.00     0.062 C 
HETATM    2  C   UNK N   1      33.553  17.812   7.212  0.00  0.00     0.139 C 
HETATM    3  C   UNK N   1      32.598  17.913   8.383  0.00  0.00     0.062 C 
HETATM    4  C   UNK N   1      34.527  18.556   8.019  0.00  0.00     0.097 C 
HETATM    5  N   UNK N   1      35.292  19.143   8.659  0.00  0.00    -0.194 NA
ENDROOT
BRANCH   2   6
HETATM    6  O   UNK N   1      34.292  17.624   6.043  0.00  0.00    -0.376 OA
HETATM    7  H   UNK N   1      35.262  17.639   6.075  0.00  0.00     0.211 HD
ENDBRANCH   2   6
TORSDOF 1
ENDMDL
MODEL 3
REMARK VINA RESULT:      -3.6      1.800      2.008
REMARK  1 active torsions:
REMARK  status: ('A' for Active; 'I' for Inactive)
REMARK    1  A    between atoms: C_2  and  O_4 
ROOT
HETATM    1  C   UNK N   1      24.348  12.230   9.519  0.00  0.00     0.062 C 
HETATM    2  C   UNK N   1      24.067  12.133  11.004  0.00  0.00     0.139 C 
HETATM    3  C   UNK N   1      22.779  11.612  10.402  0.00  0.00     0.062 C 
HETATM    4  C   UNK N   1      23.471  11.908  12.326  0.00  0.00     0.097 C 
HETATM    5  N   UNK N   1      22.997  11.729  13.367  0.00  0.00    -0.194 NA
ENDROOT
BRANCH   2   6
HETATM    6  O   UNK N   1      25.314  12.636  11.377  0.00  0.00    -0.376 OA
HETATM    7  H   UNK N   1      26.120  12.136  11.173  0.00  0.00     0.211 HD
ENDBRANCH   2   6
TORSDOF 1
ENDMDL
MODEL 4
REMARK VINA RESULT:      -3.5      2.713      3.250
REMARK  1 active torsions:
REMARK  status: ('A' for Active; 'I' for Inactive)
REMARK    1  A    between atoms: C_2  and  O_4 
ROOT
HETATM    1  C   UNK N   1      23.136  11.898  12.576  0.00  0.00     0.062 C 
HETATM    2  C   UNK N   1      23.831  12.106  11.247  0.00  0.00     0.139 C 
HETATM    3  C   UNK N   1      22.392  11.895  10.824  0.00  0.00     0.062 C 
HETATM    4  C   UNK N   1      24.164  12.259   9.826  0.00  0.00     0.097 C 
HETATM    5  N   UNK N   1      24.421  12.379   8.704  0.00  0.00    -0.194 NA
ENDROOT
BRANCH   2   6
HETATM    6  O   UNK N   1      25.093  12.277  11.817  0.00  0.00    -0.376 OA
HETATM    7  H   UNK N   1      25.271  13.047  12.379  0.00  0.00     0.211 HD
ENDBRANCH   2   6
TORSDOF 1
ENDMDL
MODEL 5
REMARK VINA RESULT:      -3.5     12.029     12.624
REMARK  1 active torsions:
REMARK  status: ('A' for Active; 'I' for Inactive)
REMARK    1  A    between atoms: C_2  and  O_4 
ROOT
HETATM    1  C   UNK N   1      31.960  16.833   7.112  0.00  0.00     0.062 C 
HETATM    2  C   UNK N   1      33.040  17.618   7.824  0.00  0.00     0.139 C 
HETATM    3  C   UNK N   1      33.542  17.613   6.395  0.00  0.00     0.062 C 
HETATM    4  C   UNK N   1      34.235  18.396   8.178  0.00  0.00     0.097 C 
HETATM    5  N   UNK N   1      35.178  19.008   8.451  0.00  0.00    -0.194 NA
ENDROOT
BRANCH   2   6
HETATM    6  O   UNK N   1      32.430  17.522   9.075  0.00  0.00    -0.376 OA
HETATM    7  H   UNK N   1      32.360  18.305   9.643  0.00  0.00     0.211 HD
ENDBRANCH   2   6
TORSDOF 1
ENDMDL
MODEL 6
REMARK VINA RESULT:      -3.3      3.091      3.596
REMARK  1 active torsions:
REMARK  status: ('A' for Active; 'I' for Inactive)
REMARK    1  A    between atoms: C_2  and  O_4 
ROOT
HETATM    1  C   UNK N   1      22.919  12.063  11.620  0.00  0.00     0.062 C 
HETATM    2  C   UNK N   1      22.021  12.868  10.705  0.00  0.00     0.139 C 
HETATM    3  C   UNK N   1      21.017  12.096  11.536  0.00  0.00     0.062 C 
HETATM    4  C   UNK N   1      20.883  13.475  10.003  0.00  0.00     0.097 C 
HETATM    5  N   UNK N   1      19.983  13.950   9.452  0.00  0.00    -0.194 NA
ENDROOT
BRANCH   2   6
HETATM    6  O   UNK N   1      23.080  13.489  10.042  0.00  0.00    -0.376 OA
HETATM    7  H   UNK N   1      23.585  13.003   9.371  0.00  0.00     0.211 HD
ENDBRANCH   2   6
TORSDOF 1
ENDMDL
MODEL 7
REMARK VINA RESULT:      -3.2     12.179     12.639
REMARK  1 active torsions:
REMARK  status: ('A' for Active; 'I' for Inactive)
REMARK    1  A    between atoms: C_2  and  O_4 
ROOT
HETATM    1  C   UNK N   1      34.912  13.600  11.977  0.00  0.00     0.062 C 
HETATM    2  C   UNK N   1      34.873  14.980  11.355  0.00  0.00     0.139 C 
HETATM    3  C   UNK N   1      36.357  14.774  11.577  0.00  0.00     0.062 C 
HETATM    4  C   UNK N   1      35.201  16.296  10.793  0.00  0.00     0.097 C 
HETATM    5  N   UNK N   1      35.464  17.333  10.352  0.00  0.00    -0.194 NA
ENDROOT
BRANCH   2   6
HETATM    6  O   UNK N   1      33.484  14.995  11.227  0.00  0.00    -0.376 OA
HETATM    7  H   UNK N   1      32.985  15.798  11.447  0.00  0.00     0.211 HD
ENDBRANCH   2   6
TORSDOF 1
ENDMDL
MODEL 8
REMARK VINA RESULT:      -3.2     11.774     12.343
REMARK  1 active torsions:
REMARK  status: ('A' for Active; 'I' for Inactive)
REMARK    1  A    between atoms: C_2  and  O_4 
ROOT
HETATM    1  C   UNK N   1      20.167  17.427   1.087  0.00  0.00     0.062 C 
HETATM    2  C   UNK N   1      20.303  18.725   1.855  0.00  0.00     0.139 C 
HETATM    3  C   UNK N   1      19.993  17.735   2.958  0.00  0.00     0.062 C 
HETATM    4  C   UNK N   1      20.362  19.767   2.887  0.00  0.00     0.097 C 
HETATM    5  N   UNK N   1      20.407  20.584   3.705  0.00  0.00    -0.194 NA
ENDROOT
BRANCH   2   6
HETATM    6  O   UNK N   1      20.577  19.487   0.719  0.00  0.00    -0.376 OA
HETATM    7  H   UNK N   1      20.940  19.063  -0.075  0.00  0.00     0.211 HD
ENDBRANCH   2   6
TORSDOF 1
ENDMDL
MODEL 9
REMARK VINA RESULT:      -3.1     11.649     12.232
REMARK  1 active torsions:
REMARK  status: ('A' for Active; 'I' for Inactive)
REMARK    1  A    between atoms: C_2  and  O_4 
ROOT
HETATM    1  C   UNK N   1      19.867  18.208   2.835  0.00  0.00     0.062 C 
HETATM    2  C   UNK N   1      20.855  19.326   2.576  0.00  0.00     0.139 C 
HETATM    3  C   UNK N   1      21.113  19.006   4.033  0.00  0.00     0.062 C 
HETATM    4  C   UNK N   1      21.898  20.354   2.679  0.00  0.00     0.097 C 
HETATM    5  N   UNK N   1      22.721  21.163   2.765  0.00  0.00    -0.194 NA
ENDROOT
BRANCH   2   6
HETATM    6  O   UNK N   1      20.486  19.482   1.239  0.00  0.00    -0.376 OA
HETATM    7  H   UNK N   1      20.788  20.257   0.740  0.00  0.00     0.211 HD
ENDBRANCH   2   6
TORSDOF 1
ENDMDL
