MODEL 1
REMARK VINA RESULT:      -8.2      0.000      0.000
REMARK  4 active torsions:
REMARK  status: ('A' for Active; 'I' for Inactive)
REMARK    1  A    between atoms: C_27  and  C_25 
REMARK    2  A    between atoms: N_37  and  C_25 
REMARK    3  A    between atoms: C_28  and  C_26 
REMARK    4  A    between atoms: N_38  and  C_26 
ROOT
HETATM    1  C   UNK N   1      31.340  17.506   4.529  0.00  0.00     0.009 C 
HETATM    2  C   UNK N   1      31.303  15.276   3.586  0.00  0.00     0.009 C 
HETATM    3  C   UNK N   1      32.523  17.191   5.194  0.00  0.00     0.009 C 
HETATM    4  C   UNK N   1      32.458  14.944   4.297  0.00  0.00     0.009 C 
HETATM    5  C   UNK N   1      30.698  16.535   3.761  0.00  0.00    -0.030 C 
HETATM    6  C   UNK N   1      33.039  15.893   5.146  0.00  0.00    -0.030 C 
ENDROOT
BRANCH   5   7
HETATM    7  C   UNK N   1      29.295  16.794   3.248  0.00  0.00     0.311 C 
BRANCH   7   8
HETATM    8  N   UNK N   1      28.214  16.378   4.162  0.00  0.00     0.094 N 
HETATM    9  C   UNK N   1      27.418  15.358   3.528  0.00  0.00     0.274 C 
HETATM   10  C   UNK N   1      26.417  15.949   2.559  0.00  0.00     0.046 C 
HETATM   11  C   UNK N   1      25.183  16.379   3.333  0.00  0.00     0.110 C 
HETATM   12  N   UNK N   1      25.501  17.522   4.144  0.00  0.00    -0.248 NA
HETATM   13  C   UNK N   1      24.937  18.787   3.753  0.00  0.00     0.124 C 
HETATM   14 Cu   UNK N   1      27.161  17.753   4.604  0.00  0.00     0.000 Cu
HETATM   15  C   UNK N   1      26.081  19.748   3.329  0.00  0.00     0.124 C 
HETATM   16  N   UNK N   1      27.339  19.349   3.938  0.00  0.00    -0.248 NA
HETATM   17  C   UNK N   1      27.985  20.309   4.787  0.00  0.00     0.110 C 
HETATM   18  C   UNK N   1      27.350  20.252   6.168  0.00  0.00     0.037 C 
HETATM   19  C   UNK N   1      27.845  19.031   6.929  0.00  0.00     0.143 C 
HETATM   20  N   UNK N   1      27.418  17.796   6.313  0.00  0.00    -0.328 N 
HETATM   21  C   UNK N   1      28.101  16.605   6.707  0.00  0.00     0.172 C 
HETATM   22  C   UNK N   1      28.673  15.881   5.467  0.00  0.00     0.294 C 
ENDBRANCH   7   8
ENDBRANCH   5   7
BRANCH   6  23
HETATM   23  C   UNK N   1      34.128  15.521   6.106  0.00  0.00     0.311 C 
BRANCH  23  24
HETATM   24  N   UNK N   1      33.766  14.751   7.311  0.00  0.00     0.094 N 
HETATM   25  C   UNK N   1      32.459  15.094   7.880  0.00  0.00     0.274 C 
HETATM   26  C   UNK N   1      32.529  16.272   8.893  0.00  0.00     0.046 C 
HETATM   27  C   UNK N   1      33.709  17.265   8.756  0.00  0.00     0.110 C 
HETATM   28  N   UNK N   1      34.920  16.602   9.156  0.00  0.00    -0.248 NA
HETATM   29  C   UNK N   1      35.185  16.580  10.572  0.00  0.00     0.124 C 
HETATM   30 Cu   UNK N   1      34.951  14.998   8.553  0.00  0.00     0.000 Cu
HETATM   31  C   UNK N   1      34.803  15.189  11.143  0.00  0.00     0.124 C 
HETATM   32  N   UNK N   1      34.805  14.199  10.083  0.00  0.00    -0.248 NA
HETATM   33  C   UNK N   1      35.669  13.058  10.237  0.00  0.00     0.110 C 
HETATM   34  C   UNK N   1      37.115  13.478   9.947  0.00  0.00     0.037 C 
HETATM   35  C   UNK N   1      37.409  13.822   8.475  0.00  0.00     0.143 C 
HETATM   36  N   UNK N   1      36.211  14.158   7.746  0.00  0.00    -0.328 N 
HETATM   37  C   UNK N   1      35.561  13.166   6.907  0.00  0.00     0.172 C 
HETATM   38  C   UNK N   1      33.998  13.347   7.078  0.00  0.00     0.294 C 
ENDBRANCH  23  24
ENDBRANCH   6  23
TORSDOF 4
ENDMDL
MODEL 2
REMARK VINA RESULT:      -7.9      1.756      9.669
REMARK  4 active torsions:
REMARK  status: ('A' for Active; 'I' for Inactive)
REMARK    1  A    between atoms: C_27  and  C_25 
REMARK    2  A    between atoms: N_37  and  C_25 
REMARK    3  A    between atoms: C_28  and  C_26 
REMARK    4  A    between atoms: N_38  and  C_26 
ROOT
HETATM    1  C   UNK N   1      34.556  16.188   7.135  0.00  0.00     0.009 C 
HETATM    2  C   UNK N   1      33.239  17.525   8.667  0.00  0.00     0.009 C 
HETATM    3  C   UNK N   1      33.625  16.444   6.132  0.00  0.00     0.009 C 
HETATM    4  C   UNK N   1      32.278  17.734   7.675  0.00  0.00     0.009 C 
HETATM    5  C   UNK N   1      34.343  16.686   8.421  0.00  0.00    -0.030 C 
HETATM    6  C   UNK N   1      32.450  17.144   6.418  0.00  0.00    -0.030 C 
ENDROOT
BRANCH   5   7
HETATM    7  C   UNK N   1      35.215  16.204   9.564  0.00  0.00     0.311 C 
BRANCH   7   8
HETATM    8  N   UNK N   1      34.837  14.891  10.119  0.00  0.00     0.094 N 
HETATM    9  C   UNK N   1      34.678  15.003  11.547  0.00  0.00     0.274 C 
HETATM   10  C   UNK N   1      36.010  14.961  12.265  0.00  0.00     0.046 C 
HETATM   11  C   UNK N   1      36.415  13.510  12.461  0.00  0.00     0.110 C 
HETATM   12  N   UNK N   1      36.758  12.934  11.191  0.00  0.00    -0.248 NA
HETATM   13  C   UNK N   1      38.147  12.641  10.953  0.00  0.00     0.124 C 
HETATM   14 Cu   UNK N   1      36.070  13.646   9.763  0.00  0.00     0.000 Cu
HETATM   15  C   UNK N   1      38.670  13.545   9.802  0.00  0.00     0.124 C 
HETATM   16  N   UNK N   1      37.573  13.989   8.959  0.00  0.00    -0.248 NA
HETATM   17  C   UNK N   1      37.631  13.630   7.571  0.00  0.00     0.110 C 
HETATM   18  C   UNK N   1      37.121  12.206   7.409  0.00  0.00     0.037 C 
HETATM   19  C   UNK N   1      35.603  12.173   7.501  0.00  0.00     0.143 C 
HETATM   20  N   UNK N   1      35.130  12.550   8.813  0.00  0.00    -0.328 N 
HETATM   21  C   UNK N   1      33.751  12.906   8.927  0.00  0.00     0.172 C 
HETATM   22  C   UNK N   1      33.611  14.314   9.550  0.00  0.00     0.294 C 
ENDBRANCH   7   8
ENDBRANCH   5   7
BRANCH   6  23
HETATM   23  C   UNK N   1      31.348  17.135   5.402  0.00  0.00     0.311 C 
BRANCH  23  24
HETATM   24  N   UNK N   1      30.200  16.235   5.622  0.00  0.00     0.094 N 
HETATM   25  C   UNK N   1      30.559  14.823   5.789  0.00  0.00     0.274 C 
HETATM   26  C   UNK N   1      30.649  14.057   4.438  0.00  0.00     0.046 C 
HETATM   27  C   UNK N   1      30.936  14.887   3.162  0.00  0.00     0.110 C 
HETATM   28  N   UNK N   1      29.776  15.676   2.853  0.00  0.00    -0.248 NA
HETATM   29  C   UNK N   1      28.740  15.004   2.108  0.00  0.00     0.124 C 
HETATM   30 Cu   UNK N   1      29.101  16.334   4.284  0.00  0.00     0.000 Cu
HETATM   31  C   UNK N   1      27.603  14.583   3.076  0.00  0.00     0.124 C 
HETATM   32  N   UNK N   1      27.640  15.403   4.272  0.00  0.00    -0.248 NA
HETATM   33  C   UNK N   1      26.458  16.156   4.601  0.00  0.00     0.110 C 
HETATM   34  C   UNK N   1      26.365  17.378   3.678  0.00  0.00     0.037 C 
HETATM   35  C   UNK N   1      27.433  18.460   3.924  0.00  0.00     0.143 C 
HETATM   36  N   UNK N   1      28.587  17.938   4.613  0.00  0.00    -0.328 N 
HETATM   37  C   UNK N   1      28.729  18.120   6.047  0.00  0.00     0.172 C 
HETATM   38  C   UNK N   1      29.339  16.786   6.639  0.00  0.00     0.294 C 
ENDBRANCH  23  24
ENDBRANCH   6  23
TORSDOF 4
ENDMDL
MODEL 3
REMARK VINA RESULT:      -7.8      1.414     10.001
REMARK  4 active torsions:
REMARK  status: ('A' for Active; 'I' for Inactive)
REMARK    1  A    between atoms: C_27  and  C_25 
REMARK    2  A    between atoms: N_37  and  C_25 
REMARK    3  A    between atoms: C_28  and  C_26 
REMARK    4  A    between atoms: N_38  and  C_26 
ROOT
HETATM    1  C   UNK N   1      32.056  16.987   8.316  0.00  0.00     0.009 C 
HETATM    2  C   UNK N   1      32.381  15.436   6.484  0.00  0.00     0.009 C 
HETATM    3  C   UNK N   1      30.937  17.502   7.665  0.00  0.00     0.009 C 
HETATM    4  C   UNK N   1      31.293  15.991   5.807  0.00  0.00     0.009 C 
HETATM    5  C   UNK N   1      32.812  15.985   7.707  0.00  0.00    -0.030 C 
HETATM    6  C   UNK N   1      30.603  17.065   6.380  0.00  0.00    -0.030 C 
ENDROOT
BRANCH   5   7
HETATM    7  C   UNK N   1      34.158  15.604   8.291  0.00  0.00     0.311 C 
BRANCH   7   8
HETATM    8  N   UNK N   1      34.116  14.518   9.288  0.00  0.00     0.094 N 
HETATM    9  C   UNK N   1      33.946  15.084  10.603  0.00  0.00     0.274 C 
HETATM   10  C   UNK N   1      35.254  15.596  11.167  0.00  0.00     0.046 C 
HETATM   11  C   UNK N   1      36.001  14.437  11.802  0.00  0.00     0.110 C 
HETATM   12  N   UNK N   1      36.464  13.546  10.775  0.00  0.00    -0.248 NA
HETATM   13  C   UNK N   1      37.881  13.510  10.522  0.00  0.00     0.124 C 
HETATM   14 Cu   UNK N   1      35.612  13.540   9.260  0.00  0.00     0.000 Cu
HETATM   15  C   UNK N   1      38.158  14.048   9.091  0.00  0.00     0.124 C 
HETATM   16  N   UNK N   1      36.979  13.910   8.252  0.00  0.00    -0.248 NA
HETATM   17  C   UNK N   1      37.112  13.112   7.067  0.00  0.00     0.110 C 
HETATM   18  C   UNK N   1      36.962  11.645   7.442  0.00  0.00     0.037 C 
HETATM   19  C   UNK N   1      35.499  11.304   7.680  0.00  0.00     0.143 C 
HETATM   20  N   UNK N   1      34.959  12.000   8.826  0.00  0.00    -0.328 N 
HETATM   21  C   UNK N   1      33.536  12.052   8.940  0.00  0.00     0.172 C 
HETATM   22  C   UNK N   1      33.062  13.519   9.062  0.00  0.00     0.294 C 
ENDBRANCH   7   8
ENDBRANCH   5   7
BRANCH   6  23
HETATM   23  C   UNK N   1      29.589  17.848   5.601  0.00  0.00     0.311 C 
BRANCH  23  24
HETATM   24  N   UNK N   1      28.168  17.719   5.975  0.00  0.00     0.094 N 
HETATM   25  C   UNK N   1      27.816  16.435   6.590  0.00  0.00     0.274 C 
HETATM   26  C   UNK N   1      27.438  15.346   5.547  0.00  0.00     0.046 C 
HETATM   27  C   UNK N   1      28.003  15.501   4.113  0.00  0.00     0.110 C 
HETATM   28  N   UNK N   1      27.345  16.608   3.475  0.00  0.00    -0.248 NA
HETATM   29  C   UNK N   1      26.068  16.317   2.873  0.00  0.00     0.124 C 
HETATM   30 Cu   UNK N   1      27.164  17.911   4.573  0.00  0.00     0.000 Cu
HETATM   31  C   UNK N   1      24.935  16.807   3.813  0.00  0.00     0.124 C 
HETATM   32  N   UNK N   1      25.439  17.833   4.705  0.00  0.00    -0.248 NA
HETATM   33  C   UNK N   1      24.787  19.117   4.682  0.00  0.00     0.110 C 
HETATM   34  C   UNK N   1      25.231  19.885   3.430  0.00  0.00     0.037 C 
HETATM   35  C   UNK N   1      26.701  20.345   3.438  0.00  0.00     0.143 C 
HETATM   36  N   UNK N   1      27.506  19.579   4.355  0.00  0.00    -0.328 N 
HETATM   37  C   UNK N   1      27.813  20.102   5.675  0.00  0.00     0.172 C 
HETATM   38  C   UNK N   1      27.745  18.895   6.695  0.00  0.00     0.294 C 
ENDBRANCH  23  24
ENDBRANCH   6  23
TORSDOF 4
ENDMDL
MODEL 4
REMARK VINA RESULT:      -7.7      4.002     11.205
REMARK  4 active torsions:
REMARK  status: ('A' for Active; 'I' for Inactive)
REMARK    1  A    between atoms: C_27  and  C_25 
REMARK    2  A    between atoms: N_37  and  C_25 
REMARK    3  A    between atoms: C_28  and  C_26 
REMARK    4  A    between atoms: N_38  and  C_26 
ROOT
HETATM    1  C   UNK N   1      36.953  13.166  10.971  0.00  0.00     0.009 C 
HETATM    2  C   UNK N   1      36.085  14.925  12.394  0.00  0.00     0.009 C 
HETATM    3  C   UNK N   1      36.591  13.911   9.851  0.00  0.00     0.009 C 
HETATM    4  C   UNK N   1      35.672  15.644  11.270  0.00  0.00     0.009 C 
HETATM    5  C   UNK N   1      36.658  13.646  12.248  0.00  0.00    -0.030 C 
HETATM    6  C   UNK N   1      35.881  15.107   9.995  0.00  0.00    -0.030 C 
ENDROOT
BRANCH   5   7
HETATM    7  C   UNK N   1      36.820  12.733  13.447  0.00  0.00     0.311 C 
BRANCH   7   8
HETATM    8  N   UNK N   1      35.581  12.066  13.889  0.00  0.00     0.094 N 
HETATM    9  C   UNK N   1      35.017  12.794  14.998  0.00  0.00     0.274 C 
HETATM   10  C   UNK N   1      35.706  12.454  16.302  0.00  0.00     0.046 C 
HETATM   11  C   UNK N   1      35.087  11.187  16.867  0.00  0.00     0.110 C 
HETATM   12  N   UNK N   1      35.460  10.067  16.048  0.00  0.00    -0.248 NA
HETATM   13  C   UNK N   1      36.390   9.121  16.607  0.00  0.00     0.124 C 
HETATM   14 Cu   UNK N   1      35.886  10.378  14.392  0.00  0.00     0.000 Cu
HETATM   15  C   UNK N   1      37.711   9.159  15.791  0.00  0.00     0.124 C 
HETATM   16  N   UNK N   1      37.472   9.667  14.450  0.00  0.00    -0.248 NA
HETATM   17  C   UNK N   1      37.806   8.801  13.356  0.00  0.00     0.110 C 
HETATM   18  C   UNK N   1      36.664   7.820  13.138  0.00  0.00     0.037 C 
HETATM   19  C   UNK N   1      35.504   8.503  12.431  0.00  0.00     0.143 C 
HETATM   20  N   UNK N   1      34.906   9.537  13.243  0.00  0.00    -0.328 N 
HETATM   21  C   UNK N   1      34.065  10.480  12.576  0.00  0.00     0.172 C 
HETATM   22  C   UNK N   1      34.556  11.920  12.846  0.00  0.00     0.294 C 
ENDBRANCH   7   8
ENDBRANCH   5   7
BRANCH   6  23
HETATM   23  C   UNK N   1      35.253  15.715   8.778  0.00  0.00     0.311 C 
BRANCH  23  24
HETATM   24  N   UNK N   1      33.782  15.807   8.722  0.00  0.00     0.094 N 
HETATM   25  C   UNK N   1      33.080  14.805   9.530  0.00  0.00     0.274 C 
HETATM   26  C   UNK N   1      32.829  13.475   8.763  0.00  0.00     0.046 C 
HETATM   27  C   UNK N   1      33.775  13.140   7.584  0.00  0.00     0.110 C 
HETATM   28  N   UNK N   1      33.497  14.038   6.498  0.00  0.00    -0.248 NA
HETATM   29  C   UNK N   1      32.399  13.665   5.641  0.00  0.00     0.124 C 
HETATM   30 Cu   UNK N   1      33.236  15.626   7.086  0.00  0.00     0.000 Cu
HETATM   31  C   UNK N   1      31.147  14.500   6.019  0.00  0.00     0.124 C 
HETATM   32  N   UNK N   1      31.548  15.714   6.704  0.00  0.00    -0.248 NA
HETATM   33  C   UNK N   1      31.138  16.970   6.131  0.00  0.00     0.110 C 
HETATM   34  C   UNK N   1      32.017  17.279   4.913  0.00  0.00     0.037 C 
HETATM   35  C   UNK N   1      33.484  17.616   5.240  0.00  0.00     0.143 C 
HETATM   36  N   UNK N   1      33.882  17.116   6.532  0.00  0.00    -0.328 N 
HETATM   37  C   UNK N   1      33.901  18.000   7.685  0.00  0.00     0.172 C 
HETATM   38  C   UNK N   1      33.372  17.174   8.927  0.00  0.00     0.294 C 
ENDBRANCH  23  24
ENDBRANCH   6  23
TORSDOF 4
ENDMDL
MODEL 5
REMARK VINA RESULT:      -7.6      1.583      9.943
REMARK  4 active torsions:
REMARK  status: ('A' for Active; 'I' for Inactive)
REMARK    1  A    between atoms: C_27  and  C_25 
REMARK    2  A    between atoms: N_37  and  C_25 
REMARK    3  A    between atoms: C_28  and  C_26 
REMARK    4  A    between atoms: N_38  and  C_26 
ROOT
HETATM    1  C   UNK N   1      32.007  14.914   6.480  0.00  0.00     0.009 C 
HETATM    2  C   UNK N   1      31.787  16.457   8.334  0.00  0.00     0.009 C 
HETATM    3  C   UNK N   1      31.247  15.774   5.691  0.00  0.00     0.009 C 
HETATM    4  C   UNK N   1      30.978  17.291   7.559  0.00  0.00     0.009 C 
HETATM    5  C   UNK N   1      32.240  15.227   7.820  0.00  0.00    -0.030 C 
HETATM    6  C   UNK N   1      30.666  16.917   6.246  0.00  0.00    -0.030 C 
ENDROOT
BRANCH   5   7
HETATM    7  C   UNK N   1      32.844  14.183   8.738  0.00  0.00     0.311 C 
BRANCH   7   8
HETATM    8  N   UNK N   1      34.188  14.513   9.250  0.00  0.00     0.094 N 
HETATM    9  C   UNK N   1      34.918  15.240   8.242  0.00  0.00     0.274 C 
HETATM   10  C   UNK N   1      35.506  14.315   7.198  0.00  0.00     0.046 C 
HETATM   11  C   UNK N   1      36.828  13.773   7.712  0.00  0.00     0.110 C 
HETATM   12  N   UNK N   1      36.582  12.860   8.794  0.00  0.00    -0.248 NA
HETATM   13  C   UNK N   1      36.817  11.462   8.543  0.00  0.00     0.124 C 
HETATM   14 Cu   UNK N   1      35.104  13.041   9.689  0.00  0.00     0.000 Cu
HETATM   15  C   UNK N   1      35.468  10.695   8.624  0.00  0.00     0.124 C 
HETATM   16  N   UNK N   1      34.507  11.429   9.430  0.00  0.00    -0.248 NA
HETATM   17  C   UNK N   1      33.988  10.764  10.591  0.00  0.00     0.110 C 
HETATM   18  C   UNK N   1      34.987  10.910  11.729  0.00  0.00     0.037 C 
HETATM   19  C   UNK N   1      34.916  12.309  12.323  0.00  0.00     0.143 C 
HETATM   20  N   UNK N   1      35.334  13.320  11.379  0.00  0.00    -0.328 N 
HETATM   21  C   UNK N   1      34.977  14.671  11.677  0.00  0.00     0.172 C 
HETATM   22  C   UNK N   1      34.196  15.291  10.496  0.00  0.00     0.294 C 
ENDBRANCH   7   8
ENDBRANCH   5   7
BRANCH   6  23
HETATM   23  C   UNK N   1      29.621  17.644   5.455  0.00  0.00     0.311 C 
BRANCH  23  24
HETATM   24  N   UNK N   1      28.210  17.501   5.861  0.00  0.00     0.094 N 
HETATM   25  C   UNK N   1      27.871  16.190   6.424  0.00  0.00     0.274 C 
HETATM   26  C   UNK N   1      27.459  15.153   5.341  0.00  0.00     0.046 C 
HETATM   27  C   UNK N   1      27.984  15.376   3.901  0.00  0.00     0.110 C 
HETATM   28  N   UNK N   1      27.313  16.514   3.335  0.00  0.00    -0.248 NA
HETATM   29  C   UNK N   1      26.018  16.256   2.757  0.00  0.00     0.124 C 
HETATM   30 Cu   UNK N   1      27.169  17.763   4.499  0.00  0.00     0.000 Cu
HETATM   31  C   UNK N   1      24.914  16.704   3.750  0.00  0.00     0.124 C 
HETATM   32  N   UNK N   1      25.447  17.684   4.676  0.00  0.00    -0.248 NA
HETATM   33  C   UNK N   1      24.801  18.970   4.733  0.00  0.00     0.110 C 
HETATM   34  C   UNK N   1      25.212  19.795   3.508  0.00  0.00     0.037 C 
HETATM   35  C   UNK N   1      26.684  20.251   3.496  0.00  0.00     0.143 C 
HETATM   36  N   UNK N   1      27.511  19.439   4.352  0.00  0.00    -0.328 N 
HETATM   37  C   UNK N   1      27.857  19.897   5.687  0.00  0.00     0.172 C 
HETATM   38  C   UNK N   1      27.813  18.642   6.649  0.00  0.00     0.294 C 
ENDBRANCH  23  24
ENDBRANCH   6  23
TORSDOF 4
ENDMDL
MODEL 6
REMARK VINA RESULT:      -7.4      3.399      6.156
REMARK  4 active torsions:
REMARK  status: ('A' for Active; 'I' for Inactive)
REMARK    1  A    between atoms: C_27  and  C_25 
REMARK    2  A    between atoms: N_37  and  C_25 
REMARK    3  A    between atoms: C_28  and  C_26 
REMARK    4  A    between atoms: N_38  and  C_26 
ROOT
HETATM    1  C   UNK N   1      25.595  15.899   5.629  0.00  0.00     0.009 C 
HETATM    2  C   UNK N   1      26.217  16.965   3.545  0.00  0.00     0.009 C 
HETATM    3  C   UNK N   1      26.939  15.850   5.990  0.00  0.00     0.009 C 
HETATM    4  C   UNK N   1      27.568  16.863   3.884  0.00  0.00     0.009 C 
HETATM    5  C   UNK N   1      25.231  16.411   4.384  0.00  0.00    -0.030 C 
HETATM    6  C   UNK N   1      27.930  16.254   5.091  0.00  0.00    -0.030 C 
ENDROOT
BRANCH   5   7
HETATM    7  C   UNK N   1      23.808  16.235   3.889  0.00  0.00     0.311 C 
BRANCH   7   8
HETATM    8  N   UNK N   1      22.840  17.208   4.430  0.00  0.00     0.094 N 
HETATM    9  C   UNK N   1      22.817  17.111   5.868  0.00  0.00     0.274 C 
HETATM   10  C   UNK N   1      21.965  15.951   6.338  0.00  0.00     0.046 C 
HETATM   11  C   UNK N   1      20.514  16.396   6.381  0.00  0.00     0.110 C 
HETATM   12  N   UNK N   1      20.029  16.578   5.041  0.00  0.00    -0.248 NA
HETATM   13  C   UNK N   1      19.074  15.621   4.548  0.00  0.00     0.124 C 
HETATM   14 Cu   UNK N   1      21.193  16.919   3.796  0.00  0.00     0.000 Cu
HETATM   15  C   UNK N   1      19.709  14.823   3.375  0.00  0.00     0.124 C 
HETATM   16  N   UNK N   1      20.787  15.582   2.762  0.00  0.00    -0.248 NA
HETATM   17  C   UNK N   1      20.653  15.893   1.368  0.00  0.00     0.110 C 
HETATM   18  C   UNK N   1      19.765  17.120   1.220  0.00  0.00     0.037 C 
HETATM   19  C   UNK N   1      20.539  18.381   1.574  0.00  0.00     0.143 C 
HETATM   20  N   UNK N   1      20.921  18.411   2.967  0.00  0.00    -0.328 N 
HETATM   21  C   UNK N   1      21.940  19.339   3.339  0.00  0.00     0.172 C 
HETATM   22  C   UNK N   1      23.099  18.605   4.053  0.00  0.00     0.294 C 
ENDBRANCH   7   8
ENDBRANCH   5   7
BRANCH   6  23
HETATM   23  C   UNK N   1      29.356  15.907   5.395  0.00  0.00     0.311 C 
BRANCH  23  24
HETATM   24  N   UNK N   1      30.319  17.008   5.586  0.00  0.00     0.094 N 
HETATM   25  C   UNK N   1      30.688  17.712   4.354  0.00  0.00     0.274 C 
HETATM   26  C   UNK N   1      31.888  17.053   3.615  0.00  0.00     0.046 C 
HETATM   27  C   UNK N   1      32.148  15.548   3.873  0.00  0.00     0.110 C 
HETATM   28  N   UNK N   1      32.641  15.386   5.213  0.00  0.00    -0.248 NA
HETATM   29  C   UNK N   1      34.056  15.597   5.391  0.00  0.00     0.124 C 
HETATM   30 Cu   UNK N   1      31.782  16.402   6.293  0.00  0.00     0.000 Cu
HETATM   31  C   UNK N   1      34.293  17.009   5.987  0.00  0.00     0.124 C 
HETATM   32  N   UNK N   1      33.094  17.473   6.659  0.00  0.00    -0.248 NA
HETATM   33  C   UNK N   1      33.202  17.819   8.052  0.00  0.00     0.110 C 
HETATM   34  C   UNK N   1      33.262  16.534   8.888  0.00  0.00     0.037 C 
HETATM   35  C   UNK N   1      31.953  15.723   8.927  0.00  0.00     0.143 C 
HETATM   36  N   UNK N   1      31.086  16.035   7.818  0.00  0.00    -0.328 N 
HETATM   37  C   UNK N   1      29.981  16.962   7.990  0.00  0.00     0.172 C 
HETATM   38  C   UNK N   1      29.890  17.844   6.679  0.00  0.00     0.294 C 
ENDBRANCH  23  24
ENDBRANCH   6  23
TORSDOF 4
ENDMDL
MODEL 7
REMARK VINA RESULT:      -7.4      3.142     10.291
REMARK  4 active torsions:
REMARK  status: ('A' for Active; 'I' for Inactive)
REMARK    1  A    between atoms: C_27  and  C_25 
REMARK    2  A    between atoms: N_37  and  C_25 
REMARK    3  A    between atoms: C_28  and  C_26 
REMARK    4  A    between atoms: N_38  and  C_26 
ROOT
HETATM    1  C   UNK N   1      27.856  16.894   3.579  0.00  0.00     0.009 C 
HETATM    2  C   UNK N   1      27.553  18.785   5.062  0.00  0.00     0.009 C 
HETATM    3  C   UNK N   1      26.496  16.925   3.281  0.00  0.00     0.009 C 
HETATM    4  C   UNK N   1      26.180  18.779   4.807  0.00  0.00     0.009 C 
HETATM    5  C   UNK N   1      28.383  17.792   4.507  0.00  0.00    -0.030 C 
HETATM    6  C   UNK N   1      25.645  17.809   3.952  0.00  0.00    -0.030 C 
ENDROOT
BRANCH   5   7
HETATM    7  C   UNK N   1      29.798  17.597   5.016  0.00  0.00     0.311 C 
BRANCH   7   8
HETATM    8  N   UNK N   1      29.965  16.487   5.973  0.00  0.00     0.094 N 
HETATM    9  C   UNK N   1      29.097  16.697   7.104  0.00  0.00     0.274 C 
HETATM   10  C   UNK N   1      29.688  17.682   8.090  0.00  0.00     0.046 C 
HETATM   11  C   UNK N   1      30.644  16.940   9.009  0.00  0.00     0.110 C 
HETATM   12  N   UNK N   1      31.810  16.546   8.267  0.00  0.00    -0.248 NA
HETATM   13  C   UNK N   1      33.041  17.232   8.561  0.00  0.00     0.124 C 
HETATM   14 Cu   UNK N   1      31.654  16.362   6.547  0.00  0.00     0.000 Cu
HETATM   15  C   UNK N   1      33.483  18.046   7.314  0.00  0.00     0.124 C 
HETATM   16  N   UNK N   1      32.902  17.488   6.104  0.00  0.00    -0.248 NA
HETATM   17  C   UNK N   1      33.813  17.040   5.090  0.00  0.00     0.110 C 
HETATM   18  C   UNK N   1      34.299  15.643   5.447  0.00  0.00     0.037 C 
HETATM   19  C   UNK N   1      33.224  14.612   5.139  0.00  0.00     0.143 C 
HETATM   20  N   UNK N   1      32.054  14.782   5.969  0.00  0.00    -0.328 N 
HETATM   21  C   UNK N   1      30.857  14.129   5.544  0.00  0.00     0.172 C 
HETATM   22  C   UNK N   1      29.705  15.152   5.416  0.00  0.00     0.294 C 
ENDBRANCH   7   8
ENDBRANCH   5   7
BRANCH   6  23
HETATM   23  C   UNK N   1      24.165  17.606   3.829  0.00  0.00     0.311 C 
BRANCH  23  24
HETATM   24  N   UNK N   1      23.446  16.992   4.961  0.00  0.00     0.094 N 
HETATM   25  C   UNK N   1      24.260  16.083   5.775  0.00  0.00     0.274 C 
HETATM   26  C   UNK N   1      24.259  14.623   5.238  0.00  0.00     0.046 C 
HETATM   27  C   UNK N   1      23.956  14.414   3.734  0.00  0.00     0.110 C 
HETATM   28  N   UNK N   1      22.568  14.701   3.498  0.00  0.00    -0.248 NA
HETATM   29  C   UNK N   1      21.649  13.624   3.769  0.00  0.00     0.124 C 
HETATM   30 Cu   UNK N   1      22.085  16.087   4.382  0.00  0.00     0.000 Cu
HETATM   31  C   UNK N   1      20.969  13.863   5.142  0.00  0.00     0.124 C 
HETATM   32  N   UNK N   1      21.032  15.270   5.490  0.00  0.00    -0.248 NA
HETATM   33  C   UNK N   1      19.789  15.953   5.735  0.00  0.00     0.110 C 
HETATM   34  C   UNK N   1      19.099  16.239   4.395  0.00  0.00     0.037 C 
HETATM   35  C   UNK N   1      19.799  17.292   3.516  0.00  0.00     0.143 C 
HETATM   36  N   UNK N   1      21.188  17.456   3.864  0.00  0.00    -0.328 N 
HETATM   37  C   UNK N   1      21.605  18.556   4.717  0.00  0.00     0.172 C 
HETATM   38  C   UNK N   1      22.727  18.007   5.689  0.00  0.00     0.294 C 
ENDBRANCH  23  24
ENDBRANCH   6  23
TORSDOF 4
ENDMDL
MODEL 8
REMARK VINA RESULT:      -7.4      3.291      6.051
REMARK  4 active torsions:
REMARK  status: ('A' for Active; 'I' for Inactive)
REMARK    1  A    between atoms: C_27  and  C_25 
REMARK    2  A    between atoms: N_37  and  C_25 
REMARK    3  A    between atoms: C_28  and  C_26 
REMARK    4  A    between atoms: N_38  and  C_26 
ROOT
HETATM    1  C   UNK N   1      26.021  14.074   3.516  0.00  0.00     0.009 C 
HETATM    2  C   UNK N   1      25.270  16.031   4.731  0.00  0.00     0.009 C 
HETATM    3  C   UNK N   1      27.200  14.083   4.256  0.00  0.00     0.009 C 
HETATM    4  C   UNK N   1      26.477  16.071   5.433  0.00  0.00     0.009 C 
HETATM    5  C   UNK N   1      25.071  15.076   3.715  0.00  0.00    -0.030 C 
HETATM    6  C   UNK N   1      27.466  15.121   5.153  0.00  0.00    -0.030 C 
ENDROOT
BRANCH   5   7
HETATM    7  C   UNK N   1      23.914  15.214   2.745  0.00  0.00     0.311 C 
BRANCH   7   8
HETATM    8  N   UNK N   1      22.618  14.723   3.253  0.00  0.00     0.094 N 
HETATM    9  C   UNK N   1      21.907  14.063   2.188  0.00  0.00     0.274 C 
HETATM   10  C   UNK N   1      21.213  15.053   1.277  0.00  0.00     0.046 C 
HETATM   11  C   UNK N   1      19.875  15.427   1.890  0.00  0.00     0.110 C 
HETATM   12  N   UNK N   1      20.093  16.226   3.064  0.00  0.00    -0.248 NA
HETATM   13  C   UNK N   1      19.747  17.621   2.986  0.00  0.00     0.124 C 
HETATM   14 Cu   UNK N   1      21.614  16.059   3.888  0.00  0.00     0.000 Cu
HETATM   15  C   UNK N   1      21.037  18.476   3.118  0.00  0.00     0.124 C 
HETATM   16  N   UNK N   1      22.080  17.732   3.804  0.00  0.00    -0.248 NA
HETATM   17  C   UNK N   1      22.591  18.297   5.020  0.00  0.00     0.110 C 
HETATM   18  C   UNK N   1      21.649  17.944   6.161  0.00  0.00     0.037 C 
HETATM   19  C   UNK N   1      21.845  16.496   6.583  0.00  0.00     0.143 C 
HETATM   20  N   UNK N   1      21.469  15.570   5.540  0.00  0.00    -0.328 N 
HETATM   21  C   UNK N   1      21.935  14.226   5.667  0.00  0.00     0.172 C 
HETATM   22  C   UNK N   1      22.716  13.808   4.399  0.00  0.00     0.294 C 
ENDBRANCH   7   8
ENDBRANCH   5   7
BRANCH   6  23
HETATM   23  C   UNK N   1      28.856  15.257   5.697  0.00  0.00     0.311 C 
BRANCH  23  24
HETATM   24  N   UNK N   1      29.690  16.374   5.215  0.00  0.00     0.094 N 
HETATM   25  C   UNK N   1      29.267  16.935   3.928  0.00  0.00     0.274 C 
HETATM   26  C   UNK N   1      29.895  16.199   2.710  0.00  0.00     0.046 C 
HETATM   27  C   UNK N   1      30.350  14.734   2.917  0.00  0.00     0.110 C 
HETATM   28  N   UNK N   1      31.514  14.725   3.760  0.00  0.00    -0.248 NA
HETATM   29  C   UNK N   1      32.772  14.957   3.097  0.00  0.00     0.124 C 
HETATM   30 Cu   UNK N   1      31.335  15.855   5.036  0.00  0.00     0.000 Cu
HETATM   31  C   UNK N   1      33.209  16.429   3.325  0.00  0.00     0.124 C 
HETATM   32  N   UNK N   1      32.557  16.963   4.506  0.00  0.00    -0.248 NA
HETATM   33  C   UNK N   1      33.397  17.464   5.562  0.00  0.00     0.110 C 
HETATM   34  C   UNK N   1      33.994  16.282   6.336  0.00  0.00     0.037 C 
HETATM   35  C   UNK N   1      32.983  15.478   7.175  0.00  0.00     0.143 C 
HETATM   36  N   UNK N   1      31.628  15.661   6.716  0.00  0.00    -0.328 N 
HETATM   37  C   UNK N   1      30.747  16.600   7.389  0.00  0.00     0.172 C 
HETATM   38  C   UNK N   1      29.887  17.328   6.278  0.00  0.00     0.294 C 
ENDBRANCH  23  24
ENDBRANCH   6  23
TORSDOF 4
ENDMDL
MODEL 9
REMARK VINA RESULT:      -7.4      3.200      5.447
REMARK  4 active torsions:
REMARK  status: ('A' for Active; 'I' for Inactive)
REMARK    1  A    between atoms: C_27  and  C_25 
REMARK    2  A    between atoms: N_37  and  C_25 
REMARK    3  A    between atoms: C_28  and  C_26 
REMARK    4  A    between atoms: N_38  and  C_26 
ROOT
HETATM    1  C   UNK N   1      25.881  16.610   2.784  0.00  0.00     0.009 C 
HETATM    2  C   UNK N   1      27.172  14.749   1.926  0.00  0.00     0.009 C 
HETATM    3  C   UNK N   1      27.026  17.102   3.405  0.00  0.00     0.009 C 
HETATM    4  C   UNK N   1      28.306  15.214   2.596  0.00  0.00     0.009 C 
HETATM    5  C   UNK N   1      25.936  15.405   2.082  0.00  0.00    -0.030 C 
HETATM    6  C   UNK N   1      28.215  16.368   3.382  0.00  0.00    -0.030 C 
ENDROOT
BRANCH   5   7
HETATM    7  C   UNK N   1      24.650  14.746   1.625  0.00  0.00     0.311 C 
BRANCH   7   8
HETATM    8  N   UNK N   1      23.996  13.896   2.637  0.00  0.00     0.094 N 
HETATM    9  C   UNK N   1      23.408  12.749   1.991  0.00  0.00     0.274 C 
HETATM   10  C   UNK N   1      22.074  13.083   1.360  0.00  0.00     0.046 C 
HETATM   11  C   UNK N   1      20.993  12.992   2.423  0.00  0.00     0.110 C 
HETATM   12  N   UNK N   1      21.145  14.075   3.354  0.00  0.00    -0.248 NA
HETATM   13  C   UNK N   1      20.155  15.119   3.320  0.00  0.00     0.124 C 
HETATM   14 Cu   UNK N   1      22.722  14.787   3.521  0.00  0.00     0.000 Cu
HETATM   15  C   UNK N   1      20.826  16.446   2.869  0.00  0.00     0.124 C 
HETATM   16  N   UNK N   1      22.254  16.417   3.139  0.00  0.00    -0.248 NA
HETATM   17  C   UNK N   1      22.772  17.433   4.010  0.00  0.00     0.110 C 
HETATM   18  C   UNK N   1      22.536  17.012   5.453  0.00  0.00     0.037 C 
HETATM   19  C   UNK N   1      23.539  15.945   5.866  0.00  0.00     0.143 C 
HETATM   20  N   UNK N   1      23.360  14.717   5.126  0.00  0.00    -0.328 N 
HETATM   21  C   UNK N   1      24.439  13.781   5.153  0.00  0.00     0.172 C 
HETATM   22  C   UNK N   1      24.882  13.432   3.714  0.00  0.00     0.294 C 
ENDBRANCH   7   8
ENDBRANCH   5   7
BRANCH   6  23
HETATM   23  C   UNK N   1      29.324  16.776   4.304  0.00  0.00     0.311 C 
BRANCH  23  24
HETATM   24  N   UNK N   1      29.464  16.063   5.588  0.00  0.00     0.094 N 
HETATM   25  C   UNK N   1      28.197  15.606   6.169  0.00  0.00     0.274 C 
HETATM   26  C   UNK N   1      27.516  16.681   7.063  0.00  0.00     0.046 C 
HETATM   27  C   UNK N   1      27.867  18.165   6.791  0.00  0.00     0.110 C 
HETATM   28  N   UNK N   1      29.221  18.404   7.208  0.00  0.00    -0.248 NA
HETATM   29  C   UNK N   1      29.406  18.682   8.611  0.00  0.00     0.124 C 
HETATM   30 Cu   UNK N   1      30.227  17.091   6.759  0.00  0.00     0.000 Cu
HETATM   31  C   UNK N   1      29.921  17.404   9.323  0.00  0.00     0.124 C 
HETATM   32  N   UNK N   1      30.547  16.516   8.362  0.00  0.00    -0.248 NA
HETATM   33  C   UNK N   1      31.918  16.144   8.592  0.00  0.00     0.110 C 
HETATM   34  C   UNK N   1      32.830  17.318   8.212  0.00  0.00     0.037 C 
HETATM   35  C   UNK N   1      32.899  17.625   6.704  0.00  0.00     0.143 C 
HETATM   36  N   UNK N   1      31.761  17.103   5.990  0.00  0.00    -0.328 N 
HETATM   37  C   UNK N   1      31.861  15.843   5.273  0.00  0.00     0.172 C 
HETATM   38  C   UNK N   1      30.499  15.066   5.481  0.00  0.00     0.294 C 
ENDBRANCH  23  24
ENDBRANCH   6  23
TORSDOF 4
ENDMDL
