REMARK  8 active torsions:
REMARK  status: ('A' for Active; 'I' for Inactive)
REMARK    1  A    between atoms: C_17  and  C_14 
REMARK    2  A    between atoms: C_22  and  C_14 
REMARK    3  A    between atoms: C_18  and  C_15 
REMARK    4  A    between atoms: C_26  and  C_15 
REMARK    5  A    between atoms: C_23  and  C_19 
REMARK    6  A    between atoms: O_32  and  C_21 
REMARK    7  A    between atoms: C_26  and  O_35 
REMARK    8  A    between atoms: O_35  and  O_34 
ROOT
HETATM    1  C   UNK N   1       1.906  -0.082   0.191  0.00  0.00     0.131 A 
HETATM    2  C   UNK N   1       1.807   2.784  -0.514  0.00  0.00     0.154 A 
HETATM    3  C   UNK N   1       3.054   0.592  -0.017  0.00  0.00     0.055 A 
HETATM    4  C   UNK N   1       0.589   1.933  -0.323  0.00  0.00     0.112 A 
HETATM    5  C   UNK N   1      -0.563   0.149   0.196  0.00  0.00     0.288 A 
HETATM    6  C   UNK N   1      -1.565   1.236  -0.171  0.00  0.00     0.255 A 
HETATM    7  N   UNK N   1       3.018   1.989  -0.341  0.00  0.00    -0.376 N 
HETATM    8  N   UNK N   1      -0.628   2.324  -0.466  0.00  0.00    -0.336 N 
ATOM      9  HN  UNK N   1      -0.904   3.265  -0.748  1.00  0.00     0.164 HD
HETATM   10  N   UNK N   1       0.679   0.608   0.055  0.00  0.00    -0.274 N 
HETATM   11  O   UNK N   1      -0.830  -0.995   0.533  0.00  0.00    -0.267 OA
HETATM   12  H   UNK N   1       3.881   2.448  -0.456  0.00  0.00     0.160 HD
ENDROOT
BRANCH   6  13
HETATM   13  C   UNK N   1      -2.461   1.676   1.008  0.00  0.00     0.113 C 
BRANCH  13  14
HETATM   14  C   UNK N   1      -3.929   1.799   0.709  0.00  0.00    -0.053 A 
HETATM   15  C   UNK N   1      -4.396   2.581  -0.360  0.00  0.00     0.009 A 
HETATM   16  C   UNK N   1      -5.767   2.643  -0.637  0.00  0.00     0.019 A 
HETATM   17  C   UNK N   1      -6.673   1.939   0.163  0.00  0.00     0.011 A 
HETATM   18  C   UNK N   1      -6.211   1.180   1.240  0.00  0.00     0.019 A 
HETATM   19 Br   UNK N   1      -8.539   2.003  -0.219  0.00  0.00    -0.051 Br
HETATM   20  C   UNK N   1      -4.842   1.107   1.509  0.00  0.00     0.009 A 
ENDBRANCH  13  14
ENDBRANCH   6  13
BRANCH   6  21
HETATM   21  O   UNK N   1      -2.279   0.904  -1.345  0.00  0.00    -0.199 OA
BRANCH  21  22
HETATM   22  O   UNK N   1      -2.934  -0.220  -1.106  0.00  0.00    -0.247 OA
HETATM   23  H   UNK N   1      -3.888  -0.216  -0.932  0.00  0.00     0.253 HD
ENDBRANCH  21  22
ENDBRANCH   6  21
BRANCH   2  24
HETATM   24  C   UNK N   1       1.788   3.917   0.513  0.00  0.00     0.071 C 
BRANCH  24  25
HETATM   25  C   UNK N   1       2.884   4.917   0.307  0.00  0.00    -0.056 A 
HETATM   26  C   UNK N   1       2.554   6.248   0.037  0.00  0.00     0.007 A 
HETATM   27  C   UNK N   1       3.565   7.195  -0.156  0.00  0.00     0.001 A 
HETATM   28  C   UNK N   1       4.907   6.812  -0.080  0.00  0.00     0.000 A 
HETATM   29  C   UNK N   1       5.241   5.483   0.197  0.00  0.00     0.001 A 
HETATM   30  C   UNK N   1       4.231   4.538   0.396  0.00  0.00     0.007 A 
ENDBRANCH  24  25
ENDBRANCH   2  24
BRANCH   3  31
HETATM   31  C   UNK N   1       4.366  -0.094   0.041  0.00  0.00    -0.008 A 
HETATM   32  C   UNK N   1       4.457  -1.489   0.180  0.00  0.00     0.016 A 
HETATM   33  C   UNK N   1       5.707  -2.117   0.186  0.00  0.00     0.037 A 
HETATM   34  C   UNK N   1       6.874  -1.357   0.061  0.00  0.00     0.065 A 
HETATM   35  C   UNK N   1       6.792   0.031  -0.069  0.00  0.00     0.037 A 
HETATM   36  C   UNK N   1       5.544   0.658  -0.086  0.00  0.00     0.016 A 
BRANCH  34  37
HETATM   37  O   UNK N   1       8.074  -1.960   0.066  0.00  0.00    -0.361 OA
HETATM   38  H   UNK N   1       8.128  -2.895   0.069  0.00  0.00     0.217 HD
ENDBRANCH  34  37
ENDBRANCH   3  31
TORSDOF 8
