REMARK  6 active torsions:
REMARK  status: ('A' for Active; 'I' for Inactive)
REMARK    1  A    between atoms: C_2  and  N_1 
REMARK    2  A    between atoms: C_2  and  C_3 
REMARK    3  A    between atoms: C_2  and  C_10 
REMARK    4  A    between atoms: C_3  and  C_4 
REMARK    5  A    between atoms: C_4  and  C_5 
REMARK    6  A    between atoms: C_5  and  N_6 
REMARK       I    between atoms: N_6  and  C_7 
REMARK       I    between atoms: C_7  and  N_8 
REMARK       I    between atoms: C_10  and  N_11 
ROOT
HETATM    1  C   UNK N   1       5.589   2.439  -0.011  0.00  0.00     0.023 C 
ENDROOT
BRANCH   1   2
HETATM    2  C   UNK N   1       6.893   3.020   0.519  0.00  0.00     0.036 C 
BRANCH   2   3
HETATM    3  C   UNK N   1       8.079   2.682  -0.374  0.00  0.00     0.167 C 
BRANCH   3   4
HETATM    4  N   UNK N   1       9.086   3.722  -0.224  0.00  0.00    -0.418 N 
HETATM    5  H   UNK N   1      10.070   3.475  -0.118  0.00  0.00     0.150 HD
HETATM    6  H   UNK N   1       8.807   4.703  -0.224  0.00  0.00     0.150 HD
ENDBRANCH   3   4
BRANCH   3   7
HETATM    7  C   UNK N   1       8.660   1.327  -0.050  0.00  0.00     0.237 C 
HETATM    8  N   UNK N   1       9.959   1.199   0.295  0.00  0.00    -0.368 N 
HETATM    9  H   UNK N   1      10.351   0.331   0.546  0.00  0.00     0.159 HD
HETATM   10  H   UNK N   1      10.533   1.999   0.295  0.00  0.00     0.159 HD
HETATM   11  O   UNK N   1       7.958   0.332  -0.123  0.00  0.00    -0.271 OA
ENDBRANCH   3   7
ENDBRANCH   2   3
ENDBRANCH   1   2
BRANCH   1  12
HETATM   12  C   UNK N   1       4.534   3.537   0.059  0.00  0.00     0.138 C 
BRANCH  12  13
HETATM   13  N   UNK N   1       3.144   3.116  -0.033  0.00  0.00    -0.227 N 
HETATM   14  C   UNK N   1       2.611   1.794  -0.032  0.00  0.00     0.665 C 
HETATM   15  N   UNK N   1       1.212   1.616  -0.062  0.00  0.00    -0.235 N 
HETATM   16  N   UNK N   1       3.374   0.765   0.035  0.00  0.00    -0.235 N 
HETATM   17  H   UNK N   1       0.616   2.400  -0.083  0.00  0.00     0.174 HD
HETATM   18  H   UNK N   1       0.831   0.708  -0.062  0.00  0.00     0.174 HD
HETATM   19  H   UNK N   1       2.983  -0.137   0.087  0.00  0.00     0.174 HD
HETATM   20  H   UNK N   1       4.352   0.878   0.035  0.00  0.00     0.174 HD
HETATM   21  H   UNK N   1       2.483   3.842  -0.106  0.00  0.00     0.177 HD
ENDBRANCH  12  13
ENDBRANCH   1  12
TORSDOF 6
