MODEL 1
REMARK VINA RESULT:      -7.3      0.000      0.000
REMARK  15 active torsions:
REMARK  status: ('A' for Active; 'I' for Inactive)
REMARK    1  A    between atoms: C_3  and  C_1 
REMARK    2  A    between atoms: O_30  and  C_1 
REMARK    3  A    between atoms: C_5  and  O_20 
REMARK    4  A    between atoms: C_6  and  O_21 
REMARK    5  A    between atoms: O_22  and  C_8 
REMARK    6  A    between atoms: C_9  and  N_19 
REMARK    7  A    between atoms: P_33  and  N_18 
REMARK    8  A    between atoms: P_34  and  N_18 
REMARK    9  A    between atoms: P_33  and  O_24 
REMARK   10  A    between atoms: P_33  and  O_25 
REMARK   11  A    between atoms: P_34  and  O_27 
REMARK   12  A    between atoms: P_35  and  O_28 
REMARK   13  A    between atoms: P_35  and  O_30 
REMARK   14  A    between atoms: P_34  and  O_32 
REMARK   15  A    between atoms: P_35  and  O_32 
ROOT
HETATM    1  C   UNK N   1      35.156  15.464   8.668  0.00  0.00     0.180 C 
HETATM    2  C   UNK N   1      34.500  16.449   9.644  0.00  0.00     0.182 C 
HETATM    3  C   UNK N   1      34.517  15.673  10.944  0.00  0.00     0.198 C 
HETATM    4  C   UNK N   1      35.592  14.641  10.651  0.00  0.00     0.262 C 
HETATM    5  O   UNK N   1      35.301  14.222   9.338  0.00  0.00    -0.353 OA
ENDROOT
BRANCH   1   6
HETATM    6  C   UNK N   1      34.408  15.358   7.354  0.00  0.00     0.215 C 
BRANCH   6   7
HETATM    7  O   UNK N   1      34.924  16.342   6.510  0.00  0.00    -0.294 OA
BRANCH   7   8
HETATM    8  P   UNK N   1      33.593  17.129   5.716  0.00  0.00     0.401 P 
HETATM    9  O   UNK N   1      33.145  15.669   6.003  0.00  0.00    -0.631 OA
BRANCH   8  10
HETATM   10  O   UNK N   1      34.328  18.255   6.823  0.00  0.00    -0.307 OA
HETATM   11  H   UNK N   1      35.260  18.188   7.085  0.00  0.00     0.222 HD
ENDBRANCH   8  10
BRANCH   8  12
HETATM   12  O   UNK N   1      32.324  17.431   6.927  0.00  0.00    -0.201 OA
BRANCH  12  13
HETATM   13  P   UNK N   1      30.679  16.993   6.389  0.00  0.00     0.362 P 
HETATM   14  O   UNK N   1      30.486  17.393   4.900  0.00  0.00    -0.636 OA
BRANCH  13  15
HETATM   15  N   UNK N   1      29.461  17.929   7.325  0.00  0.00    -0.240 N 
HETATM   16  H   UNK N   1      28.754  18.548   6.929  0.00  0.00     0.176 HD
BRANCH  15  17
HETATM   17  P   UNK N   1      29.702  17.590   9.074  0.00  0.00     0.351 P 
HETATM   18  O   UNK N   1      30.072  18.932   9.761  0.00  0.00    -0.637 OA
BRANCH  17  19
HETATM   19  O   UNK N   1      28.221  17.033   9.784  0.00  0.00    -0.312 OA
HETATM   20  H   UNK N   1      27.972  17.303  10.682  0.00  0.00     0.221 HD
ENDBRANCH  17  19
BRANCH  17  21
HETATM   21  O   UNK N   1      31.003  16.471   9.336  0.00  0.00    -0.312 OA
HETATM   22  H   UNK N   1      31.455  16.100  10.110  0.00  0.00     0.221 HD
ENDBRANCH  17  21
ENDBRANCH  15  17
ENDBRANCH  13  15
BRANCH  13  23
HETATM   23  O   UNK N   1      30.280  15.306   6.531  0.00  0.00    -0.312 OA
HETATM   24  H   UNK N   1      29.841  14.845   5.800  0.00  0.00     0.222 HD
ENDBRANCH  13  23
ENDBRANCH  12  13
ENDBRANCH   8  12
ENDBRANCH   7   8
ENDBRANCH   6   7
ENDBRANCH   1   6
BRANCH   2  25
HETATM   25  O   UNK N   1      35.293  17.597   9.738  0.00  0.00    -0.390 OA
HETATM   26  H   UNK N   1      35.674  18.286  10.303  0.00  0.00     0.210 HD
ENDBRANCH   2  25
BRANCH   3  27
HETATM   27  O   UNK N   1      33.294  15.012  11.099  0.00  0.00    -0.388 OA
HETATM   28  H   UNK N   1      32.549  14.398  11.203  0.00  0.00     0.210 HD
ENDBRANCH   3  27
BRANCH   4  29
HETATM   29  N   UNK N   1      35.643  13.530  11.612  0.00  0.00    -0.297 N 
HETATM   30  C   UNK N   1      35.446  12.211  11.350  0.00  0.00     0.188 A 
HETATM   31  N   UNK N   1      35.791  11.434  12.421  0.00  0.00    -0.346 N 
HETATM   32  C   UNK N   1      36.232  12.313  13.340  0.00  0.00     0.130 A 
ATOM     33  HN  UNK N   1      35.728  10.420  12.504  1.00  0.00     0.167 HD
HETATM   34  C   UNK N   1      36.141  13.565  12.855  0.00  0.00     0.157 A 
HETATM   35  C   UNK N   1      36.766  12.097  14.603  0.00  0.00     0.186 A 
HETATM   36  N   UNK N   1      36.543  14.648  13.557  0.00  0.00    -0.174 N 
HETATM   37  C   UNK N   1      37.044  14.458  14.815  0.00  0.00     0.679 A 
HETATM   38  H   UNK N   1      36.476  15.552  13.172  0.00  0.00     0.186 HD
HETATM   39  N   UNK N   1      37.409  15.464  15.510  0.00  0.00    -0.234 N 
HETATM   40  N   UNK N   1      37.160  13.188  15.328  0.00  0.00    -0.168 N 
HETATM   41  H   UNK N   1      37.325  16.375  15.145  0.00  0.00     0.174 HD
ATOM     42  HN  UNK N   1      37.789  15.325  16.447  1.00  0.00     0.174 HD
ATOM     43  HN  UNK N   1      37.546  13.058  16.263  1.00  0.00     0.186 HD
BRANCH  35  44
HETATM   44  O   UNK N   1      36.913  10.858  15.100  0.00  0.00    -0.344 OA
HETATM   45  H   UNK N   1      37.245  10.736  15.967  0.00  0.00     0.219 HD
ENDBRANCH  35  44
ENDBRANCH   4  29
TORSDOF 15
ENDMDL
MODEL 2
REMARK VINA RESULT:      -7.3      7.491     10.286
REMARK  15 active torsions:
REMARK  status: ('A' for Active; 'I' for Inactive)
REMARK    1  A    between atoms: C_3  and  C_1 
REMARK    2  A    between atoms: O_30  and  C_1 
REMARK    3  A    between atoms: C_5  and  O_20 
REMARK    4  A    between atoms: C_6  and  O_21 
REMARK    5  A    between atoms: O_22  and  C_8 
REMARK    6  A    between atoms: C_9  and  N_19 
REMARK    7  A    between atoms: P_33  and  N_18 
REMARK    8  A    between atoms: P_34  and  N_18 
REMARK    9  A    between atoms: P_33  and  O_24 
REMARK   10  A    between atoms: P_33  and  O_25 
REMARK   11  A    between atoms: P_34  and  O_27 
REMARK   12  A    between atoms: P_35  and  O_28 
REMARK   13  A    between atoms: P_35  and  O_30 
REMARK   14  A    between atoms: P_34  and  O_32 
REMARK   15  A    between atoms: P_35  and  O_32 
ROOT
HETATM    1  C   UNK N   1      27.659  19.983   4.392  0.00  0.00     0.180 C 
HETATM    2  C   UNK N   1      27.150  20.061   5.837  0.00  0.00     0.182 C 
HETATM    3  C   UNK N   1      27.661  18.763   6.428  0.00  0.00     0.198 C 
HETATM    4  C   UNK N   1      28.766  18.413   5.447  0.00  0.00     0.262 C 
HETATM    5  O   UNK N   1      28.190  18.683   4.189  0.00  0.00    -0.353 OA
ENDROOT
BRANCH   1   6
HETATM    6  C   UNK N   1      26.599  20.368   3.378  0.00  0.00     0.215 C 
BRANCH   6   7
HETATM    7  O   UNK N   1      25.382  20.419   4.058  0.00  0.00    -0.294 OA
BRANCH   7   8
HETATM    8  P   UNK N   1      24.154  19.753   3.025  0.00  0.00     0.401 P 
HETATM    9  O   UNK N   1      23.596  19.704   4.475  0.00  0.00    -0.631 OA
BRANCH   8  10
HETATM   10  O   UNK N   1      24.893  21.104   2.213  0.00  0.00    -0.307 OA
HETATM   11  H   UNK N   1      24.732  21.295   1.275  0.00  0.00     0.222 HD
ENDBRANCH   8  10
BRANCH   8  12
HETATM   12  O   UNK N   1      22.838  20.944   2.887  0.00  0.00    -0.201 OA
BRANCH  12  13
HETATM   13  P   UNK N   1      21.218  20.224   2.671  0.00  0.00     0.362 P 
HETATM   14  O   UNK N   1      20.277  20.688   3.817  0.00  0.00    -0.636 OA
BRANCH  13  15
HETATM   15  N   UNK N   1      21.324  18.433   2.799  0.00  0.00    -0.240 N 
HETATM   16  H   UNK N   1      22.028  17.915   3.325  0.00  0.00     0.176 HD
BRANCH  15  17
HETATM   17  P   UNK N   1      19.982  17.712   1.844  0.00  0.00     0.351 P 
HETATM   18  O   UNK N   1      19.894  16.210   2.227  0.00  0.00    -0.637 OA
BRANCH  17  19
HETATM   19  O   UNK N   1      18.474  18.449   2.281  0.00  0.00    -0.312 OA
HETATM   20  H   UNK N   1      18.265  18.630   3.211  0.00  0.00     0.221 HD
ENDBRANCH  17  19
BRANCH  17  21
HETATM   21  O   UNK N   1      20.282  17.818   0.138  0.00  0.00    -0.312 OA
HETATM   22  H   UNK N   1      19.913  18.326  -0.602  0.00  0.00     0.221 HD
ENDBRANCH  17  21
ENDBRANCH  15  17
ENDBRANCH  13  15
BRANCH  13  23
HETATM   23  O   UNK N   1      20.436  20.606   1.165  0.00  0.00    -0.312 OA
HETATM   24  H   UNK N   1      19.474  20.721   1.131  0.00  0.00     0.222 HD
ENDBRANCH  13  23
ENDBRANCH  12  13
ENDBRANCH   8  12
ENDBRANCH   7   8
ENDBRANCH   6   7
ENDBRANCH   1   6
BRANCH   2  25
HETATM   25  O   UNK N   1      27.737  21.162   6.469  0.00  0.00    -0.390 OA
HETATM   26  H   UNK N   1      27.898  22.118   6.468  0.00  0.00     0.210 HD
ENDBRANCH   2  25
BRANCH   3  27
HETATM   27  O   UNK N   1      26.658  17.792   6.337  0.00  0.00    -0.388 OA
HETATM   28  H   UNK N   1      26.058  17.034   6.410  0.00  0.00     0.210 HD
ENDBRANCH   3  27
BRANCH   4  29
HETATM   29  N   UNK N   1      29.268  17.037   5.566  0.00  0.00    -0.297 N 
HETATM   30  C   UNK N   1      29.028  16.001   4.720  0.00  0.00     0.188 A 
HETATM   31  N   UNK N   1      29.830  14.931   5.003  0.00  0.00    -0.346 N 
HETATM   32  C   UNK N   1      30.591  15.349   6.032  0.00  0.00     0.130 A 
ATOM     33  HN  UNK N   1      29.848  14.022   4.541  1.00  0.00     0.167 HD
HETATM   34  C   UNK N   1      30.252  16.608   6.367  0.00  0.00     0.157 A 
HETATM   35  C   UNK N   1      31.625  14.710   6.701  0.00  0.00     0.186 A 
HETATM   36  N   UNK N   1      30.876  17.292   7.353  0.00  0.00    -0.174 N 
HETATM   37  C   UNK N   1      31.877  16.667   8.043  0.00  0.00     0.679 A 
HETATM   38  H   UNK N   1      30.616  18.216   7.569  0.00  0.00     0.186 HD
HETATM   39  N   UNK N   1      32.469  17.279   8.995  0.00  0.00    -0.234 N 
HETATM   40  N   UNK N   1      32.251  15.387   7.711  0.00  0.00    -0.168 N 
HETATM   41  H   UNK N   1      32.201  18.196   9.235  0.00  0.00     0.174 HD
ATOM     42  HN  UNK N   1      33.221  16.817   9.507  1.00  0.00     0.174 HD
ATOM     43  HN  UNK N   1      33.008  14.935   8.224  1.00  0.00     0.186 HD
BRANCH  35  44
HETATM   44  O   UNK N   1      32.019  13.471   6.362  0.00  0.00    -0.344 OA
HETATM   45  H   UNK N   1      31.694  12.729   6.833  0.00  0.00     0.219 HD
ENDBRANCH  35  44
ENDBRANCH   4  29
TORSDOF 15
ENDMDL
MODEL 3
REMARK VINA RESULT:      -7.2      2.959      4.922
REMARK  15 active torsions:
REMARK  status: ('A' for Active; 'I' for Inactive)
REMARK    1  A    between atoms: C_3  and  C_1 
REMARK    2  A    between atoms: O_30  and  C_1 
REMARK    3  A    between atoms: C_5  and  O_20 
REMARK    4  A    between atoms: C_6  and  O_21 
REMARK    5  A    between atoms: O_22  and  C_8 
REMARK    6  A    between atoms: C_9  and  N_19 
REMARK    7  A    between atoms: P_33  and  N_18 
REMARK    8  A    between atoms: P_34  and  N_18 
REMARK    9  A    between atoms: P_33  and  O_24 
REMARK   10  A    between atoms: P_33  and  O_25 
REMARK   11  A    between atoms: P_34  and  O_27 
REMARK   12  A    between atoms: P_35  and  O_28 
REMARK   13  A    between atoms: P_35  and  O_30 
REMARK   14  A    between atoms: P_34  and  O_32 
REMARK   15  A    between atoms: P_35  and  O_32 
ROOT
HETATM    1  C   UNK N   1      35.427  13.219  13.036  0.00  0.00     0.180 C 
HETATM    2  C   UNK N   1      36.707  12.395  12.850  0.00  0.00     0.182 C 
HETATM    3  C   UNK N   1      36.785  11.623  14.151  0.00  0.00     0.198 C 
HETATM    4  C   UNK N   1      35.346  11.717  14.628  0.00  0.00     0.262 C 
HETATM    5  O   UNK N   1      35.000  13.061  14.379  0.00  0.00    -0.353 OA
ENDROOT
BRANCH   1   6
HETATM    6  C   UNK N   1      35.600  14.668  12.624  0.00  0.00     0.215 C 
BRANCH   6   7
HETATM    7  O   UNK N   1      34.646  14.930  11.640  0.00  0.00    -0.294 OA
BRANCH   7   8
HETATM    8  P   UNK N   1      35.475  15.438  10.200  0.00  0.00     0.401 P 
HETATM    9  O   UNK N   1      33.953  15.515   9.893  0.00  0.00    -0.631 OA
BRANCH   8  10
HETATM   10  O   UNK N   1      36.316  16.079  11.583  0.00  0.00    -0.307 OA
HETATM   11  H   UNK N   1      36.123  16.960  11.943  0.00  0.00     0.222 HD
ENDBRANCH   8  10
BRANCH   8  12
HETATM   12  O   UNK N   1      35.283  17.201  10.041  0.00  0.00    -0.201 OA
BRANCH  12  13
HETATM   13  P   UNK N   1      34.489  17.718   8.527  0.00  0.00     0.362 P 
HETATM   14  O   UNK N   1      34.941  19.158   8.159  0.00  0.00    -0.636 OA
BRANCH  13  15
HETATM   15  N   UNK N   1      32.709  17.793   8.767  0.00  0.00    -0.240 N 
HETATM   16  H   UNK N   1      32.232  18.253   9.542  0.00  0.00     0.176 HD
BRANCH  15  17
HETATM   17  P   UNK N   1      31.912  16.922   7.410  0.00  0.00     0.351 P 
HETATM   18  O   UNK N   1      30.389  17.204   7.509  0.00  0.00    -0.637 OA
BRANCH  17  19
HETATM   19  O   UNK N   1      32.461  17.553   5.891  0.00  0.00    -0.312 OA
HETATM   20  H   UNK N   1      31.948  18.232   5.425  0.00  0.00     0.221 HD
ENDBRANCH  17  19
BRANCH  17  21
HETATM   21  O   UNK N   1      32.153  15.206   7.522  0.00  0.00    -0.312 OA
HETATM   22  H   UNK N   1      31.687  14.465   7.938  0.00  0.00     0.221 HD
ENDBRANCH  17  21
ENDBRANCH  15  17
ENDBRANCH  13  15
BRANCH  13  23
HETATM   23  O   UNK N   1      34.800  16.705   7.148  0.00  0.00    -0.312 OA
HETATM   24  H   UNK N   1      35.625  16.800   6.648  0.00  0.00     0.222 HD
ENDBRANCH  13  23
ENDBRANCH  12  13
ENDBRANCH   8  12
ENDBRANCH   7   8
ENDBRANCH   6   7
ENDBRANCH   1   6
BRANCH   2  25
HETATM   25  O   UNK N   1      36.540  11.528  11.765  0.00  0.00    -0.390 OA
HETATM   26  H   UNK N   1      35.938  11.138  11.113  0.00  0.00     0.210 HD
ENDBRANCH   2  25
BRANCH   3  27
HETATM   27  O   UNK N   1      37.600  12.320  15.049  0.00  0.00    -0.388 OA
HETATM   28  H   UNK N   1      38.092  12.689  15.799  0.00  0.00     0.210 HD
ENDBRANCH   3  27
BRANCH   4  29
HETATM   29  N   UNK N   1      35.147  11.323  16.030  0.00  0.00    -0.297 N 
HETATM   30  C   UNK N   1      35.121  10.059  16.530  0.00  0.00     0.188 A 
HETATM   31  N   UNK N   1      35.144  10.064  17.897  0.00  0.00    -0.346 N 
HETATM   32  C   UNK N   1      35.214  11.368  18.223  0.00  0.00     0.130 A 
ATOM     33  HN  UNK N   1      35.115   9.262  18.526  1.00  0.00     0.167 HD
HETATM   34  C   UNK N   1      35.214  12.118  17.106  0.00  0.00     0.157 A 
HETATM   35  C   UNK N   1      35.322  11.977  19.465  0.00  0.00     0.186 A 
HETATM   36  N   UNK N   1      35.305  13.467  17.135  0.00  0.00    -0.174 N 
HETATM   37  C   UNK N   1      35.383  14.087  18.351  0.00  0.00     0.679 A 
HETATM   38  H   UNK N   1      35.316  13.990  16.301  0.00  0.00     0.186 HD
HETATM   39  N   UNK N   1      35.446  15.360  18.411  0.00  0.00    -0.234 N 
HETATM   40  N   UNK N   1      35.398  13.342  19.506  0.00  0.00    -0.168 N 
HETATM   41  H   UNK N   1      35.433  15.895  17.584  0.00  0.00     0.174 HD
ATOM     42  HN  UNK N   1      35.510  15.824  19.317  1.00  0.00     0.174 HD
ATOM     43  HN  UNK N   1      35.469  13.814  20.408  1.00  0.00     0.186 HD
BRANCH  35  44
HETATM   44  O   UNK N   1      35.371  11.256  20.597  0.00  0.00    -0.344 OA
HETATM   45  H   UNK N   1      34.768  11.431  21.293  0.00  0.00     0.219 HD
ENDBRANCH  35  44
ENDBRANCH   4  29
TORSDOF 15
ENDMDL
MODEL 4
REMARK VINA RESULT:      -7.2      2.463      3.508
REMARK  15 active torsions:
REMARK  status: ('A' for Active; 'I' for Inactive)
REMARK    1  A    between atoms: C_3  and  C_1 
REMARK    2  A    between atoms: O_30  and  C_1 
REMARK    3  A    between atoms: C_5  and  O_20 
REMARK    4  A    between atoms: C_6  and  O_21 
REMARK    5  A    between atoms: O_22  and  C_8 
REMARK    6  A    between atoms: C_9  and  N_19 
REMARK    7  A    between atoms: P_33  and  N_18 
REMARK    8  A    between atoms: P_34  and  N_18 
REMARK    9  A    between atoms: P_33  and  O_24 
REMARK   10  A    between atoms: P_33  and  O_25 
REMARK   11  A    between atoms: P_34  and  O_27 
REMARK   12  A    between atoms: P_35  and  O_28 
REMARK   13  A    between atoms: P_35  and  O_30 
REMARK   14  A    between atoms: P_34  and  O_32 
REMARK   15  A    between atoms: P_35  and  O_32 
ROOT
HETATM    1  C   UNK N   1      36.858  12.928   9.819  0.00  0.00     0.180 C 
HETATM    2  C   UNK N   1      36.862  14.458   9.928  0.00  0.00     0.182 C 
HETATM    3  C   UNK N   1      36.297  14.683  11.316  0.00  0.00     0.198 C 
HETATM    4  C   UNK N   1      36.540  13.325  11.950  0.00  0.00     0.262 C 
HETATM    5  O   UNK N   1      36.161  12.414  10.943  0.00  0.00    -0.353 OA
ENDROOT
BRANCH   1   6
HETATM    6  C   UNK N   1      36.309  12.439   8.493  0.00  0.00     0.215 C 
BRANCH   6   7
HETATM    7  O   UNK N   1      35.228  13.259   8.170  0.00  0.00    -0.294 OA
BRANCH   7   8
HETATM    8  P   UNK N   1      33.840  12.248   7.904  0.00  0.00     0.401 P 
HETATM    9  O   UNK N   1      33.635  12.939   9.281  0.00  0.00    -0.631 OA
BRANCH   8  10
HETATM   10  O   UNK N   1      34.284  12.992   6.395  0.00  0.00    -0.307 OA
HETATM   11  H   UNK N   1      35.069  12.717   5.894  0.00  0.00     0.222 HD
ENDBRANCH   8  10
BRANCH   8  12
HETATM   12  O   UNK N   1      32.454  13.296   7.518  0.00  0.00    -0.201 OA
BRANCH  12  13
HETATM   13  P   UNK N   1      32.531  14.917   8.264  0.00  0.00     0.362 P 
HETATM   14  O   UNK N   1      31.571  15.886   7.520  0.00  0.00    -0.636 OA
BRANCH  13  15
HETATM   15  N   UNK N   1      34.184  15.598   8.072  0.00  0.00    -0.240 N 
HETATM   16  H   UNK N   1      35.008  15.083   7.765  0.00  0.00     0.176 HD
BRANCH  15  17
HETATM   17  P   UNK N   1      34.138  17.341   8.513  0.00  0.00     0.351 P 
HETATM   18  O   UNK N   1      35.193  17.566   9.630  0.00  0.00    -0.637 OA
BRANCH  17  19
HETATM   19  O   UNK N   1      34.601  18.314   7.155  0.00  0.00    -0.312 OA
HETATM   20  H   UNK N   1      34.698  17.919   6.275  0.00  0.00     0.221 HD
ENDBRANCH  17  19
BRANCH  17  21
HETATM   21  O   UNK N   1      32.584  17.802   9.137  0.00  0.00    -0.312 OA
HETATM   22  H   UNK N   1      32.134  18.639   9.330  0.00  0.00     0.221 HD
ENDBRANCH  17  21
ENDBRANCH  15  17
ENDBRANCH  13  15
BRANCH  13  23
HETATM   23  O   UNK N   1      32.122  14.972   9.953  0.00  0.00    -0.312 OA
HETATM   24  H   UNK N   1      31.195  15.039  10.229  0.00  0.00     0.222 HD
ENDBRANCH  13  23
ENDBRANCH  12  13
ENDBRANCH   8  12
ENDBRANCH   7   8
ENDBRANCH   6   7
ENDBRANCH   1   6
BRANCH   2  25
HETATM   25  O   UNK N   1      38.180  14.919   9.845  0.00  0.00    -0.390 OA
HETATM   26  H   UNK N   1      38.897  15.427  10.253  0.00  0.00     0.210 HD
ENDBRANCH   2  25
BRANCH   3  27
HETATM   27  O   UNK N   1      34.917  14.891  11.220  0.00  0.00    -0.388 OA
HETATM   28  H   UNK N   1      33.980  15.121  11.319  0.00  0.00     0.210 HD
ENDBRANCH   3  27
BRANCH   4  29
HETATM   29  N   UNK N   1      35.826  13.111  13.217  0.00  0.00    -0.297 N 
HETATM   30  C   UNK N   1      34.965  12.101  13.512  0.00  0.00     0.188 A 
HETATM   31  N   UNK N   1      34.662  12.080  14.845  0.00  0.00    -0.346 N 
HETATM   32  C   UNK N   1      35.383  13.090  15.366  0.00  0.00     0.130 A 
ATOM     33  HN  UNK N   1      34.032  11.443  15.333  1.00  0.00     0.167 HD
HETATM   34  C   UNK N   1      36.077  13.705  14.390  0.00  0.00     0.157 A 
HETATM   35  C   UNK N   1      35.521  13.507  16.682  0.00  0.00     0.186 A 
HETATM   36  N   UNK N   1      36.911  14.741  14.634  0.00  0.00    -0.174 N 
HETATM   37  C   UNK N   1      37.037  15.186  15.920  0.00  0.00     0.679 A 
HETATM   38  H   UNK N   1      37.416  15.165  13.902  0.00  0.00     0.186 HD
HETATM   39  N   UNK N   1      37.799  16.177  16.177  0.00  0.00    -0.234 N 
HETATM   40  N   UNK N   1      36.350  14.565  16.936  0.00  0.00    -0.168 N 
HETATM   41  H   UNK N   1      38.291  16.624  15.450  0.00  0.00     0.174 HD
ATOM     42  HN  UNK N   1      37.899  16.507  17.137  1.00  0.00     0.174 HD
ATOM     43  HN  UNK N   1      36.461  14.898  17.894  1.00  0.00     0.186 HD
BRANCH  35  44
HETATM   44  O   UNK N   1      34.879  12.886  17.685  0.00  0.00    -0.344 OA
HETATM   45  H   UNK N   1      34.632  13.364  18.452  0.00  0.00     0.219 HD
ENDBRANCH  35  44
ENDBRANCH   4  29
TORSDOF 15
ENDMDL
MODEL 5
REMARK VINA RESULT:      -7.1      3.411      5.812
REMARK  15 active torsions:
REMARK  status: ('A' for Active; 'I' for Inactive)
REMARK    1  A    between atoms: C_3  and  C_1 
REMARK    2  A    between atoms: O_30  and  C_1 
REMARK    3  A    between atoms: C_5  and  O_20 
REMARK    4  A    between atoms: C_6  and  O_21 
REMARK    5  A    between atoms: O_22  and  C_8 
REMARK    6  A    between atoms: C_9  and  N_19 
REMARK    7  A    between atoms: P_33  and  N_18 
REMARK    8  A    between atoms: P_34  and  N_18 
REMARK    9  A    between atoms: P_33  and  O_24 
REMARK   10  A    between atoms: P_33  and  O_25 
REMARK   11  A    between atoms: P_34  and  O_27 
REMARK   12  A    between atoms: P_35  and  O_28 
REMARK   13  A    between atoms: P_35  and  O_30 
REMARK   14  A    between atoms: P_34  and  O_32 
REMARK   15  A    between atoms: P_35  and  O_32 
ROOT
HETATM    1  C   UNK N   1      35.757  12.182  13.523  0.00  0.00     0.180 C 
HETATM    2  C   UNK N   1      36.549  10.903  13.222  0.00  0.00     0.182 C 
HETATM    3  C   UNK N   1      36.466  10.157  14.537  0.00  0.00     0.198 C 
HETATM    4  C   UNK N   1      35.268  10.834  15.179  0.00  0.00     0.262 C 
HETATM    5  O   UNK N   1      35.477  12.202  14.913  0.00  0.00    -0.353 OA
ENDROOT
BRANCH   1   6
HETATM    6  C   UNK N   1      36.458  13.433  13.029  0.00  0.00     0.215 C 
BRANCH   6   7
HETATM    7  O   UNK N   1      35.680  13.955  11.995  0.00  0.00    -0.294 OA
BRANCH   7   8
HETATM    8  P   UNK N   1      36.477  13.611  10.490  0.00  0.00     0.401 P 
HETATM    9  O   UNK N   1      35.181  12.752  10.519  0.00  0.00    -0.631 OA
BRANCH   8  10
HETATM   10  O   UNK N   1      36.635  15.311  10.828  0.00  0.00    -0.307 OA
HETATM   11  H   UNK N   1      36.112  15.982  10.360  0.00  0.00     0.222 HD
ENDBRANCH   8  10
BRANCH   8  12
HETATM   12  O   UNK N   1      35.558  14.396   9.182  0.00  0.00    -0.201 OA
BRANCH  12  13
HETATM   13  P   UNK N   1      34.157  15.350   9.741  0.00  0.00     0.362 P 
HETATM   14  O   UNK N   1      33.024  15.297   8.679  0.00  0.00    -0.636 OA
BRANCH  13  15
HETATM   15  N   UNK N   1      34.620  17.080   9.900  0.00  0.00    -0.240 N 
HETATM   16  H   UNK N   1      35.025  17.514  10.729  0.00  0.00     0.176 HD
BRANCH  15  17
HETATM   17  P   UNK N   1      34.251  17.915   8.350  0.00  0.00     0.351 P 
HETATM   18  O   UNK N   1      35.064  19.237   8.330  0.00  0.00    -0.637 OA
BRANCH  17  19
HETATM   19  O   UNK N   1      34.787  16.954   7.011  0.00  0.00    -0.312 OA
HETATM   20  H   UNK N   1      35.666  16.542   7.019  0.00  0.00     0.221 HD
ENDBRANCH  17  19
BRANCH  17  21
HETATM   21  O   UNK N   1      32.566  18.314   8.224  0.00  0.00    -0.312 OA
HETATM   22  H   UNK N   1      31.761  18.091   8.717  0.00  0.00     0.221 HD
ENDBRANCH  17  21
ENDBRANCH  15  17
ENDBRANCH  13  15
BRANCH  13  23
HETATM   23  O   UNK N   1      33.473  14.839  11.257  0.00  0.00    -0.312 OA
HETATM   24  H   UNK N   1      33.947  15.005  12.086  0.00  0.00     0.222 HD
ENDBRANCH  13  23
ENDBRANCH  12  13
ENDBRANCH   8  12
ENDBRANCH   7   8
ENDBRANCH   6   7
ENDBRANCH   1   6
BRANCH   2  25
HETATM   25  O   UNK N   1      35.902  10.193  12.204  0.00  0.00    -0.390 OA
HETATM   26  H   UNK N   1      35.603  10.172  11.283  0.00  0.00     0.210 HD
ENDBRANCH   2  25
BRANCH   3  27
HETATM   27  O   UNK N   1      37.604  10.445  15.299  0.00  0.00    -0.388 OA
HETATM   28  H   UNK N   1      38.433  10.465  15.802  0.00  0.00     0.210 HD
ENDBRANCH   3  27
BRANCH   4  29
HETATM   29  N   UNK N   1      35.104  10.545  16.611  0.00  0.00    -0.297 N 
HETATM   30  C   UNK N   1      35.133   9.324  17.209  0.00  0.00     0.188 A 
HETATM   31  N   UNK N   1      35.176   9.438  18.570  0.00  0.00    -0.346 N 
HETATM   32  C   UNK N   1      35.202  10.765  18.792  0.00  0.00     0.130 A 
ATOM     33  HN  UNK N   1      35.186   8.688  19.261  1.00  0.00     0.167 HD
HETATM   34  C   UNK N   1      35.158  11.424  17.619  0.00  0.00     0.157 A 
HETATM   35  C   UNK N   1      35.306  11.474  19.980  0.00  0.00     0.186 A 
HETATM   36  N   UNK N   1      35.199  12.774  17.541  0.00  0.00    -0.174 N 
HETATM   37  C   UNK N   1      35.272  13.490  18.703  0.00  0.00     0.679 A 
HETATM   38  H   UNK N   1      35.178  13.229  16.668  0.00  0.00     0.186 HD
HETATM   39  N   UNK N   1      35.288  14.766  18.662  0.00  0.00    -0.234 N 
HETATM   40  N   UNK N   1      35.332  12.840  19.913  0.00  0.00    -0.168 N 
HETATM   41  H   UNK N   1      35.244  15.233  17.796  0.00  0.00     0.174 HD
ATOM     42  HN  UNK N   1      35.349  15.302  19.527  1.00  0.00     0.174 HD
ATOM     43  HN  UNK N   1      35.398  13.385  20.773  1.00  0.00     0.186 HD
BRANCH  35  44
HETATM   44  O   UNK N   1      35.398  10.847  21.164  0.00  0.00    -0.344 OA
HETATM   45  H   UNK N   1      35.718   9.968  21.207  0.00  0.00     0.219 HD
ENDBRANCH  35  44
ENDBRANCH   4  29
TORSDOF 15
ENDMDL
MODEL 6
REMARK VINA RESULT:      -6.9      3.962      8.840
REMARK  15 active torsions:
REMARK  status: ('A' for Active; 'I' for Inactive)
REMARK    1  A    between atoms: C_3  and  C_1 
REMARK    2  A    between atoms: O_30  and  C_1 
REMARK    3  A    between atoms: C_5  and  O_20 
REMARK    4  A    between atoms: C_6  and  O_21 
REMARK    5  A    between atoms: O_22  and  C_8 
REMARK    6  A    between atoms: C_9  and  N_19 
REMARK    7  A    between atoms: P_33  and  N_18 
REMARK    8  A    between atoms: P_34  and  N_18 
REMARK    9  A    between atoms: P_33  and  O_24 
REMARK   10  A    between atoms: P_33  and  O_25 
REMARK   11  A    between atoms: P_34  and  O_27 
REMARK   12  A    between atoms: P_35  and  O_28 
REMARK   13  A    between atoms: P_35  and  O_30 
REMARK   14  A    between atoms: P_34  and  O_32 
REMARK   15  A    between atoms: P_35  and  O_32 
ROOT
HETATM    1  C   UNK N   1      34.234  15.532   8.450  0.00  0.00     0.180 C 
HETATM    2  C   UNK N   1      34.622  16.989   8.731  0.00  0.00     0.182 C 
HETATM    3  C   UNK N   1      33.604  17.756   7.912  0.00  0.00     0.198 C 
HETATM    4  C   UNK N   1      32.528  16.701   7.725  0.00  0.00     0.262 C 
HETATM    5  O   UNK N   1      33.257  15.533   7.421  0.00  0.00    -0.353 OA
ENDROOT
BRANCH   1   6
HETATM    6  C   UNK N   1      35.434  14.657   8.143  0.00  0.00     0.215 C 
BRANCH   6   7
HETATM    7  O   UNK N   1      36.347  14.838   9.182  0.00  0.00    -0.294 OA
BRANCH   7   8
HETATM    8  P   UNK N   1      35.848  13.853  10.523  0.00  0.00     0.401 P 
HETATM    9  O   UNK N   1      36.424  12.890   9.448  0.00  0.00    -0.631 OA
BRANCH   8  10
HETATM   10  O   UNK N   1      36.567  15.313  11.142  0.00  0.00    -0.307 OA
HETATM   11  H   UNK N   1      36.527  15.550  12.082  0.00  0.00     0.222 HD
ENDBRANCH   8  10
BRANCH   8  12
HETATM   12  O   UNK N   1      37.306  13.286  11.371  0.00  0.00    -0.201 OA
BRANCH  12  13
HETATM   13  P   UNK N   1      37.049  11.840  12.386  0.00  0.00     0.362 P 
HETATM   14  O   UNK N   1      35.559  11.407  12.320  0.00  0.00    -0.636 OA
BRANCH  13  15
HETATM   15  N   UNK N   1      37.382  12.237  14.108  0.00  0.00    -0.240 N 
HETATM   16  H   UNK N   1      38.070  11.775  14.703  0.00  0.00     0.176 HD
BRANCH  15  17
HETATM   17  P   UNK N   1      36.301  13.585  14.604  0.00  0.00     0.351 P 
HETATM   18  O   UNK N   1      36.401  13.718  16.148  0.00  0.00    -0.637 OA
BRANCH  17  19
HETATM   19  O   UNK N   1      36.853  15.078  13.917  0.00  0.00    -0.312 OA
HETATM   20  H   UNK N   1      36.576  15.928  14.296  0.00  0.00     0.221 HD
ENDBRANCH  17  19
BRANCH  17  21
HETATM   21  O   UNK N   1      34.645  13.260  14.196  0.00  0.00    -0.312 OA
HETATM   22  H   UNK N   1      34.125  12.470  13.980  0.00  0.00     0.221 HD
ENDBRANCH  17  21
ENDBRANCH  15  17
ENDBRANCH  13  15
BRANCH  13  23
HETATM   23  O   UNK N   1      38.014  10.458  11.960  0.00  0.00    -0.312 OA
HETATM   24  H   UNK N   1      38.560  10.019  12.630  0.00  0.00     0.222 HD
ENDBRANCH  13  23
ENDBRANCH  12  13
ENDBRANCH   8  12
ENDBRANCH   7   8
ENDBRANCH   6   7
ENDBRANCH   1   6
BRANCH   2  25
HETATM   25  O   UNK N   1      34.462  17.251  10.096  0.00  0.00    -0.390 OA
HETATM   26  H   UNK N   1      34.782  17.110  11.000  0.00  0.00     0.210 HD
ENDBRANCH   2  25
BRANCH   3  27
HETATM   27  O   UNK N   1      34.155  18.058   6.662  0.00  0.00    -0.388 OA
HETATM   28  H   UNK N   1      34.456  18.433   5.819  0.00  0.00     0.210 HD
ENDBRANCH   3  27
BRANCH   4  29
HETATM   29  N   UNK N   1      31.524  17.034   6.705  0.00  0.00    -0.297 N 
HETATM   30  C   UNK N   1      31.594  16.777   5.372  0.00  0.00     0.188 A 
HETATM   31  N   UNK N   1      30.396  17.013   4.756  0.00  0.00    -0.346 N 
HETATM   32  C   UNK N   1      29.579  17.396   5.755  0.00  0.00     0.130 A 
ATOM     33  HN  UNK N   1      30.173  16.921   3.766  1.00  0.00     0.167 HD
HETATM   34  C   UNK N   1      30.256  17.408   6.919  0.00  0.00     0.157 A 
HETATM   35  C   UNK N   1      28.227  17.707   5.738  0.00  0.00     0.186 A 
HETATM   36  N   UNK N   1      29.673  17.728   8.096  0.00  0.00    -0.174 N 
HETATM   37  C   UNK N   1      28.348  18.067   8.094  0.00  0.00     0.679 A 
HETATM   38  H   UNK N   1      30.189  17.717   8.934  0.00  0.00     0.186 HD
HETATM   39  N   UNK N   1      27.777  18.396   9.187  0.00  0.00    -0.234 N 
HETATM   40  N   UNK N   1      27.632  18.048   6.921  0.00  0.00    -0.168 N 
HETATM   41  H   UNK N   1      28.289  18.411  10.028  0.00  0.00     0.174 HD
ATOM     42  HN  UNK N   1      26.787  18.643   9.189  1.00  0.00     0.174 HD
ATOM     43  HN  UNK N   1      26.641  18.291   6.934  1.00  0.00     0.186 HD
BRANCH  35  44
HETATM   44  O   UNK N   1      27.512  17.660   4.602  0.00  0.00    -0.344 OA
HETATM   45  H   UNK N   1      27.409  18.431   4.079  0.00  0.00     0.219 HD
ENDBRANCH  35  44
ENDBRANCH   4  29
TORSDOF 15
ENDMDL
MODEL 7
REMARK VINA RESULT:      -6.9      4.060      8.536
REMARK  15 active torsions:
REMARK  status: ('A' for Active; 'I' for Inactive)
REMARK    1  A    between atoms: C_3  and  C_1 
REMARK    2  A    between atoms: O_30  and  C_1 
REMARK    3  A    between atoms: C_5  and  O_20 
REMARK    4  A    between atoms: C_6  and  O_21 
REMARK    5  A    between atoms: O_22  and  C_8 
REMARK    6  A    between atoms: C_9  and  N_19 
REMARK    7  A    between atoms: P_33  and  N_18 
REMARK    8  A    between atoms: P_34  and  N_18 
REMARK    9  A    between atoms: P_33  and  O_24 
REMARK   10  A    between atoms: P_33  and  O_25 
REMARK   11  A    between atoms: P_34  and  O_27 
REMARK   12  A    between atoms: P_35  and  O_28 
REMARK   13  A    between atoms: P_35  and  O_30 
REMARK   14  A    between atoms: P_34  and  O_32 
REMARK   15  A    between atoms: P_35  and  O_32 
ROOT
HETATM    1  C   UNK N   1      34.349  15.542   8.220  0.00  0.00     0.180 C 
HETATM    2  C   UNK N   1      34.621  17.004   8.597  0.00  0.00     0.182 C 
HETATM    3  C   UNK N   1      33.534  17.738   7.840  0.00  0.00     0.198 C 
HETATM    4  C   UNK N   1      32.545  16.614   7.589  0.00  0.00     0.262 C 
HETATM    5  O   UNK N   1      33.362  15.533   7.201  0.00  0.00    -0.353 OA
ENDROOT
BRANCH   1   6
HETATM    6  C   UNK N   1      35.612  14.791   7.845  0.00  0.00     0.215 C 
BRANCH   6   7
HETATM    7  O   UNK N   1      35.622  13.611   8.589  0.00  0.00    -0.294 OA
BRANCH   7   8
HETATM    8  P   UNK N   1      36.704  12.491   7.818  0.00  0.00     0.401 P 
HETATM    9  O   UNK N   1      37.589  13.533   8.557  0.00  0.00    -0.631 OA
BRANCH   8  10
HETATM   10  O   UNK N   1      35.344  11.607   8.451  0.00  0.00    -0.307 OA
HETATM   11  H   UNK N   1      35.027  10.786   8.043  0.00  0.00     0.222 HD
ENDBRANCH   8  10
BRANCH   8  12
HETATM   12  O   UNK N   1      37.416  11.451   9.074  0.00  0.00    -0.201 OA
BRANCH  12  13
HETATM   13  P   UNK N   1      37.412  12.168  10.709  0.00  0.00     0.362 P 
HETATM   14  O   UNK N   1      37.620  11.056  11.774  0.00  0.00    -0.636 OA
BRANCH  13  15
HETATM   15  N   UNK N   1      35.804  12.898  11.050  0.00  0.00    -0.240 N 
HETATM   16  H   UNK N   1      34.901  12.471  10.846  0.00  0.00     0.176 HD
BRANCH  15  17
HETATM   17  P   UNK N   1      36.058  14.507  11.814  0.00  0.00     0.351 P 
HETATM   18  O   UNK N   1      34.658  15.130  12.060  0.00  0.00    -0.637 OA
BRANCH  17  19
HETATM   19  O   UNK N   1      36.824  14.321  13.358  0.00  0.00    -0.312 OA
HETATM   20  H   UNK N   1      36.379  14.618  14.168  0.00  0.00     0.221 HD
ENDBRANCH  17  19
BRANCH  17  21
HETATM   21  O   UNK N   1      36.950  15.574  10.775  0.00  0.00    -0.312 OA
HETATM   22  H   UNK N   1      36.726  16.238  10.104  0.00  0.00     0.221 HD
ENDBRANCH  17  21
ENDBRANCH  15  17
ENDBRANCH  13  15
BRANCH  13  23
HETATM   23  O   UNK N   1      38.621  13.387  10.984  0.00  0.00    -0.312 OA
HETATM   24  H   UNK N   1      38.430  14.317  10.790  0.00  0.00     0.222 HD
ENDBRANCH  13  23
ENDBRANCH  12  13
ENDBRANCH   8  12
ENDBRANCH   7   8
ENDBRANCH   6   7
ENDBRANCH   1   6
BRANCH   2  25
HETATM   25  O   UNK N   1      34.459  17.158   9.978  0.00  0.00    -0.390 OA
HETATM   26  H   UNK N   1      34.721  17.623  10.786  0.00  0.00     0.210 HD
ENDBRANCH   2  25
BRANCH   3  27
HETATM   27  O   UNK N   1      34.043  18.168   6.609  0.00  0.00    -0.388 OA
HETATM   28  H   UNK N   1      34.332  18.633   5.809  0.00  0.00     0.210 HD
ENDBRANCH   3  27
BRANCH   4  29
HETATM   29  N   UNK N   1      31.504  16.931   6.602  0.00  0.00    -0.297 N 
HETATM   30  C   UNK N   1      31.522  16.650   5.272  0.00  0.00     0.188 A 
HETATM   31  N   UNK N   1      30.303  16.879   4.698  0.00  0.00    -0.346 N 
HETATM   32  C   UNK N   1      29.526  17.283   5.720  0.00  0.00     0.130 A 
ATOM     33  HN  UNK N   1      30.042  16.769   3.718  1.00  0.00     0.167 HD
HETATM   34  C   UNK N   1      30.246  17.315   6.856  0.00  0.00     0.157 A 
HETATM   35  C   UNK N   1      28.175  17.600   5.748  0.00  0.00     0.186 A 
HETATM   36  N   UNK N   1      29.709  17.658   8.049  0.00  0.00    -0.174 N 
HETATM   37  C   UNK N   1      28.387  18.003   8.091  0.00  0.00     0.679 A 
HETATM   38  H   UNK N   1      30.257  17.661   8.867  0.00  0.00     0.186 HD
HETATM   39  N   UNK N   1      27.858  18.354   9.198  0.00  0.00    -0.234 N 
HETATM   40  N   UNK N   1      27.626  17.965   6.947  0.00  0.00    -0.168 N 
HETATM   41  H   UNK N   1      28.402  18.383  10.019  0.00  0.00     0.174 HD
ATOM     42  HN  UNK N   1      26.870  18.605   9.233  1.00  0.00     0.174 HD
ATOM     43  HN  UNK N   1      26.637  18.212   6.993  1.00  0.00     0.186 HD
BRANCH  35  44
HETATM   44  O   UNK N   1      27.417  17.535   4.642  0.00  0.00    -0.344 OA
HETATM   45  H   UNK N   1      26.509  17.763   4.680  0.00  0.00     0.219 HD
ENDBRANCH  35  44
ENDBRANCH   4  29
TORSDOF 15
ENDMDL
MODEL 8
REMARK VINA RESULT:      -6.9      3.459      5.485
REMARK  15 active torsions:
REMARK  status: ('A' for Active; 'I' for Inactive)
REMARK    1  A    between atoms: C_3  and  C_1 
REMARK    2  A    between atoms: O_30  and  C_1 
REMARK    3  A    between atoms: C_5  and  O_20 
REMARK    4  A    between atoms: C_6  and  O_21 
REMARK    5  A    between atoms: O_22  and  C_8 
REMARK    6  A    between atoms: C_9  and  N_19 
REMARK    7  A    between atoms: P_33  and  N_18 
REMARK    8  A    between atoms: P_34  and  N_18 
REMARK    9  A    between atoms: P_33  and  O_24 
REMARK   10  A    between atoms: P_33  and  O_25 
REMARK   11  A    between atoms: P_34  and  O_27 
REMARK   12  A    between atoms: P_35  and  O_28 
REMARK   13  A    between atoms: P_35  and  O_30 
REMARK   14  A    between atoms: P_34  and  O_32 
REMARK   15  A    between atoms: P_35  and  O_32 
ROOT
HETATM    1  C   UNK N   1      37.025  12.627  13.274  0.00  0.00     0.180 C 
HETATM    2  C   UNK N   1      36.079  13.732  13.759  0.00  0.00     0.182 C 
HETATM    3  C   UNK N   1      35.394  13.074  14.939  0.00  0.00     0.198 C 
HETATM    4  C   UNK N   1      36.372  11.957  15.255  0.00  0.00     0.262 C 
HETATM    5  O   UNK N   1      36.710  11.442  13.987  0.00  0.00    -0.353 OA
ENDROOT
BRANCH   1   6
HETATM    6  C   UNK N   1      36.995  12.451  11.768  0.00  0.00     0.215 C 
BRANCH   6   7
HETATM    7  O   UNK N   1      37.749  13.489  11.221  0.00  0.00    -0.294 OA
BRANCH   7   8
HETATM    8  P   UNK N   1      36.913  14.090   9.821  0.00  0.00     0.401 P 
HETATM    9  O   UNK N   1      36.602  12.569   9.912  0.00  0.00    -0.631 OA
BRANCH   8  10
HETATM   10  O   UNK N   1      36.802  15.278  11.089  0.00  0.00    -0.307 OA
HETATM   11  H   UNK N   1      37.259  16.132  11.037  0.00  0.00     0.222 HD
ENDBRANCH   8  10
BRANCH   8  12
HETATM   12  O   UNK N   1      35.174  14.154  10.197  0.00  0.00    -0.201 OA
BRANCH  12  13
HETATM   13  P   UNK N   1      34.388  15.698   9.766  0.00  0.00     0.362 P 
HETATM   14  O   UNK N   1      32.844  15.529   9.791  0.00  0.00    -0.636 OA
BRANCH  13  15
HETATM   15  N   UNK N   1      34.819  16.153   8.081  0.00  0.00    -0.240 N 
HETATM   16  H   UNK N   1      35.326  15.567   7.418  0.00  0.00     0.176 HD
BRANCH  15  17
HETATM   17  P   UNK N   1      34.205  17.813   7.762  0.00  0.00     0.351 P 
HETATM   18  O   UNK N   1      34.204  18.020   6.223  0.00  0.00    -0.637 OA
BRANCH  17  19
HETATM   19  O   UNK N   1      32.566  17.959   8.308  0.00  0.00    -0.312 OA
HETATM   20  H   UNK N   1      32.306  17.626   9.181  0.00  0.00     0.221 HD
ENDBRANCH  17  19
BRANCH  17  21
HETATM   21  O   UNK N   1      35.232  19.021   8.469  0.00  0.00    -0.312 OA
HETATM   22  H   UNK N   1      35.155  19.659   9.195  0.00  0.00     0.221 HD
ENDBRANCH  17  21
ENDBRANCH  15  17
ENDBRANCH  13  15
BRANCH  13  23
HETATM   23  O   UNK N   1      34.782  17.041  10.799  0.00  0.00    -0.312 OA
HETATM   24  H   UNK N   1      34.216  17.828  10.814  0.00  0.00     0.222 HD
ENDBRANCH  13  23
ENDBRANCH  12  13
ENDBRANCH   8  12
ENDBRANCH   7   8
ENDBRANCH   6   7
ENDBRANCH   1   6
BRANCH   2  25
HETATM   25  O   UNK N   1      36.836  14.834  14.172  0.00  0.00    -0.390 OA
HETATM   26  H   UNK N   1      37.577  15.166  14.701  0.00  0.00     0.210 HD
ENDBRANCH   2  25
BRANCH   3  27
HETATM   27  O   UNK N   1      34.189  12.505  14.510  0.00  0.00    -0.388 OA
HETATM   28  H   UNK N   1      33.415  11.960  14.303  0.00  0.00     0.210 HD
ENDBRANCH   3  27
BRANCH   4  29
HETATM   29  N   UNK N   1      35.848  10.934  16.171  0.00  0.00    -0.297 N 
HETATM   30  C   UNK N   1      35.815   9.590  15.966  0.00  0.00     0.188 A 
HETATM   31  N   UNK N   1      35.474   8.921  17.108  0.00  0.00    -0.346 N 
HETATM   32  C   UNK N   1      35.325   9.891  18.029  0.00  0.00     0.130 A 
ATOM     33  HN  UNK N   1      35.358   7.916  17.233  1.00  0.00     0.167 HD
HETATM   34  C   UNK N   1      35.547  11.093  17.466  0.00  0.00     0.157 A 
HETATM   35  C   UNK N   1      35.038   9.804  19.385  0.00  0.00     0.186 A 
HETATM   36  N   UNK N   1      35.493  12.247  18.169  0.00  0.00    -0.174 N 
HETATM   37  C   UNK N   1      35.183  12.184  19.499  0.00  0.00     0.679 A 
HETATM   38  H   UNK N   1      35.673  13.112  17.733  0.00  0.00     0.186 HD
HETATM   39  N   UNK N   1      35.102  13.259  20.183  0.00  0.00    -0.234 N 
HETATM   40  N   UNK N   1      34.965  10.967  20.100  0.00  0.00    -0.168 N 
HETATM   41  H   UNK N   1      35.256  14.132  19.753  0.00  0.00     0.174 HD
ATOM     42  HN  UNK N   1      34.876  13.214  21.176  1.00  0.00     0.174 HD
ATOM     43  HN  UNK N   1      34.746  10.932  21.096  1.00  0.00     0.186 HD
BRANCH  35  44
HETATM   44  O   UNK N   1      34.855   8.618  19.987  0.00  0.00    -0.344 OA
HETATM   45  H   UNK N   1      34.314   7.967  19.588  0.00  0.00     0.219 HD
ENDBRANCH  35  44
ENDBRANCH   4  29
TORSDOF 15
ENDMDL
MODEL 9
REMARK VINA RESULT:      -6.9      4.096      8.725
REMARK  15 active torsions:
REMARK  status: ('A' for Active; 'I' for Inactive)
REMARK    1  A    between atoms: C_3  and  C_1 
REMARK    2  A    between atoms: O_30  and  C_1 
REMARK    3  A    between atoms: C_5  and  O_20 
REMARK    4  A    between atoms: C_6  and  O_21 
REMARK    5  A    between atoms: O_22  and  C_8 
REMARK    6  A    between atoms: C_9  and  N_19 
REMARK    7  A    between atoms: P_33  and  N_18 
REMARK    8  A    between atoms: P_34  and  N_18 
REMARK    9  A    between atoms: P_33  and  O_24 
REMARK   10  A    between atoms: P_33  and  O_25 
REMARK   11  A    between atoms: P_34  and  O_27 
REMARK   12  A    between atoms: P_35  and  O_28 
REMARK   13  A    between atoms: P_35  and  O_30 
REMARK   14  A    between atoms: P_34  and  O_32 
REMARK   15  A    between atoms: P_35  and  O_32 
ROOT
HETATM    1  C   UNK N   1      34.317  15.547   8.342  0.00  0.00     0.180 C 
HETATM    2  C   UNK N   1      34.542  17.015   8.723  0.00  0.00     0.182 C 
HETATM    3  C   UNK N   1      33.313  17.689   8.148  0.00  0.00     0.198 C 
HETATM    4  C   UNK N   1      32.376  16.504   8.002  0.00  0.00     0.262 C 
HETATM    5  O   UNK N   1      33.199  15.491   7.470  0.00  0.00    -0.353 OA
ENDROOT
BRANCH   1   6
HETATM    6  C   UNK N   1      35.561  14.894   7.772  0.00  0.00     0.215 C 
BRANCH   6   7
HETATM    7  O   UNK N   1      35.782  13.727   8.504  0.00  0.00    -0.294 OA
BRANCH   7   8
HETATM    8  P   UNK N   1      36.934  12.755   7.641  0.00  0.00     0.401 P 
HETATM    9  O   UNK N   1      37.750  13.753   8.509  0.00  0.00    -0.631 OA
BRANCH   8  10
HETATM   10  O   UNK N   1      35.613  11.738   8.143  0.00  0.00    -0.307 OA
HETATM   11  H   UNK N   1      35.446  10.872   7.739  0.00  0.00     0.222 HD
ENDBRANCH   8  10
BRANCH   8  12
HETATM   12  O   UNK N   1      37.679  11.620   8.793  0.00  0.00    -0.201 OA
BRANCH  12  13
HETATM   13  P   UNK N   1      37.606  12.152  10.496  0.00  0.00     0.362 P 
HETATM   14  O   UNK N   1      37.848  10.940  11.438  0.00  0.00    -0.636 OA
BRANCH  13  15
HETATM   15  N   UNK N   1      35.957  12.763  10.873  0.00  0.00    -0.240 N 
HETATM   16  H   UNK N   1      35.081  12.304  10.626  0.00  0.00     0.176 HD
BRANCH  15  17
HETATM   17  P   UNK N   1      36.115  14.319  11.761  0.00  0.00     0.351 P 
HETATM   18  O   UNK N   1      34.680  14.836  12.051  0.00  0.00    -0.637 OA
BRANCH  17  19
HETATM   19  O   UNK N   1      36.893  14.060  13.288  0.00  0.00    -0.312 OA
HETATM   20  H   UNK N   1      37.121  13.164  13.580  0.00  0.00     0.221 HD
ENDBRANCH  17  19
BRANCH  17  21
HETATM   21  O   UNK N   1      36.938  15.517  10.811  0.00  0.00    -0.312 OA
HETATM   22  H   UNK N   1      37.187  15.613   9.879  0.00  0.00     0.221 HD
ENDBRANCH  17  21
ENDBRANCH  15  17
ENDBRANCH  13  15
BRANCH  13  23
HETATM   23  O   UNK N   1      38.747  13.389  10.933  0.00  0.00    -0.312 OA
HETATM   24  H   UNK N   1      39.683  13.294  10.698  0.00  0.00     0.222 HD
ENDBRANCH  13  23
ENDBRANCH  12  13
ENDBRANCH   8  12
ENDBRANCH   7   8
ENDBRANCH   6   7
ENDBRANCH   1   6
BRANCH   2  25
HETATM   25  O   UNK N   1      34.566  17.128  10.117  0.00  0.00    -0.390 OA
HETATM   26  H   UNK N   1      34.826  17.647  10.893  0.00  0.00     0.210 HD
ENDBRANCH   2  25
BRANCH   3  27
HETATM   27  O   UNK N   1      33.615  18.180   6.873  0.00  0.00    -0.388 OA
HETATM   28  H   UNK N   1      33.642  18.498   5.957  0.00  0.00     0.210 HD
ENDBRANCH   3  27
BRANCH   4  29
HETATM   29  N   UNK N   1      31.187  16.770   7.179  0.00  0.00    -0.297 N 
HETATM   30  C   UNK N   1      30.019  17.334   7.586  0.00  0.00     0.188 A 
HETATM   31  N   UNK N   1      29.218  17.640   6.521  0.00  0.00    -0.346 N 
HETATM   32  C   UNK N   1      29.940  17.274   5.446  0.00  0.00     0.130 A 
ATOM     33  HN  UNK N   1      28.285  18.053   6.538  1.00  0.00     0.167 HD
HETATM   34  C   UNK N   1      31.116  16.753   5.842  0.00  0.00     0.157 A 
HETATM   35  C   UNK N   1      29.660  17.400   4.092  0.00  0.00     0.186 A 
HETATM   36  N   UNK N   1      32.054  16.326   4.967  0.00  0.00    -0.174 N 
HETATM   37  C   UNK N   1      31.784  16.415   3.630  0.00  0.00     0.679 A 
HETATM   38  H   UNK N   1      32.911  15.960   5.285  0.00  0.00     0.186 HD
HETATM   39  N   UNK N   1      32.641  15.998   2.781  0.00  0.00    -0.234 N 
HETATM   40  N   UNK N   1      30.596  16.956   3.200  0.00  0.00    -0.168 N 
HETATM   41  H   UNK N   1      33.492  15.609   3.088  0.00  0.00     0.174 HD
ATOM     42  HN  UNK N   1      32.444  16.070   1.782  1.00  0.00     0.174 HD
ATOM     43  HN  UNK N   1      30.410  17.029   2.199  1.00  0.00     0.186 HD
BRANCH  35  44
HETATM   44  O   UNK N   1      28.516  17.957   3.663  0.00  0.00    -0.344 OA
HETATM   45  H   UNK N   1      28.102  18.629   4.167  0.00  0.00     0.219 HD
ENDBRANCH  35  44
ENDBRANCH   4  29
TORSDOF 15
ENDMDL
