MODEL 1
REMARK VINA RESULT:      -5.2      0.000      0.000
REMARK  0 active torsions:
REMARK  status: ('A' for Active; 'I' for Inactive)
ROOT
HETATM    1  O   UNK N   1      25.948  27.333  -2.436  0.00  0.00    -0.297 OA
HETATM    2  C   UNK N   1      26.136  27.114  -3.621  0.00  0.00     0.135 C 
HETATM    3  C   UNK N   1      26.870  25.891  -4.087  0.00  0.00     0.056 C 
HETATM    4  C   UNK N   1      28.059  26.362  -4.948  0.00  0.00     0.017 C 
HETATM    5  C   UNK N   1      27.562  27.250  -6.109  0.00  0.00    -0.013 C 
HETATM    6  C   UNK N   1      26.587  26.442  -6.982  0.00  0.00     0.009 C 
HETATM    7  C   UNK N   1      25.389  25.981  -6.138  0.00  0.00    -0.013 C 
HETATM    8  C   UNK N   1      25.901  25.097  -4.981  0.00  0.00     0.017 C 
HETATM    9  C   UNK N   1      24.667  27.223  -5.571  0.00  0.00     0.017 C 
HETATM   10  C   UNK N   1      25.623  28.040  -4.684  0.00  0.00     0.056 C 
HETATM   11  C   UNK N   1      26.828  28.482  -5.538  0.00  0.00     0.017 C 
ENDROOT
TORSDOF 0
ENDMDL
MODEL 2
REMARK VINA RESULT:      -5.0      1.329      2.702
REMARK  0 active torsions:
REMARK  status: ('A' for Active; 'I' for Inactive)
ROOT
HETATM    1  O   UNK N   1      25.360  24.133  -5.269  0.00  0.00    -0.297 OA
HETATM    2  C   UNK N   1      25.757  25.287  -5.272  0.00  0.00     0.135 C 
HETATM    3  C   UNK N   1      25.270  26.282  -6.283  0.00  0.00     0.056 C 
HETATM    4  C   UNK N   1      26.505  26.845  -7.014  0.00  0.00     0.017 C 
HETATM    5  C   UNK N   1      27.500  27.449  -5.999  0.00  0.00    -0.013 C 
HETATM    6  C   UNK N   1      26.806  28.580  -5.222  0.00  0.00     0.009 C 
HETATM    7  C   UNK N   1      25.582  28.028  -4.477  0.00  0.00    -0.013 C 
HETATM    8  C   UNK N   1      24.598  27.426  -5.503  0.00  0.00     0.017 C 
HETATM    9  C   UNK N   1      26.047  26.934  -3.490  0.00  0.00     0.017 C 
HETATM   10  C   UNK N   1      26.735  25.786  -4.250  0.00  0.00     0.056 C 
HETATM   11  C   UNK N   1      27.950  26.355  -5.006  0.00  0.00     0.017 C 
ENDROOT
TORSDOF 0
ENDMDL
MODEL 3
REMARK VINA RESULT:      -4.9      1.166      2.521
REMARK  0 active torsions:
REMARK  status: ('A' for Active; 'I' for Inactive)
ROOT
HETATM    1  O   UNK N   1      29.059  26.251  -4.266  0.00  0.00    -0.297 OA
HETATM    2  C   UNK N   1      27.914  26.521  -4.589  0.00  0.00     0.135 C 
HETATM    3  C   UNK N   1      27.615  27.361  -5.795  0.00  0.00     0.056 C 
HETATM    4  C   UNK N   1      26.769  28.562  -5.328  0.00  0.00     0.017 C 
HETATM    5  C   UNK N   1      25.498  28.073  -4.600  0.00  0.00    -0.013 C 
HETATM    6  C   UNK N   1      24.667  27.205  -5.560  0.00  0.00     0.009 C 
HETATM    7  C   UNK N   1      25.495  25.996  -6.021  0.00  0.00    -0.013 C 
HETATM    8  C   UNK N   1      26.762  26.500  -6.744  0.00  0.00     0.017 C 
HETATM    9  C   UNK N   1      25.893  25.160  -4.784  0.00  0.00     0.017 C 
HETATM   10  C   UNK N   1      26.736  26.007  -3.814  0.00  0.00     0.056 C 
HETATM   11  C   UNK N   1      25.902  27.226  -3.373  0.00  0.00     0.017 C 
ENDROOT
TORSDOF 0
ENDMDL
MODEL 4
REMARK VINA RESULT:      -4.9      1.150      2.487
REMARK  0 active torsions:
REMARK  status: ('A' for Active; 'I' for Inactive)
ROOT
HETATM    1  O   UNK N   1      29.053  26.293  -4.167  0.00  0.00    -0.297 OA
HETATM    2  C   UNK N   1      27.916  26.516  -4.549  0.00  0.00     0.135 C 
HETATM    3  C   UNK N   1      26.721  26.009  -3.798  0.00  0.00     0.056 C 
HETATM    4  C   UNK N   1      25.880  25.165  -4.776  0.00  0.00     0.017 C 
HETATM    5  C   UNK N   1      25.505  25.999  -6.020  0.00  0.00    -0.013 C 
HETATM    6  C   UNK N   1      24.694  27.229  -5.578  0.00  0.00     0.009 C 
HETATM    7  C   UNK N   1      25.528  28.086  -4.614  0.00  0.00    -0.013 C 
HETATM    8  C   UNK N   1      25.897  27.239  -3.378  0.00  0.00     0.017 C 
HETATM    9  C   UNK N   1      26.812  28.548  -5.338  0.00  0.00     0.017 C 
HETATM   10  C   UNK N   1      27.645  27.332  -5.779  0.00  0.00     0.056 C 
HETATM   11  C   UNK N   1      26.792  26.471  -6.731  0.00  0.00     0.017 C 
ENDROOT
TORSDOF 0
ENDMDL
MODEL 5
REMARK VINA RESULT:      -4.8      1.193      2.507
REMARK  0 active torsions:
REMARK  status: ('A' for Active; 'I' for Inactive)
ROOT
HETATM    1  O   UNK N   1      27.235  29.530  -5.420  0.00  0.00    -0.297 OA
HETATM    2  C   UNK N   1      26.851  28.376  -5.324  0.00  0.00     0.135 C 
HETATM    3  C   UNK N   1      27.627  27.237  -5.918  0.00  0.00     0.056 C 
HETATM    4  C   UNK N   1      26.684  26.482  -6.876  0.00  0.00     0.017 C 
HETATM    5  C   UNK N   1      25.413  26.025  -6.129  0.00  0.00    -0.013 C 
HETATM    6  C   UNK N   1      25.815  25.097  -4.970  0.00  0.00     0.009 C 
HETATM    7  C   UNK N   1      26.742  25.844  -4.000  0.00  0.00    -0.013 C 
HETATM    8  C   UNK N   1      28.006  26.297  -4.760  0.00  0.00     0.017 C 
HETATM    9  C   UNK N   1      25.995  27.075  -3.440  0.00  0.00     0.017 C 
HETATM   10  C   UNK N   1      25.595  28.023  -4.584  0.00  0.00     0.056 C 
HETATM   11  C   UNK N   1      24.679  27.258  -5.559  0.00  0.00     0.017 C 
ENDROOT
TORSDOF 0
ENDMDL
MODEL 6
REMARK VINA RESULT:      -4.8      1.183      2.528
REMARK  0 active torsions:
REMARK  status: ('A' for Active; 'I' for Inactive)
ROOT
HETATM    1  O   UNK N   1      27.132  29.688  -5.229  0.00  0.00    -0.297 OA
HETATM    2  C   UNK N   1      26.811  28.512  -5.174  0.00  0.00     0.135 C 
HETATM    3  C   UNK N   1      25.583  28.066  -4.436  0.00  0.00     0.056 C 
HETATM    4  C   UNK N   1      26.023  27.024  -3.389  0.00  0.00     0.017 C 
HETATM    5  C   UNK N   1      26.776  25.861  -4.071  0.00  0.00    -0.013 C 
HETATM    6  C   UNK N   1      25.848  25.192  -5.099  0.00  0.00     0.009 C 
HETATM    7  C   UNK N   1      25.416  26.218  -6.158  0.00  0.00    -0.013 C 
HETATM    8  C   UNK N   1      24.667  27.374  -5.462  0.00  0.00     0.017 C 
HETATM    9  C   UNK N   1      26.673  26.760  -6.874  0.00  0.00     0.017 C 
HETATM   10  C   UNK N   1      27.610  27.445  -5.863  0.00  0.00     0.056 C 
HETATM   11  C   UNK N   1      28.023  26.411  -4.797  0.00  0.00     0.017 C 
ENDROOT
TORSDOF 0
ENDMDL
MODEL 7
REMARK VINA RESULT:      -4.8      1.724      3.122
REMARK  0 active torsions:
REMARK  status: ('A' for Active; 'I' for Inactive)
ROOT
HETATM    1  O   UNK N   1      26.880  26.676  -7.968  0.00  0.00    -0.297 OA
HETATM    2  C   UNK N   1      26.644  26.804  -6.778  0.00  0.00     0.135 C 
HETATM    3  C   UNK N   1      25.431  26.188  -6.146  0.00  0.00     0.056 C 
HETATM    4  C   UNK N   1      24.635  27.319  -5.467  0.00  0.00     0.017 C 
HETATM    5  C   UNK N   1      25.527  28.073  -4.457  0.00  0.00    -0.013 C 
HETATM    6  C   UNK N   1      26.026  27.085  -3.388  0.00  0.00     0.009 C 
HETATM    7  C   UNK N   1      26.835  25.961  -4.052  0.00  0.00    -0.013 C 
HETATM    8  C   UNK N   1      25.931  25.219  -5.059  0.00  0.00     0.017 C 
HETATM    9  C   UNK N   1      28.044  26.580  -4.787  0.00  0.00     0.017 C 
HETATM   10  C   UNK N   1      27.566  27.563  -5.870  0.00  0.00     0.056 C 
HETATM   11  C   UNK N   1      26.742  28.676  -5.194  0.00  0.00     0.017 C 
ENDROOT
TORSDOF 0
ENDMDL
MODEL 8
REMARK VINA RESULT:      -4.8     16.050     17.543
REMARK  0 active torsions:
REMARK  status: ('A' for Active; 'I' for Inactive)
ROOT
HETATM    1  O   UNK N   1      34.963  18.827   7.836  0.00  0.00    -0.297 OA
HETATM    2  C   UNK N   1      34.147  17.941   7.644  0.00  0.00     0.135 C 
HETATM    3  C   UNK N   1      34.064  17.221   6.330  0.00  0.00     0.056 C 
HETATM    4  C   UNK N   1      32.623  17.374   5.806  0.00  0.00     0.017 C 
HETATM    5  C   UNK N   1      31.614  16.849   6.850  0.00  0.00    -0.013 C 
HETATM    6  C   UNK N   1      31.901  15.364   7.129  0.00  0.00     0.009 C 
HETATM    7  C   UNK N   1      33.330  15.200   7.667  0.00  0.00    -0.013 C 
HETATM    8  C   UNK N   1      34.328  15.731   6.615  0.00  0.00     0.017 C 
HETATM    9  C   UNK N   1      33.468  16.008   8.977  0.00  0.00     0.017 C 
HETATM   10  C   UNK N   1      33.196  17.500   8.717  0.00  0.00     0.056 C 
HETATM   11  C   UNK N   1      31.766  17.649   8.161  0.00  0.00     0.017 C 
ENDROOT
TORSDOF 0
ENDMDL
MODEL 9
REMARK VINA RESULT:      -4.7      5.283      6.911
REMARK  0 active torsions:
REMARK  status: ('A' for Active; 'I' for Inactive)
ROOT
HETATM    1  O   UNK N   1      30.459  23.079  -1.394  0.00  0.00    -0.297 OA
HETATM    2  C   UNK N   1      30.694  22.857  -2.570  0.00  0.00     0.135 C 
HETATM    3  C   UNK N   1      30.309  23.830  -3.645  0.00  0.00     0.056 C 
HETATM    4  C   UNK N   1      29.415  23.081  -4.653  0.00  0.00     0.017 C 
HETATM    5  C   UNK N   1      30.147  21.835  -5.197  0.00  0.00    -0.013 C 
HETATM    6  C   UNK N   1      31.445  22.276  -5.894  0.00  0.00     0.009 C 
HETATM    7  C   UNK N   1      32.352  23.011  -4.895  0.00  0.00    -0.013 C 
HETATM    8  C   UNK N   1      31.606  24.251  -4.358  0.00  0.00     0.017 C 
HETATM    9  C   UNK N   1      32.691  22.056  -3.729  0.00  0.00     0.017 C 
HETATM   10  C   UNK N   1      31.405  21.612  -3.010  0.00  0.00     0.056 C 
HETATM   11  C   UNK N   1      30.497  20.891  -4.026  0.00  0.00     0.017 C 
ENDROOT
TORSDOF 0
ENDMDL
