MODEL 1
REMARK VINA RESULT:      -3.8      0.000      0.000
REMARK  3 active torsions:
REMARK  status: ('A' for Active; 'I' for Inactive)
REMARK    1  A    between atoms: O_1  and  Zn_2 
REMARK    2  A    between atoms: Zn_2  and  O_3 
REMARK    3  A    between atoms: Zn_2  and  O_4 
ROOT
HETATM    1 Zn   UNK N   1      20.770  21.968   1.012  0.00  0.00     0.000 Zn
ENDROOT
BRANCH   1   2
HETATM    2  O   UNK N   1      21.464  21.703   2.674  0.00  0.00    -0.253 OA
HETATM    3  H   UNK N   1      21.086  22.170   3.436  0.00  0.00     0.253 HD
ENDBRANCH   1   2
BRANCH   1   4
HETATM    4  O   UNK N   1      20.275  23.639   0.488  0.00  0.00    -0.253 OA
HETATM    5  H   UNK N   1      20.399  23.915  -0.433  0.00  0.00     0.253 HD
ENDBRANCH   1   4
BRANCH   1   6
HETATM    6  O   UNK N   1      20.571  20.562  -0.125  0.00  0.00    -0.253 OA
HETATM    7  H   UNK N   1      21.343  20.033  -0.382  0.00  0.00     0.253 HD
ENDBRANCH   1   6
TORSDOF 3
ENDMDL
MODEL 2
REMARK VINA RESULT:      -3.8      0.001      2.729
REMARK  3 active torsions:
REMARK  status: ('A' for Active; 'I' for Inactive)
REMARK    1  A    between atoms: O_1  and  Zn_2 
REMARK    2  A    between atoms: Zn_2  and  O_3 
REMARK    3  A    between atoms: Zn_2  and  O_4 
ROOT
HETATM    1 Zn   UNK N   1      20.770  21.968   1.012  0.00  0.00     0.000 Zn
ENDROOT
BRANCH   1   2
HETATM    2  O   UNK N   1      20.571  20.561  -0.125  0.00  0.00    -0.253 OA
HETATM    3  H   UNK N   1      20.705  19.656   0.197  0.00  0.00     0.253 HD
ENDBRANCH   1   2
BRANCH   1   4
HETATM    4  O   UNK N   1      21.464  21.704   2.674  0.00  0.00    -0.253 OA
HETATM    5  H   UNK N   1      20.910  21.332   3.378  0.00  0.00     0.253 HD
ENDBRANCH   1   4
BRANCH   1   6
HETATM    6  O   UNK N   1      20.275  23.638   0.489  0.00  0.00    -0.253 OA
HETATM    7  H   UNK N   1      20.369  23.903  -0.440  0.00  0.00     0.253 HD
ENDBRANCH   1   6
TORSDOF 3
ENDMDL
MODEL 3
REMARK VINA RESULT:      -3.8      0.001      2.729
REMARK  3 active torsions:
REMARK  status: ('A' for Active; 'I' for Inactive)
REMARK    1  A    between atoms: O_1  and  Zn_2 
REMARK    2  A    between atoms: Zn_2  and  O_3 
REMARK    3  A    between atoms: Zn_2  and  O_4 
ROOT
HETATM    1 Zn   UNK N   1      20.770  21.967   1.012  0.00  0.00     0.000 Zn
ENDROOT
BRANCH   1   2
HETATM    2  O   UNK N   1      20.275  23.638   0.488  0.00  0.00    -0.253 OA
HETATM    3  H   UNK N   1      20.952  24.311   0.312  0.00  0.00     0.253 HD
ENDBRANCH   1   2
BRANCH   1   4
HETATM    4  O   UNK N   1      20.571  20.561  -0.125  0.00  0.00    -0.253 OA
HETATM    5  H   UNK N   1      19.850  20.559  -0.773  0.00  0.00     0.253 HD
ENDBRANCH   1   4
BRANCH   1   6
HETATM    6  O   UNK N   1      21.463  21.703   2.673  0.00  0.00    -0.253 OA
HETATM    7  H   UNK N   1      20.922  21.879   3.459  0.00  0.00     0.253 HD
ENDBRANCH   1   6
TORSDOF 3
ENDMDL
MODEL 4
REMARK VINA RESULT:      -3.7      0.248      2.242
REMARK  3 active torsions:
REMARK  status: ('A' for Active; 'I' for Inactive)
REMARK    1  A    between atoms: O_1  and  Zn_2 
REMARK    2  A    between atoms: Zn_2  and  O_3 
REMARK    3  A    between atoms: Zn_2  and  O_4 
ROOT
HETATM    1 Zn   UNK N   1      20.646  21.905   1.069  0.00  0.00     0.000 Zn
ENDROOT
BRANCH   1   2
HETATM    2  O   UNK N   1      21.037  21.573   2.815  0.00  0.00    -0.253 OA
HETATM    3  H   UNK N   1      20.321  21.485   3.464  0.00  0.00     0.253 HD
ENDBRANCH   1   2
BRANCH   1   4
HETATM    4  O   UNK N   1      20.594  20.535  -0.128  0.00  0.00    -0.253 OA
HETATM    5  H   UNK N   1      19.818  20.418  -0.698  0.00  0.00     0.253 HD
ENDBRANCH   1   4
BRANCH   1   6
HETATM    6  O   UNK N   1      20.308  23.606   0.520  0.00  0.00    -0.253 OA
HETATM    7  H   UNK N   1      19.466  23.817   0.087  0.00  0.00     0.253 HD
ENDBRANCH   1   6
TORSDOF 3
ENDMDL
MODEL 5
REMARK VINA RESULT:      -3.4      2.639      3.836
REMARK  3 active torsions:
REMARK  status: ('A' for Active; 'I' for Inactive)
REMARK    1  A    between atoms: O_1  and  Zn_2 
REMARK    2  A    between atoms: Zn_2  and  O_3 
REMARK    3  A    between atoms: Zn_2  and  O_4 
ROOT
HETATM    1 Zn   UNK N   1      19.980  19.124   0.655  0.00  0.00     0.000 Zn
ENDROOT
BRANCH   1   2
HETATM    2  O   UNK N   1      19.081  19.181   2.237  0.00  0.00    -0.253 OA
HETATM    3  H   UNK N   1      18.989  20.022   2.711  0.00  0.00     0.253 HD
ENDBRANCH   1   2
BRANCH   1   4
HETATM    4  O   UNK N   1      20.269  17.528  -0.170  0.00  0.00    -0.253 OA
HETATM    5  H   UNK N   1      19.995  17.401  -1.091  0.00  0.00     0.253 HD
ENDBRANCH   1   4
BRANCH   1   6
HETATM    6  O   UNK N   1      20.590  20.662  -0.100  0.00  0.00    -0.253 OA
HETATM    7  H   UNK N   1      21.340  21.132   0.296  0.00  0.00     0.253 HD
ENDBRANCH   1   6
TORSDOF 3
ENDMDL
MODEL 6
REMARK VINA RESULT:      -3.4      2.627      3.689
REMARK  3 active torsions:
REMARK  status: ('A' for Active; 'I' for Inactive)
REMARK    1  A    between atoms: O_1  and  Zn_2 
REMARK    2  A    between atoms: Zn_2  and  O_3 
REMARK    3  A    between atoms: Zn_2  and  O_4 
ROOT
HETATM    1 Zn   UNK N   1      19.992  19.137   0.660  0.00  0.00     0.000 Zn
ENDROOT
BRANCH   1   2
HETATM    2  O   UNK N   1      20.273  17.539  -0.164  0.00  0.00    -0.253 OA
HETATM    3  H   UNK N   1      19.716  17.276  -0.913  0.00  0.00     0.253 HD
ENDBRANCH   1   2
BRANCH   1   4
HETATM    4  O   UNK N   1      20.602  20.673  -0.101  0.00  0.00    -0.253 OA
HETATM    5  H   UNK N   1      21.555  20.845  -0.151  0.00  0.00     0.253 HD
ENDBRANCH   1   4
BRANCH   1   6
HETATM    6  O   UNK N   1      19.100  19.200   2.244  0.00  0.00    -0.253 OA
HETATM    7  H   UNK N   1      18.407  19.863   2.385  0.00  0.00     0.253 HD
ENDBRANCH   1   6
TORSDOF 3
ENDMDL
MODEL 7
REMARK VINA RESULT:      -3.4      2.639      4.059
REMARK  3 active torsions:
REMARK  status: ('A' for Active; 'I' for Inactive)
REMARK    1  A    between atoms: O_1  and  Zn_2 
REMARK    2  A    between atoms: Zn_2  and  O_3 
REMARK    3  A    between atoms: Zn_2  and  O_4 
ROOT
HETATM    1 Zn   UNK N   1      19.983  19.122   0.658  0.00  0.00     0.000 Zn
ENDROOT
BRANCH   1   2
HETATM    2  O   UNK N   1      20.593  20.660  -0.101  0.00  0.00    -0.253 OA
HETATM    3  H   UNK N   1      21.462  20.675  -0.533  0.00  0.00     0.253 HD
ENDBRANCH   1   2
BRANCH   1   4
HETATM    4  O   UNK N   1      20.268  17.525  -0.166  0.00  0.00    -0.253 OA
HETATM    5  H   UNK N   1      20.903  16.893   0.206  0.00  0.00     0.253 HD
ENDBRANCH   1   4
BRANCH   1   6
HETATM    6  O   UNK N   1      19.088  19.182   2.240  0.00  0.00    -0.253 OA
HETATM    7  H   UNK N   1      18.793  20.034   2.599  0.00  0.00     0.253 HD
ENDBRANCH   1   6
TORSDOF 3
ENDMDL
MODEL 8
REMARK VINA RESULT:      -3.4      2.628      3.596
REMARK  3 active torsions:
REMARK  status: ('A' for Active; 'I' for Inactive)
REMARK    1  A    between atoms: O_1  and  Zn_2 
REMARK    2  A    between atoms: Zn_2  and  O_3 
REMARK    3  A    between atoms: Zn_2  and  O_4 
ROOT
HETATM    1 Zn   UNK N   1      20.009  19.131   0.663  0.00  0.00     0.000 Zn
ENDROOT
BRANCH   1   2
HETATM    2  O   UNK N   1      20.610  20.668  -0.103  0.00  0.00    -0.253 OA
HETATM    3  H   UNK N   1      20.671  20.736  -1.069  0.00  0.00     0.253 HD
ENDBRANCH   1   2
BRANCH   1   4
HETATM    4  O   UNK N   1      19.141  19.191   2.261  0.00  0.00    -0.253 OA
HETATM    5  H   UNK N   1      19.279  18.489   2.916  0.00  0.00     0.253 HD
ENDBRANCH   1   4
BRANCH   1   6
HETATM    6  O   UNK N   1      20.275  17.535  -0.168  0.00  0.00    -0.253 OA
HETATM    7  H   UNK N   1      20.859  16.872   0.231  0.00  0.00     0.253 HD
ENDBRANCH   1   6
TORSDOF 3
ENDMDL
MODEL 9
REMARK VINA RESULT:      -3.2      1.747      2.528
REMARK  3 active torsions:
REMARK  status: ('A' for Active; 'I' for Inactive)
REMARK    1  A    between atoms: O_1  and  Zn_2 
REMARK    2  A    between atoms: Zn_2  and  O_3 
REMARK    3  A    between atoms: Zn_2  and  O_4 
ROOT
HETATM    1 Zn   UNK N   1      20.446  20.524   1.662  0.00  0.00     0.000 Zn
ENDROOT
BRANCH   1   2
HETATM    2  O   UNK N   1      21.488  21.569   2.726  0.00  0.00    -0.253 OA
HETATM    3  H   UNK N   1      21.730  21.265   3.615  0.00  0.00     0.253 HD
ENDBRANCH   1   2
BRANCH   1   4
HETATM    4  O   UNK N   1      19.249  19.373   2.407  0.00  0.00    -0.253 OA
HETATM    5  H   UNK N   1      18.784  18.730   1.852  0.00  0.00     0.253 HD
ENDBRANCH   1   4
BRANCH   1   6
HETATM    6  O   UNK N   1      20.601  20.629  -0.148  0.00  0.00    -0.253 OA
HETATM    7  H   UNK N   1      21.357  21.089  -0.544  0.00  0.00     0.253 HD
ENDBRANCH   1   6
TORSDOF 3
ENDMDL
