REMARK  13 active torsions:
REMARK  status: ('A' for Active; 'I' for Inactive)
REMARK    1  A    between atoms: C_9  and  C_8 
REMARK    2  A    between atoms: C_14  and  C_8 
REMARK    3  A    between atoms: N_26  and  C_9 
REMARK    4  A    between atoms: C_15  and  C_12 
REMARK    5  A    between atoms: C_21  and  C_12 
REMARK    6  A    between atoms: O_31  and  C_16 
REMARK    7  A    between atoms: C_23  and  C_17 
REMARK    8  A    between atoms: O_27  and  C_20 
REMARK    9  A    between atoms: O_28  and  C_21 
REMARK   10  A    between atoms: O_29  and  C_21 
REMARK   11  A    between atoms: O_31  and  C_22 
REMARK   12  A    between atoms: N_26  and  C_23 
REMARK   13  A    between atoms: O_30  and  C_23 
ROOT
HETATM    1  C   UNK N   1       6.585   7.276  -1.213  0.00  0.00     0.040 A 
HETATM    2  C   UNK N   1       5.362   7.941  -1.218  0.00  0.00     0.040 A 
HETATM    3  C   UNK N   1       5.690   5.638   0.324  0.00  0.00     0.051 A 
HETATM    4  C   UNK N   1       6.767   6.149  -0.397  0.00  0.00     0.077 A 
HETATM    5  C   UNK N   1       4.453   6.289   0.321  0.00  0.00     0.025 A 
HETATM    6  C   UNK N   1       4.304   7.476  -0.433  0.00  0.00     0.076 A 
ENDROOT
BRANCH   4   7
HETATM    7  O   UNK N   1       7.971   5.561  -0.259  0.00  0.00    -0.308 OA
BRANCH   7   8
HETATM    8  C   UNK N   1       9.185   6.177  -0.129  0.00  0.00     0.110 A 
HETATM    9  C   UNK N   1      10.328   5.422  -0.444  0.00  0.00     0.046 A 
HETATM   10  C   UNK N   1      11.604   5.973  -0.303  0.00  0.00     0.029 A 
HETATM   11 Br   UNK N   1      10.173   3.608  -1.030  0.00  0.00    -0.048 Br
HETATM   12  C   UNK N   1      11.768   7.285   0.152  0.00  0.00    -0.046 A 
HETATM   13  C   UNK N   1      10.646   8.030   0.486  0.00  0.00     0.029 A 
HETATM   14  C   UNK N   1       9.359   7.510   0.366  0.00  0.00     0.046 A 
HETATM   15 Br   UNK N   1       7.983   8.673   1.033  0.00  0.00    -0.048 Br
BRANCH  12  16
HETATM   16  C   UNK N   1      13.109   7.940   0.342  0.00  0.00     0.145 C 
BRANCH  16  17
HETATM   17  C   UNK N   1      14.363   7.144   0.103  0.00  0.00     0.110 C 
BRANCH  17  18
HETATM   18  O   UNK N   1      15.553   7.745   0.281  0.00  0.00    -0.778 OA
HETATM   19  H   UNK N   1      16.330   7.237   0.405  0.00  0.00     0.167 HD
ENDBRANCH  17  18
BRANCH  17  20
HETATM   20  O   UNK N   1      14.328   5.850  -0.269  0.00  0.00    -0.778 OA
HETATM   21  H   UNK N   1      13.536   5.421  -0.527  0.00  0.00     0.167 HD
ENDBRANCH  17  20
ENDBRANCH  16  17
ENDBRANCH  12  16
ENDBRANCH   7   8
ENDBRANCH   4   7
BRANCH   5  22
HETATM   22  C   UNK N   1       3.321   5.738   1.155  0.00  0.00     0.251 C 
BRANCH  22  23
HETATM   23  N   UNK N   1       2.152   5.504   0.332  0.00  0.00    -0.393 N 
HETATM   24  H   UNK N   1       2.021   4.756  -0.350  0.00  0.00     0.156 HD
BRANCH  23  25
HETATM   25  C   UNK N   1       1.204   6.550   0.675  0.00  0.00     0.121 C 
BRANCH  25  26
HETATM   26  C   UNK N   1       0.187   6.714  -0.438  0.00  0.00     0.058 C 
BRANCH  26  27
HETATM   27  C   UNK N   1      -0.827   5.634  -0.336  0.00  0.00    -0.057 A 
HETATM   28  C   UNK N   1      -0.473   4.301  -0.582  0.00  0.00     0.007 A 
HETATM   29  C   UNK N   1      -1.423   3.289  -0.436  0.00  0.00     0.001 A 
HETATM   30  C   UNK N   1      -2.726   3.608  -0.042  0.00  0.00     0.000 A 
HETATM   31  C   UNK N   1      -3.080   4.940   0.198  0.00  0.00     0.001 A 
HETATM   32  C   UNK N   1      -2.130   5.953   0.051  0.00  0.00     0.007 A 
ENDBRANCH  26  27
ENDBRANCH  25  26
ENDBRANCH  23  25
ENDBRANCH  22  23
BRANCH  22  33
HETATM   33  O   UNK N   1       3.683   4.541   1.783  0.00  0.00    -0.373 OA
HETATM   34  H   UNK N   1       3.090   3.908   2.218  0.00  0.00     0.212 HD
ENDBRANCH  22  33
ENDBRANCH   5  22
BRANCH   6  35
HETATM   35  O   UNK N   1       3.160   8.175  -0.414  0.00  0.00    -0.360 OA
HETATM   36  H   UNK N   1       3.183   9.112  -0.400  0.00  0.00     0.217 HD
ENDBRANCH   6  35
TORSDOF 13
