MODEL 1
REMARK VINA RESULT:      -8.1      0.000      0.000
REMARK  8 active torsions:
REMARK  status: ('A' for Active; 'I' for Inactive)
REMARK    1  A    between atoms: C_17  and  C_14 
REMARK    2  A    between atoms: C_22  and  C_14 
REMARK    3  A    between atoms: C_18  and  C_15 
REMARK    4  A    between atoms: C_26  and  C_15 
REMARK    5  A    between atoms: C_23  and  C_19 
REMARK    6  A    between atoms: O_32  and  C_21 
REMARK    7  A    between atoms: C_26  and  O_35 
REMARK    8  A    between atoms: O_35  and  O_34 
ROOT
HETATM    1  C   UNK N   1      29.283  25.376  -3.909  0.00  0.00     0.131 A 
HETATM    2  C   UNK N   1      26.376  24.889  -4.086  0.00  0.00     0.154 A 
HETATM    3  C   UNK N   1      28.827  24.116  -4.050  0.00  0.00     0.055 A 
HETATM    4  C   UNK N   1      26.980  26.243  -3.867  0.00  0.00     0.112 A 
HETATM    5  C   UNK N   1      28.564  27.739  -3.689  0.00  0.00     0.288 A 
HETATM    6  C   UNK N   1      27.238  28.474  -3.547  0.00  0.00     0.255 A 
HETATM    7  N   UNK N   1      27.417  23.870  -4.156  0.00  0.00    -0.376 N 
HETATM    8  N   UNK N   1      26.325  27.338  -3.704  0.00  0.00    -0.336 N 
ATOM      9  HN  UNK N   1      25.307  27.406  -3.685  1.00  0.00     0.164 HD
HETATM   10  N   UNK N   1      28.347  26.434  -3.840  0.00  0.00    -0.274 N 
HETATM   11  O   UNK N   1      29.677  28.240  -3.635  0.00  0.00    -0.267 OA
HETATM   12  H   UNK N   1      27.130  22.938  -4.287  0.00  0.00     0.160 HD
ENDROOT
BRANCH   6  13
HETATM   13  C   UNK N   1      26.961  29.478  -4.688  0.00  0.00     0.113 C 
BRANCH  13  14
HETATM   14  C   UNK N   1      27.761  29.282  -5.946  0.00  0.00    -0.053 A 
HETATM   15  C   UNK N   1      27.519  28.198  -6.806  0.00  0.00     0.009 A 
HETATM   16  C   UNK N   1      28.255  28.066  -7.990  0.00  0.00     0.019 A 
HETATM   17  C   UNK N   1      29.242  29.005  -8.307  0.00  0.00     0.011 A 
HETATM   18  C   UNK N   1      29.498  30.069  -7.440  0.00  0.00     0.019 A 
HETATM   19 Br   UNK N   1      30.234  28.842  -9.926  0.00  0.00    -0.051 Br
HETATM   20  C   UNK N   1      28.756  30.209  -6.265  0.00  0.00     0.009 A 
ENDBRANCH  13  14
ENDBRANCH   6  13
BRANCH   6  21
HETATM   21  O   UNK N   1      27.086  29.019  -2.251  0.00  0.00    -0.199 OA
BRANCH  21  22
HETATM   22  O   UNK N   1      27.901  30.057  -2.160  0.00  0.00    -0.247 OA
HETATM   23  H   UNK N   1      28.850  29.936  -2.004  0.00  0.00     0.253 HD
ENDBRANCH  21  22
ENDBRANCH   6  21
BRANCH   2  24
HETATM   24  C   UNK N   1      25.584  24.903  -5.394  0.00  0.00     0.071 C 
BRANCH  24  25
HETATM   25  C   UNK N   1      26.190  24.039  -6.458  0.00  0.00    -0.056 A 
HETATM   26  C   UNK N   1      25.724  22.732  -6.625  0.00  0.00     0.007 A 
HETATM   27  C   UNK N   1      26.277  21.913  -7.614  0.00  0.00     0.001 A 
HETATM   28  C   UNK N   1      27.297  22.399  -8.437  0.00  0.00     0.000 A 
HETATM   29  C   UNK N   1      27.760  23.709  -8.278  0.00  0.00     0.001 A 
HETATM   30  C   UNK N   1      27.204  24.529  -7.293  0.00  0.00     0.007 A 
ENDBRANCH  24  25
ENDBRANCH   2  24
BRANCH   3  31
HETATM   31  C   UNK N   1      29.755  22.961  -4.056  0.00  0.00    -0.008 A 
HETATM   32  C   UNK N   1      30.626  22.717  -2.981  0.00  0.00     0.016 A 
HETATM   33  C   UNK N   1      31.460  21.594  -2.991  0.00  0.00     0.037 A 
HETATM   34  C   UNK N   1      31.436  20.712  -4.076  0.00  0.00     0.065 A 
HETATM   35  C   UNK N   1      30.579  20.953  -5.152  0.00  0.00     0.037 A 
HETATM   36  C   UNK N   1      29.738  22.068  -5.138  0.00  0.00     0.016 A 
BRANCH  34  37
HETATM   37  O   UNK N   1      32.237  19.634  -4.085  0.00  0.00    -0.361 OA
HETATM   38  H   UNK N   1      32.981  19.608  -4.652  0.00  0.00     0.217 HD
ENDBRANCH  34  37
ENDBRANCH   3  31
TORSDOF 8
ENDMDL
MODEL 2
REMARK VINA RESULT:      -7.9     19.711     23.800
REMARK  8 active torsions:
REMARK  status: ('A' for Active; 'I' for Inactive)
REMARK    1  A    between atoms: C_17  and  C_14 
REMARK    2  A    between atoms: C_22  and  C_14 
REMARK    3  A    between atoms: C_18  and  C_15 
REMARK    4  A    between atoms: C_26  and  C_15 
REMARK    5  A    between atoms: C_23  and  C_19 
REMARK    6  A    between atoms: O_32  and  C_21 
REMARK    7  A    between atoms: C_26  and  O_35 
REMARK    8  A    between atoms: O_35  and  O_34 
ROOT
HETATM    1  C   UNK N   1      37.256  11.640  12.193  0.00  0.00     0.131 A 
HETATM    2  C   UNK N   1      36.600  13.315  14.536  0.00  0.00     0.154 A 
HETATM    3  C   UNK N   1      37.502  11.175  13.434  0.00  0.00     0.055 A 
HETATM    4  C   UNK N   1      36.422  13.764  13.118  0.00  0.00     0.112 A 
HETATM    5  C   UNK N   1      36.384  13.593  10.939  0.00  0.00     0.288 A 
HETATM    6  C   UNK N   1      35.920  15.002  11.284  0.00  0.00     0.255 A 
HETATM    7  N   UNK N   1      37.170  11.972  14.579  0.00  0.00    -0.376 N 
HETATM    8  N   UNK N   1      35.998  14.919  12.746  0.00  0.00    -0.336 N 
ATOM      9  HN  UNK N   1      35.750  15.677  13.382  1.00  0.00     0.164 HD
HETATM   10  N   UNK N   1      36.695  12.930  12.051  0.00  0.00    -0.274 N 
HETATM   11  O   UNK N   1      36.503  13.128   9.815  0.00  0.00    -0.267 OA
HETATM   12  H   UNK N   1      37.340  11.581  15.466  0.00  0.00     0.160 HD
ENDROOT
BRANCH   6  13
HETATM   13  C   UNK N   1      34.452  15.284  10.893  0.00  0.00     0.113 C 
BRANCH  13  14
HETATM   14  C   UNK N   1      34.226  15.763   9.487  0.00  0.00    -0.053 A 
HETATM   15  C   UNK N   1      33.884  14.872   8.456  0.00  0.00     0.009 A 
HETATM   16  C   UNK N   1      33.640  15.355   7.164  0.00  0.00     0.019 A 
HETATM   17  C   UNK N   1      33.755  16.724   6.898  0.00  0.00     0.011 A 
HETATM   18  C   UNK N   1      34.117  17.606   7.917  0.00  0.00     0.019 A 
HETATM   19 Br   UNK N   1      33.406  17.391   5.147  0.00  0.00    -0.051 Br
HETATM   20  C   UNK N   1      34.347  17.127   9.209  0.00  0.00     0.009 A 
ENDBRANCH  13  14
ENDBRANCH   6  13
BRANCH   6  21
HETATM   21  O   UNK N   1      36.836  15.975  10.823  0.00  0.00    -0.199 OA
BRANCH  21  22
HETATM   22  O   UNK N   1      37.857  15.332  10.279  0.00  0.00    -0.247 OA
HETATM   23  H   UNK N   1      37.730  14.743   9.519  0.00  0.00     0.253 HD
ENDBRANCH  21  22
ENDBRANCH   6  21
BRANCH   2  24
HETATM   24  C   UNK N   1      35.239  13.315  15.232  0.00  0.00     0.071 C 
BRANCH  24  25
HETATM   25  C   UNK N   1      35.296  12.797  16.636  0.00  0.00    -0.056 A 
HETATM   26  C   UNK N   1      35.206  13.696  17.702  0.00  0.00     0.007 A 
HETATM   27  C   UNK N   1      35.255  13.229  19.019  0.00  0.00     0.001 A 
HETATM   28  C   UNK N   1      35.395  11.861  19.272  0.00  0.00     0.000 A 
HETATM   29  C   UNK N   1      35.477  10.958  18.209  0.00  0.00     0.001 A 
HETATM   30  C   UNK N   1      35.422  11.424  16.893  0.00  0.00     0.007 A 
ENDBRANCH  24  25
ENDBRANCH   2  24
BRANCH   3  31
HETATM   31  C   UNK N   1      38.154   9.861  13.643  0.00  0.00    -0.008 A 
HETATM   32  C   UNK N   1      38.385   8.980  12.574  0.00  0.00     0.016 A 
HETATM   33  C   UNK N   1      39.044   7.765  12.791  0.00  0.00     0.037 A 
HETATM   34  C   UNK N   1      39.470   7.418  14.077  0.00  0.00     0.065 A 
HETATM   35  C   UNK N   1      39.237   8.285  15.146  0.00  0.00     0.037 A 
HETATM   36  C   UNK N   1      38.589   9.503  14.929  0.00  0.00     0.016 A 
BRANCH  34  37
HETATM   37  O   UNK N   1      40.103   6.252  14.285  0.00  0.00    -0.361 OA
HETATM   38  H   UNK N   1      41.005   6.248  14.538  0.00  0.00     0.217 HD
ENDBRANCH  34  37
ENDBRANCH   3  31
TORSDOF 8
ENDMDL
MODEL 3
REMARK VINA RESULT:      -7.6     21.529     24.743
REMARK  8 active torsions:
REMARK  status: ('A' for Active; 'I' for Inactive)
REMARK    1  A    between atoms: C_17  and  C_14 
REMARK    2  A    between atoms: C_22  and  C_14 
REMARK    3  A    between atoms: C_18  and  C_15 
REMARK    4  A    between atoms: C_26  and  C_15 
REMARK    5  A    between atoms: C_23  and  C_19 
REMARK    6  A    between atoms: O_32  and  C_21 
REMARK    7  A    between atoms: C_26  and  O_35 
REMARK    8  A    between atoms: O_35  and  O_34 
ROOT
HETATM    1  C   UNK N   1      35.769  12.911  15.294  0.00  0.00     0.131 A 
HETATM    2  C   UNK N   1      34.446  10.808  13.697  0.00  0.00     0.154 A 
HETATM    3  C   UNK N   1      35.403  11.757  15.886  0.00  0.00     0.055 A 
HETATM    4  C   UNK N   1      34.835  12.146  13.148  0.00  0.00     0.112 A 
HETATM    5  C   UNK N   1      35.751  14.131  13.135  0.00  0.00     0.288 A 
HETATM    6  C   UNK N   1      35.163  13.902  11.749  0.00  0.00     0.255 A 
HETATM    7  N   UNK N   1      34.777  10.721  15.115  0.00  0.00    -0.376 N 
HETATM    8  N   UNK N   1      34.623  12.554  11.947  0.00  0.00    -0.336 N 
ATOM      9  HN  UNK N   1      34.142  12.012  11.229  1.00  0.00     0.164 HD
HETATM   10  N   UNK N   1      35.497  13.083  13.917  0.00  0.00    -0.274 N 
HETATM   11  O   UNK N   1      36.336  15.135  13.514  0.00  0.00    -0.267 OA
HETATM   12  H   UNK N   1      34.553   9.884  15.582  0.00  0.00     0.160 HD
ENDROOT
BRANCH   6  13
HETATM   13  C   UNK N   1      36.225  13.838  10.629  0.00  0.00     0.113 C 
BRANCH  13  14
HETATM   14  C   UNK N   1      36.548  12.466  10.107  0.00  0.00    -0.053 A 
HETATM   15  C   UNK N   1      37.622  11.721  10.621  0.00  0.00     0.009 A 
HETATM   16  C   UNK N   1      37.873  10.430  10.141  0.00  0.00     0.019 A 
HETATM   17  C   UNK N   1      37.064   9.889   9.136  0.00  0.00     0.011 A 
HETATM   18  C   UNK N   1      36.010  10.639   8.609  0.00  0.00     0.019 A 
HETATM   19 Br   UNK N   1      37.387   8.125   8.491  0.00  0.00    -0.051 Br
HETATM   20  C   UNK N   1      35.751  11.922   9.096  0.00  0.00     0.009 A 
ENDBRANCH  13  14
ENDBRANCH   6  13
BRANCH   6  21
HETATM   21  O   UNK N   1      34.100  14.796  11.485  0.00  0.00    -0.199 OA
BRANCH  21  22
HETATM   22  O   UNK N   1      34.634  15.971  11.194  0.00  0.00    -0.247 OA
HETATM   23  H   UNK N   1      35.592  16.111  11.243  0.00  0.00     0.253 HD
ENDBRANCH  21  22
ENDBRANCH   6  21
BRANCH   2  24
HETATM   24  C   UNK N   1      35.196   9.718  12.929  0.00  0.00     0.071 C 
BRANCH  24  25
HETATM   25  C   UNK N   1      34.344   9.023  11.912  0.00  0.00    -0.056 A 
HETATM   26  C   UNK N   1      34.541   7.660  11.672  0.00  0.00     0.007 A 
HETATM   27  C   UNK N   1      33.754   6.995  10.726  0.00  0.00     0.001 A 
HETATM   28  C   UNK N   1      32.769   7.691  10.020  0.00  0.00     0.000 A 
HETATM   29  C   UNK N   1      32.564   9.053  10.263  0.00  0.00     0.001 A 
HETATM   30  C   UNK N   1      33.347   9.716  11.212  0.00  0.00     0.007 A 
ENDBRANCH  24  25
ENDBRANCH   2  24
BRANCH   3  31
HETATM   31  C   UNK N   1      35.597  11.547  17.340  0.00  0.00    -0.008 A 
HETATM   32  C   UNK N   1      35.198  12.514  18.278  0.00  0.00     0.016 A 
HETATM   33  C   UNK N   1      35.350  12.272  19.648  0.00  0.00     0.037 A 
HETATM   34  C   UNK N   1      35.908  11.068  20.089  0.00  0.00     0.065 A 
HETATM   35  C   UNK N   1      36.315  10.106  19.162  0.00  0.00     0.037 A 
HETATM   36  C   UNK N   1      36.154  10.342  17.795  0.00  0.00     0.016 A 
BRANCH  34  37
HETATM   37  O   UNK N   1      36.053  10.836  21.404  0.00  0.00    -0.361 OA
HETATM   38  H   UNK N   1      35.687  11.430  22.028  0.00  0.00     0.217 HD
ENDBRANCH  34  37
ENDBRANCH   3  31
TORSDOF 8
ENDMDL
MODEL 4
REMARK VINA RESULT:      -7.6     15.377     17.753
REMARK  8 active torsions:
REMARK  status: ('A' for Active; 'I' for Inactive)
REMARK    1  A    between atoms: C_17  and  C_14 
REMARK    2  A    between atoms: C_22  and  C_14 
REMARK    3  A    between atoms: C_18  and  C_15 
REMARK    4  A    between atoms: C_26  and  C_15 
REMARK    5  A    between atoms: C_23  and  C_19 
REMARK    6  A    between atoms: O_32  and  C_21 
REMARK    7  A    between atoms: C_26  and  O_35 
REMARK    8  A    between atoms: O_35  and  O_34 
ROOT
HETATM    1  C   UNK N   1      21.450  12.437   7.549  0.00  0.00     0.131 A 
HETATM    2  C   UNK N   1      23.080  14.530   6.252  0.00  0.00     0.154 A 
HETATM    3  C   UNK N   1      22.423  13.051   8.249  0.00  0.00     0.055 A 
HETATM    4  C   UNK N   1      22.017  13.746   5.543  0.00  0.00     0.112 A 
HETATM    5  C   UNK N   1      20.363  12.335   5.322  0.00  0.00     0.288 A 
HETATM    6  C   UNK N   1      20.601  12.961   3.954  0.00  0.00     0.255 A 
HETATM    7  N   UNK N   1      23.208  14.083   7.635  0.00  0.00    -0.376 N 
HETATM    8  N   UNK N   1      21.705  13.861   4.301  0.00  0.00    -0.336 N 
ATOM      9  HN  UNK N   1      22.164  14.493   3.645  1.00  0.00     0.164 HD
HETATM   10  N   UNK N   1      21.244  12.810   6.200  0.00  0.00    -0.274 N 
HETATM   11  O   UNK N   1      19.523  11.489   5.592  0.00  0.00    -0.267 OA
HETATM   12  H   UNK N   1      23.888  14.525   8.192  0.00  0.00     0.160 HD
ENDROOT
BRANCH   6  13
HETATM   13  C   UNK N   1      19.419  13.817   3.450  0.00  0.00     0.113 C 
BRANCH  13  14
HETATM   14  C   UNK N   1      19.747  15.234   3.070  0.00  0.00    -0.053 A 
HETATM   15  C   UNK N   1      20.173  15.565   1.774  0.00  0.00     0.009 A 
HETATM   16  C   UNK N   1      20.433  16.900   1.441  0.00  0.00     0.019 A 
HETATM   17  C   UNK N   1      20.284  17.902   2.405  0.00  0.00     0.011 A 
HETATM   18  C   UNK N   1      19.882  17.570   3.701  0.00  0.00     0.019 A 
HETATM   19 Br   UNK N   1      20.616  19.723   1.954  0.00  0.00    -0.051 Br
HETATM   20  C   UNK N   1      19.610  16.240   4.031  0.00  0.00     0.009 A 
ENDBRANCH  13  14
ENDBRANCH   6  13
BRANCH   6  21
HETATM   21  O   UNK N   1      21.057  12.002   3.021  0.00  0.00    -0.199 OA
BRANCH  21  22
HETATM   22  O   UNK N   1      20.031  11.225   2.716  0.00  0.00    -0.247 OA
HETATM   23  H   UNK N   1      20.043  10.277   2.920  0.00  0.00     0.253 HD
ENDBRANCH  21  22
ENDBRANCH   6  21
BRANCH   2  24
HETATM   24  C   UNK N   1      22.705  16.012   6.226  0.00  0.00     0.071 C 
BRANCH  24  25
HETATM   25  C   UNK N   1      23.577  16.825   5.319  0.00  0.00    -0.056 A 
HETATM   26  C   UNK N   1      24.759  16.266   4.825  0.00  0.00     0.007 A 
HETATM   27  C   UNK N   1      25.584  17.010   3.975  0.00  0.00     0.001 A 
HETATM   28  C   UNK N   1      25.228  18.314   3.619  0.00  0.00     0.000 A 
HETATM   29  C   UNK N   1      24.043  18.874   4.105  0.00  0.00     0.001 A 
HETATM   30  C   UNK N   1      23.216  18.128   4.949  0.00  0.00     0.007 A 
ENDBRANCH  24  25
ENDBRANCH   2  24
BRANCH   3  31
HETATM   31  C   UNK N   1      22.732  12.653   9.642  0.00  0.00    -0.008 A 
HETATM   32  C   UNK N   1      24.055  12.452  10.069  0.00  0.00     0.016 A 
HETATM   33  C   UNK N   1      24.323  12.121  11.402  0.00  0.00     0.037 A 
HETATM   34  C   UNK N   1      23.273  11.981  12.314  0.00  0.00     0.065 A 
HETATM   35  C   UNK N   1      21.955  12.170  11.895  0.00  0.00     0.037 A 
HETATM   36  C   UNK N   1      21.686  12.511  10.567  0.00  0.00     0.016 A 
BRANCH  34  37
HETATM   37  O   UNK N   1      23.531  11.663  13.594  0.00  0.00    -0.361 OA
HETATM   38  H   UNK N   1      24.173  11.012  13.794  0.00  0.00     0.217 HD
ENDBRANCH  34  37
ENDBRANCH   3  31
TORSDOF 8
ENDMDL
MODEL 5
REMARK VINA RESULT:      -7.5     12.668     15.886
REMARK  8 active torsions:
REMARK  status: ('A' for Active; 'I' for Inactive)
REMARK    1  A    between atoms: C_17  and  C_14 
REMARK    2  A    between atoms: C_22  and  C_14 
REMARK    3  A    between atoms: C_18  and  C_15 
REMARK    4  A    between atoms: C_26  and  C_15 
REMARK    5  A    between atoms: C_23  and  C_19 
REMARK    6  A    between atoms: O_32  and  C_21 
REMARK    7  A    between atoms: C_26  and  O_35 
REMARK    8  A    between atoms: O_35  and  O_34 
ROOT
HETATM    1  C   UNK N   1      31.959  14.741   6.758  0.00  0.00     0.131 A 
HETATM    2  C   UNK N   1      30.443  17.215   6.208  0.00  0.00     0.154 A 
HETATM    3  C   UNK N   1      32.273  15.874   7.417  0.00  0.00     0.055 A 
HETATM    4  C   UNK N   1      30.213  15.922   5.487  0.00  0.00     0.112 A 
HETATM    5  C   UNK N   1      30.443  13.794   5.039  0.00  0.00     0.288 A 
HETATM    6  C   UNK N   1      29.388  14.339   4.086  0.00  0.00     0.255 A 
HETATM    7  N   UNK N   1      31.530  17.076   7.171  0.00  0.00    -0.376 N 
HETATM    8  N   UNK N   1      29.366  15.733   4.538  0.00  0.00    -0.336 N 
ATOM      9  HN  UNK N   1      28.760  16.458   4.151  1.00  0.00     0.164 HD
HETATM   10  N   UNK N   1      30.911  14.775   5.810  0.00  0.00    -0.274 N 
HETATM   11  O   UNK N   1      30.850  12.642   5.085  0.00  0.00    -0.267 OA
HETATM   12  H   UNK N   1      31.774  17.873   7.695  0.00  0.00     0.160 HD
ENDROOT
BRANCH   6  13
HETATM   13  C   UNK N   1      27.983  13.737   4.307  0.00  0.00     0.113 C 
BRANCH  13  14
HETATM   14  C   UNK N   1      26.865  14.724   4.490  0.00  0.00    -0.053 A 
HETATM   15  C   UNK N   1      26.371  15.045   5.765  0.00  0.00     0.009 A 
HETATM   16  C   UNK N   1      25.356  15.998   5.904  0.00  0.00     0.019 A 
HETATM   17  C   UNK N   1      24.821  16.619   4.771  0.00  0.00     0.011 A 
HETATM   18  C   UNK N   1      25.295  16.284   3.501  0.00  0.00     0.019 A 
HETATM   19 Br   UNK N   1      23.452  17.933   4.954  0.00  0.00    -0.051 Br
HETATM   20  C   UNK N   1      26.318  15.342   3.362  0.00  0.00     0.009 A 
ENDBRANCH  13  14
ENDBRANCH   6  13
BRANCH   6  21
HETATM   21  O   UNK N   1      29.831  14.291   2.744  0.00  0.00    -0.199 OA
BRANCH  21  22
HETATM   22  O   UNK N   1      29.779  13.028   2.355  0.00  0.00    -0.247 OA
HETATM   23  H   UNK N   1      29.510  12.326   2.967  0.00  0.00     0.253 HD
ENDBRANCH  21  22
ENDBRANCH   6  21
BRANCH   2  24
HETATM   24  C   UNK N   1      29.159  17.611   6.939  0.00  0.00     0.071 C 
BRANCH  24  25
HETATM   25  C   UNK N   1      28.376  18.667   6.221  0.00  0.00    -0.056 A 
HETATM   26  C   UNK N   1      27.818  19.720   6.952  0.00  0.00     0.007 A 
HETATM   27  C   UNK N   1      27.085  20.716   6.298  0.00  0.00     0.001 A 
HETATM   28  C   UNK N   1      26.908  20.659   4.913  0.00  0.00     0.000 A 
HETATM   29  C   UNK N   1      27.471  19.611   4.178  0.00  0.00     0.001 A 
HETATM   30  C   UNK N   1      28.208  18.620   4.830  0.00  0.00     0.007 A 
ENDBRANCH  24  25
ENDBRANCH   2  24
BRANCH   3  31
HETATM   31  C   UNK N   1      33.407  15.917   8.369  0.00  0.00    -0.008 A 
HETATM   32  C   UNK N   1      34.096  14.751   8.740  0.00  0.00     0.016 A 
HETATM   33  C   UNK N   1      35.193  14.825   9.606  0.00  0.00     0.037 A 
HETATM   34  C   UNK N   1      35.604  16.061  10.112  0.00  0.00     0.065 A 
HETATM   35  C   UNK N   1      34.919  17.225   9.754  0.00  0.00     0.037 A 
HETATM   36  C   UNK N   1      33.831  17.153   8.881  0.00  0.00     0.016 A 
BRANCH  34  37
HETATM   37  O   UNK N   1      36.657  16.132  10.942  0.00  0.00    -0.361 OA
HETATM   38  H   UNK N   1      36.857  16.938  11.377  0.00  0.00     0.217 HD
ENDBRANCH  34  37
ENDBRANCH   3  31
TORSDOF 8
ENDMDL
MODEL 6
REMARK VINA RESULT:      -7.5     21.148     24.926
REMARK  8 active torsions:
REMARK  status: ('A' for Active; 'I' for Inactive)
REMARK    1  A    between atoms: C_17  and  C_14 
REMARK    2  A    between atoms: C_22  and  C_14 
REMARK    3  A    between atoms: C_18  and  C_15 
REMARK    4  A    between atoms: C_26  and  C_15 
REMARK    5  A    between atoms: C_23  and  C_19 
REMARK    6  A    between atoms: O_32  and  C_21 
REMARK    7  A    between atoms: C_26  and  O_35 
REMARK    8  A    between atoms: O_35  and  O_34 
ROOT
HETATM    1  C   UNK N   1      35.394  13.400  14.234  0.00  0.00     0.131 A 
HETATM    2  C   UNK N   1      34.340  10.928  13.011  0.00  0.00     0.154 A 
HETATM    3  C   UNK N   1      35.086  12.349  15.019  0.00  0.00     0.055 A 
HETATM    4  C   UNK N   1      34.655  12.170  12.235  0.00  0.00     0.112 A 
HETATM    5  C   UNK N   1      35.410  14.191  11.884  0.00  0.00     0.288 A 
HETATM    6  C   UNK N   1      34.927  13.656  10.542  0.00  0.00     0.255 A 
HETATM    7  N   UNK N   1      34.591  11.137  14.433  0.00  0.00    -0.376 N 
HETATM    8  N   UNK N   1      34.484  12.326  10.969  0.00  0.00    -0.336 N 
ATOM      9  HN  UNK N   1      34.092  11.619  10.347  1.00  0.00     0.164 HD
HETATM   10  N   UNK N   1      35.193  13.289  12.839  0.00  0.00    -0.274 N 
HETATM   11  O   UNK N   1      35.891  15.296  12.090  0.00  0.00    -0.267 OA
HETATM   12  H   UNK N   1      34.406  10.385  15.040  0.00  0.00     0.160 HD
ENDROOT
BRANCH   6  13
HETATM   13  C   UNK N   1      36.057  13.479   9.503  0.00  0.00     0.113 C 
BRANCH  13  14
HETATM   14  C   UNK N   1      36.686  12.116   9.442  0.00  0.00    -0.053 A 
HETATM   15  C   UNK N   1      37.816  11.795  10.212  0.00  0.00     0.009 A 
HETATM   16  C   UNK N   1      38.355  10.503  10.163  0.00  0.00     0.019 A 
HETATM   17  C   UNK N   1      37.778   9.538   9.331  0.00  0.00     0.011 A 
HETATM   18  C   UNK N   1      36.669   9.863   8.547  0.00  0.00     0.019 A 
HETATM   19 Br   UNK N   1      38.494   7.773   9.272  0.00  0.00    -0.051 Br
HETATM   20  C   UNK N   1      36.123  11.148   8.606  0.00  0.00     0.009 A 
ENDBRANCH  13  14
ENDBRANCH   6  13
BRANCH   6  21
HETATM   21  O   UNK N   1      33.815  14.388  10.066  0.00  0.00    -0.199 OA
BRANCH  21  22
HETATM   22  O   UNK N   1      33.252  14.976  11.108  0.00  0.00    -0.247 OA
HETATM   23  H   UNK N   1      33.785  15.464  11.756  0.00  0.00     0.253 HD
ENDBRANCH  21  22
ENDBRANCH   6  21
BRANCH   2  24
HETATM   24  C   UNK N   1      35.218   9.785  12.499  0.00  0.00     0.071 C 
BRANCH  24  25
HETATM   25  C   UNK N   1      36.277   9.373  13.475  0.00  0.00    -0.056 A 
HETATM   26  C   UNK N   1      36.046   8.278  14.313  0.00  0.00     0.007 A 
HETATM   27  C   UNK N   1      37.024   7.878  15.229  0.00  0.00     0.001 A 
HETATM   28  C   UNK N   1      38.234   8.574  15.309  0.00  0.00     0.000 A 
HETATM   29  C   UNK N   1      38.471   9.665  14.469  0.00  0.00     0.001 A 
HETATM   30  C   UNK N   1      37.496  10.061  13.549  0.00  0.00     0.007 A 
ENDBRANCH  24  25
ENDBRANCH   2  24
BRANCH   3  31
HETATM   31  C   UNK N   1      35.207  12.432  16.493  0.00  0.00    -0.008 A 
HETATM   32  C   UNK N   1      35.075  13.655  17.171  0.00  0.00     0.016 A 
HETATM   33  C   UNK N   1      35.148  13.700  18.567  0.00  0.00     0.037 A 
HETATM   34  C   UNK N   1      35.362  12.525  19.295  0.00  0.00     0.065 A 
HETATM   35  C   UNK N   1      35.503  11.307  18.628  0.00  0.00     0.037 A 
HETATM   36  C   UNK N   1      35.419  11.260  17.235  0.00  0.00     0.016 A 
BRANCH  34  37
HETATM   37  O   UNK N   1      35.432  12.568  20.636  0.00  0.00    -0.361 OA
HETATM   38  H   UNK N   1      34.977  11.929  21.149  0.00  0.00     0.217 HD
ENDBRANCH  34  37
ENDBRANCH   3  31
TORSDOF 8
ENDMDL
MODEL 7
REMARK VINA RESULT:      -7.4      3.678      7.420
REMARK  8 active torsions:
REMARK  status: ('A' for Active; 'I' for Inactive)
REMARK    1  A    between atoms: C_17  and  C_14 
REMARK    2  A    between atoms: C_22  and  C_14 
REMARK    3  A    between atoms: C_18  and  C_15 
REMARK    4  A    between atoms: C_26  and  C_15 
REMARK    5  A    between atoms: C_23  and  C_19 
REMARK    6  A    between atoms: O_32  and  C_21 
REMARK    7  A    between atoms: C_26  and  O_35 
REMARK    8  A    between atoms: O_35  and  O_34 
ROOT
HETATM    1  C   UNK N   1      26.029  25.406  -7.140  0.00  0.00     0.131 A 
HETATM    2  C   UNK N   1      27.889  23.389  -6.049  0.00  0.00     0.154 A 
HETATM    3  C   UNK N   1      26.746  25.691  -6.035  0.00  0.00     0.055 A 
HETATM    4  C   UNK N   1      27.004  23.148  -7.233  0.00  0.00     0.112 A 
HETATM    5  C   UNK N   1      25.576  23.634  -8.815  0.00  0.00     0.288 A 
HETATM    6  C   UNK N   1      25.978  22.178  -9.009  0.00  0.00     0.255 A 
HETATM    7  N   UNK N   1      27.667  24.725  -5.508  0.00  0.00    -0.376 N 
HETATM    8  N   UNK N   1      26.921  22.048  -7.895  0.00  0.00    -0.336 N 
ATOM      9  HN  UNK N   1      27.441  21.198  -7.673  1.00  0.00     0.164 HD
HETATM   10  N   UNK N   1      26.184  24.135  -7.741  0.00  0.00    -0.274 N 
HETATM   11  O   UNK N   1      24.785  24.263  -9.503  0.00  0.00    -0.267 OA
HETATM   12  H   UNK N   1      28.191  24.986  -4.717  0.00  0.00     0.160 HD
ENDROOT
BRANCH   6  13
HETATM   13  C   UNK N   1      26.744  21.917 -10.325  0.00  0.00     0.113 C 
BRANCH  13  14
HETATM   14  C   UNK N   1      28.214  21.635 -10.185  0.00  0.00    -0.053 A 
HETATM   15  C   UNK N   1      28.695  20.330  -9.988  0.00  0.00     0.009 A 
HETATM   16  C   UNK N   1      30.072  20.096  -9.902  0.00  0.00     0.019 A 
HETATM   17  C   UNK N   1      30.969  21.165  -9.995  0.00  0.00     0.011 A 
HETATM   18  C   UNK N   1      30.491  22.465 -10.167  0.00  0.00     0.019 A 
HETATM   19 Br   UNK N   1      32.847  20.852  -9.897  0.00  0.00    -0.051 Br
HETATM   20  C   UNK N   1      29.117  22.698 -10.266  0.00  0.00     0.009 A 
ENDBRANCH  13  14
ENDBRANCH   6  13
BRANCH   6  21
HETATM   21  O   UNK N   1      24.883  21.309  -8.798  0.00  0.00    -0.199 OA
BRANCH  21  22
HETATM   22  O   UNK N   1      23.911  22.021  -8.252  0.00  0.00    -0.247 OA
HETATM   23  H   UNK N   1      23.434  22.692  -8.765  0.00  0.00     0.253 HD
ENDBRANCH  21  22
ENDBRANCH   6  21
BRANCH   2  24
HETATM   24  C   UNK N   1      29.349  23.249  -6.482  0.00  0.00     0.071 C 
BRANCH  24  25
HETATM   25  C   UNK N   1      30.068  22.138  -5.781  0.00  0.00    -0.056 A 
HETATM   26  C   UNK N   1      30.754  21.182  -6.536  0.00  0.00     0.007 A 
HETATM   27  C   UNK N   1      31.432  20.139  -5.897  0.00  0.00     0.001 A 
HETATM   28  C   UNK N   1      31.425  20.050  -4.502  0.00  0.00     0.000 A 
HETATM   29  C   UNK N   1      30.746  21.008  -3.743  0.00  0.00     0.001 A 
HETATM   30  C   UNK N   1      30.074  22.054  -4.381  0.00  0.00     0.007 A 
ENDBRANCH  24  25
ENDBRANCH   2  24
BRANCH   3  31
HETATM   31  C   UNK N   1      26.573  26.977  -5.320  0.00  0.00    -0.008 A 
HETATM   32  C   UNK N   1      25.876  27.049  -4.103  0.00  0.00     0.016 A 
HETATM   33  C   UNK N   1      25.766  28.268  -3.425  0.00  0.00     0.037 A 
HETATM   34  C   UNK N   1      26.344  29.423  -3.961  0.00  0.00     0.065 A 
HETATM   35  C   UNK N   1      27.031  29.361  -5.175  0.00  0.00     0.037 A 
HETATM   36  C   UNK N   1      27.150  28.142  -5.847  0.00  0.00     0.016 A 
BRANCH  34  37
HETATM   37  O   UNK N   1      26.239  30.593  -3.309  0.00  0.00    -0.361 OA
HETATM   38  H   UNK N   1      25.853  31.333  -3.735  0.00  0.00     0.217 HD
ENDBRANCH  34  37
ENDBRANCH   3  31
TORSDOF 8
ENDMDL
MODEL 8
REMARK VINA RESULT:      -7.3     13.818     16.279
REMARK  8 active torsions:
REMARK  status: ('A' for Active; 'I' for Inactive)
REMARK    1  A    between atoms: C_17  and  C_14 
REMARK    2  A    between atoms: C_22  and  C_14 
REMARK    3  A    between atoms: C_18  and  C_15 
REMARK    4  A    between atoms: C_26  and  C_15 
REMARK    5  A    between atoms: C_23  and  C_19 
REMARK    6  A    between atoms: O_32  and  C_21 
REMARK    7  A    between atoms: C_26  and  O_35 
REMARK    8  A    between atoms: O_35  and  O_34 
ROOT
HETATM    1  C   UNK N   1      24.773  14.387   6.895  0.00  0.00     0.131 A 
HETATM    2  C   UNK N   1      22.687  15.424   5.081  0.00  0.00     0.154 A 
HETATM    3  C   UNK N   1      23.474  14.196   7.197  0.00  0.00     0.055 A 
HETATM    4  C   UNK N   1      24.154  15.637   4.867  0.00  0.00     0.112 A 
HETATM    5  C   UNK N   1      26.298  15.410   5.227  0.00  0.00     0.288 A 
HETATM    6  C   UNK N   1      26.144  16.283   3.989  0.00  0.00     0.255 A 
HETATM    7  N   UNK N   1      22.453  14.679   6.313  0.00  0.00    -0.376 N 
HETATM    8  N   UNK N   1      24.681  16.308   3.904  0.00  0.00    -0.336 N 
ATOM      9  HN  UNK N   1      24.152  16.792   3.178  1.00  0.00     0.164 HD
HETATM   10  N   UNK N   1      25.099  15.093   5.713  0.00  0.00    -0.274 N 
HETATM   11  O   UNK N   1      27.352  15.069   5.745  0.00  0.00    -0.267 OA
HETATM   12  H   UNK N   1      21.518  14.491   6.558  0.00  0.00     0.160 HD
ENDROOT
BRANCH   6  13
HETATM   13  C   UNK N   1      26.693  15.632   2.700  0.00  0.00     0.113 C 
BRANCH  13  14
HETATM   14  C   UNK N   1      25.817  14.588   2.066  0.00  0.00    -0.053 A 
HETATM   15  C   UNK N   1      24.826  14.932   1.131  0.00  0.00     0.009 A 
HETATM   16  C   UNK N   1      24.054  13.932   0.528  0.00  0.00     0.019 A 
HETATM   17  C   UNK N   1      24.257  12.591   0.870  0.00  0.00     0.011 A 
HETATM   18  C   UNK N   1      25.226  12.251   1.816  0.00  0.00     0.019 A 
HETATM   19 Br   UNK N   1      23.223  11.223   0.040  0.00  0.00    -0.051 Br
HETATM   20  C   UNK N   1      26.007  13.247   2.409  0.00  0.00     0.009 A 
ENDBRANCH  13  14
ENDBRANCH   6  13
BRANCH   6  21
HETATM   21  O   UNK N   1      26.620  17.594   4.220  0.00  0.00    -0.199 OA
BRANCH  21  22
HETATM   22  O   UNK N   1      27.940  17.556   4.141  0.00  0.00    -0.247 OA
HETATM   23  H   UNK N   1      28.387  17.437   3.289  0.00  0.00     0.253 HD
ENDBRANCH  21  22
ENDBRANCH   6  21
BRANCH   2  24
HETATM   24  C   UNK N   1      22.119  14.643   3.895  0.00  0.00     0.071 C 
BRANCH  24  25
HETATM   25  C   UNK N   1      21.367  15.504   2.927  0.00  0.00    -0.056 A 
HETATM   26  C   UNK N   1      21.089  16.832   3.266  0.00  0.00     0.007 A 
HETATM   27  C   UNK N   1      20.390  17.650   2.373  0.00  0.00     0.001 A 
HETATM   28  C   UNK N   1      19.967  17.143   1.141  0.00  0.00     0.000 A 
HETATM   29  C   UNK N   1      20.250  15.818   0.796  0.00  0.00     0.001 A 
HETATM   30  C   UNK N   1      20.954  15.001   1.685  0.00  0.00     0.007 A 
ENDBRANCH  24  25
ENDBRANCH   2  24
BRANCH   3  31
HETATM   31  C   UNK N   1      23.071  13.527   8.456  0.00  0.00    -0.008 A 
HETATM   32  C   UNK N   1      23.983  12.763   9.203  0.00  0.00     0.016 A 
HETATM   33  C   UNK N   1      23.590  12.180  10.413  0.00  0.00     0.037 A 
HETATM   34  C   UNK N   1      22.283  12.349  10.880  0.00  0.00     0.065 A 
HETATM   35  C   UNK N   1      21.368  13.100  10.139  0.00  0.00     0.037 A 
HETATM   36  C   UNK N   1      21.763  13.692   8.937  0.00  0.00     0.016 A 
BRANCH  34  37
HETATM   37  O   UNK N   1      21.906  11.790  12.042  0.00  0.00    -0.361 OA
HETATM   38  H   UNK N   1      22.528  11.317  12.557  0.00  0.00     0.217 HD
ENDBRANCH  34  37
ENDBRANCH   3  31
TORSDOF 8
ENDMDL
MODEL 9
REMARK VINA RESULT:      -7.3     11.688     15.797
REMARK  8 active torsions:
REMARK  status: ('A' for Active; 'I' for Inactive)
REMARK    1  A    between atoms: C_17  and  C_14 
REMARK    2  A    between atoms: C_22  and  C_14 
REMARK    3  A    between atoms: C_18  and  C_15 
REMARK    4  A    between atoms: C_26  and  C_15 
REMARK    5  A    between atoms: C_23  and  C_19 
REMARK    6  A    between atoms: O_32  and  C_21 
REMARK    7  A    between atoms: C_26  and  O_35 
REMARK    8  A    between atoms: O_35  and  O_34 
ROOT
HETATM    1  C   UNK N   1      28.079  18.509   6.303  0.00  0.00     0.131 A 
HETATM    2  C   UNK N   1      30.083  17.282   4.514  0.00  0.00     0.154 A 
HETATM    3  C   UNK N   1      27.850  18.469   4.976  0.00  0.00     0.055 A 
HETATM    4  C   UNK N   1      30.270  17.430   5.993  0.00  0.00     0.112 A 
HETATM    5  C   UNK N   1      29.727  17.908   8.056  0.00  0.00     0.288 A 
HETATM    6  C   UNK N   1      31.140  17.341   8.087  0.00  0.00     0.255 A 
HETATM    7  N   UNK N   1      28.808  17.858   4.100  0.00  0.00    -0.376 N 
HETATM    8  N   UNK N   1      31.314  17.077   6.655  0.00  0.00    -0.336 N 
ATOM      9  HN  UNK N   1      32.152  16.668   6.240  1.00  0.00     0.164 HD
HETATM   10  N   UNK N   1      29.286  17.965   6.801  0.00  0.00    -0.274 N 
HETATM   11  O   UNK N   1      29.085  18.298   9.020  0.00  0.00    -0.267 OA
HETATM   12  H   UNK N   1      28.587  17.826   3.142  0.00  0.00     0.160 HD
ENDROOT
BRANCH   6  13
HETATM   13  C   UNK N   1      31.254  16.000   8.844  0.00  0.00     0.113 C 
BRANCH  13  14
HETATM   14  C   UNK N   1      32.410  15.121   8.457  0.00  0.00    -0.053 A 
HETATM   15  C   UNK N   1      32.374  14.330   7.297  0.00  0.00     0.009 A 
HETATM   16  C   UNK N   1      33.483  13.553   6.943  0.00  0.00     0.019 A 
HETATM   17  C   UNK N   1      34.622  13.552   7.755  0.00  0.00     0.011 A 
HETATM   18  C   UNK N   1      34.650  14.320   8.920  0.00  0.00     0.019 A 
HETATM   19 Br   UNK N   1      36.144  12.512   7.270  0.00  0.00    -0.051 Br
HETATM   20  C   UNK N   1      33.548  15.106   9.268  0.00  0.00     0.009 A 
ENDBRANCH  13  14
ENDBRANCH   6  13
BRANCH   6  21
HETATM   21  O   UNK N   1      32.078  18.316   8.498  0.00  0.00    -0.199 OA
BRANCH  21  22
HETATM   22  O   UNK N   1      33.114  18.240   7.679  0.00  0.00    -0.247 OA
HETATM   23  H   UNK N   1      33.538  17.389   7.486  0.00  0.00     0.253 HD
ENDBRANCH  21  22
ENDBRANCH   6  21
BRANCH   2  24
HETATM   24  C   UNK N   1      30.113  15.796   4.156  0.00  0.00     0.071 C 
BRANCH  24  25
HETATM   25  C   UNK N   1      31.444  15.341   3.642  0.00  0.00    -0.056 A 
HETATM   26  C   UNK N   1      31.729  13.973   3.595  0.00  0.00     0.007 A 
HETATM   27  C   UNK N   1      32.966  13.531   3.116  0.00  0.00     0.001 A 
HETATM   28  C   UNK N   1      33.921  14.456   2.684  0.00  0.00     0.000 A 
HETATM   29  C   UNK N   1      33.637  15.824   2.722  0.00  0.00     0.001 A 
HETATM   30  C   UNK N   1      32.398  16.266   3.195  0.00  0.00     0.007 A 
ENDBRANCH  24  25
ENDBRANCH   2  24
BRANCH   3  31
HETATM   31  C   UNK N   1      26.637  19.086   4.389  0.00  0.00    -0.008 A 
HETATM   32  C   UNK N   1      25.350  18.652   4.746  0.00  0.00     0.016 A 
HETATM   33  C   UNK N   1      24.220  19.282   4.213  0.00  0.00     0.037 A 
HETATM   34  C   UNK N   1      24.368  20.343   3.314  0.00  0.00     0.065 A 
HETATM   35  C   UNK N   1      25.645  20.774   2.948  0.00  0.00     0.037 A 
HETATM   36  C   UNK N   1      26.773  20.153   3.488  0.00  0.00     0.016 A 
BRANCH  34  37
HETATM   37  O   UNK N   1      23.284  20.947   2.802  0.00  0.00    -0.361 OA
HETATM   38  H   UNK N   1      23.323  21.851   2.558  0.00  0.00     0.217 HD
ENDBRANCH  34  37
ENDBRANCH   3  31
TORSDOF 8
ENDMDL
