MODEL 1
REMARK VINA RESULT:      -8.4      0.000      0.000
REMARK  12 active torsions:
REMARK  status: ('A' for Active; 'I' for Inactive)
REMARK    1  A    between atoms: C_6  and  C_5 
REMARK    2  A    between atoms: C_12  and  C_5 
REMARK    3  A    between atoms: C_13  and  C_6 
REMARK    4  A    between atoms: C_11  and  C_7 
REMARK    5  A    between atoms: N_22  and  C_7 
REMARK    6  A    between atoms: C_16  and  C_9 
REMARK    7  A    between atoms: N_22  and  C_10 
REMARK    8  A    between atoms: C_18  and  C_12 
REMARK    9  A    between atoms: C_12  and  N_25 
REMARK   10  A    between atoms: O_30  and  C_13 
REMARK       I    between atoms: N_25  and  C_16 
REMARK   11  A    between atoms: O_32  and  C_17 
REMARK   12  A    between atoms: O_34  and  C_18 
REMARK       I    between atoms: N_20  and  C_19 
ROOT
HETATM    1  N   UNK N   1      27.185  19.349   7.438  0.00  0.00    -0.388 N 
HETATM    2  H   UNK N   1      26.446  19.244   8.080  0.00  0.00     0.159 HD
ENDROOT
BRANCH   1   3
HETATM    3  C   UNK N   1      26.989  20.138   6.249  0.00  0.00     0.146 C 
BRANCH   3   4
HETATM    4  C   UNK N   1      26.848  19.163   5.091  0.00  0.00     0.117 C 
HETATM    5  C   UNK N   1      27.021  19.849   3.729  0.00  0.00     0.148 C 
HETATM    6  N   UNK N   1      25.803  20.455   3.237  0.00  0.00    -0.372 N 
HETATM    7  C   UNK N   1      24.534  19.918   3.555  0.00  0.00     0.148 A 
HETATM    8  H   UNK N   1      25.859  21.257   2.669  0.00  0.00     0.161 HD
HETATM    9  C   UNK N   1      24.422  18.939   4.540  0.00  0.00     0.125 A 
HETATM   10  N   UNK N   1      23.426  20.349   2.900  0.00  0.00    -0.175 N 
HETATM   11  C   UNK N   1      23.156  18.439   4.849  0.00  0.00     0.185 A 
HETATM   12  N   UNK N   1      25.573  18.486   5.222  0.00  0.00    -0.376 N 
HETATM   13  N   UNK N   1      22.071  18.894   4.169  0.00  0.00    -0.168 N 
HETATM   14  C   UNK N   1      22.202  19.836   3.195  0.00  0.00     0.679 A 
ATOM     15  HN  UNK N   1      21.147  18.525   4.393  1.00  0.00     0.186 HD
HETATM   16  N   UNK N   1      21.172  20.239   2.556  0.00  0.00    -0.234 N 
HETATM   17  H   UNK N   1      21.267  20.833   1.777  0.00  0.00     0.174 HD
ATOM     18  HN  UNK N   1      20.243  19.943   2.856  1.00  0.00     0.174 HD
HETATM   19  H   UNK N   1      25.507  17.692   5.799  0.00  0.00     0.160 HD
HETATM   20  H   UNK N   1      23.511  21.040   2.205  0.00  0.00     0.186 HD
BRANCH  11  21
HETATM   21  O   UNK N   1      23.003  17.522   5.820  0.00  0.00    -0.344 OA
HETATM   22  H   UNK N   1      23.737  17.156   6.273  0.00  0.00     0.219 HD
ENDBRANCH  11  21
ENDBRANCH   3   4
ENDBRANCH   1   3
BRANCH   1  23
HETATM   23  C   UNK N   1      28.425  18.725   7.693  0.00  0.00     0.028 A 
HETATM   24  C   UNK N   1      29.018  18.805   8.963  0.00  0.00     0.030 A 
HETATM   25  C   UNK N   1      30.207  18.128   9.221  0.00  0.00     0.019 A 
HETATM   26  C   UNK N   1      30.839  17.411   8.199  0.00  0.00     0.032 A 
HETATM   27  C   UNK N   1      30.270  17.381   6.917  0.00  0.00     0.019 A 
HETATM   28  C   UNK N   1      29.064  18.028   6.669  0.00  0.00     0.030 A 
BRANCH  26  29
HETATM   29  C   UNK N   1      31.932  16.486   8.511  0.00  0.00     0.252 C 
HETATM   30  N   UNK N   1      32.929  16.917   9.329  0.00  0.00    -0.343 N 
HETATM   31  H   UNK N   1      32.678  17.219  10.232  0.00  0.00     0.163 HD
HETATM   32  O   UNK N   1      32.043  15.457   7.864  0.00  0.00    -0.268 OA
BRANCH  30  33
HETATM   33  C   UNK N   1      34.335  16.967   8.973  0.00  0.00     0.183 C 
BRANCH  33  34
HETATM   34  C   UNK N   1      35.112  16.894  10.299  0.00  0.00     0.046 C 
BRANCH  34  35
HETATM   35  C   UNK N   1      35.849  15.577  10.506  0.00  0.00     0.112 C 
BRANCH  35  36
HETATM   36  C   UNK N   1      34.893  14.437  10.660  0.00  0.00     0.139 C 
HETATM   37  O   UNK N   1      34.895  13.536   9.839  0.00  0.00    -0.650 OA
BRANCH  36  38
HETATM   38  O   UNK N   1      34.033  14.401  11.695  0.00  0.00    -0.776 OA
HETATM   39  H   UNK N   1      34.299  14.076  12.533  0.00  0.00     0.167 HD
ENDBRANCH  36  38
ENDBRANCH  35  36
ENDBRANCH  34  35
ENDBRANCH  33  34
BRANCH  33  40
HETATM   40  C   UNK N   1      34.790  18.140   8.122  0.00  0.00     0.163 C 
HETATM   41  O   UNK N   1      35.306  19.127   8.616  0.00  0.00    -0.648 OA
BRANCH  40  42
HETATM   42  O   UNK N   1      34.590  18.103   6.791  0.00  0.00    -0.775 OA
HETATM   43  H   UNK N   1      34.213  17.408   6.290  0.00  0.00     0.167 HD
ENDBRANCH  40  42
ENDBRANCH  33  40
ENDBRANCH  30  33
ENDBRANCH  26  29
ENDBRANCH   1  23
TORSDOF 12
ENDMDL
MODEL 2
REMARK VINA RESULT:      -8.3      3.273     11.410
REMARK  12 active torsions:
REMARK  status: ('A' for Active; 'I' for Inactive)
REMARK    1  A    between atoms: C_6  and  C_5 
REMARK    2  A    between atoms: C_12  and  C_5 
REMARK    3  A    between atoms: C_13  and  C_6 
REMARK    4  A    between atoms: C_11  and  C_7 
REMARK    5  A    between atoms: N_22  and  C_7 
REMARK    6  A    between atoms: C_16  and  C_9 
REMARK    7  A    between atoms: N_22  and  C_10 
REMARK    8  A    between atoms: C_18  and  C_12 
REMARK    9  A    between atoms: C_12  and  N_25 
REMARK   10  A    between atoms: O_30  and  C_13 
REMARK       I    between atoms: N_25  and  C_16 
REMARK   11  A    between atoms: O_32  and  C_17 
REMARK   12  A    between atoms: O_34  and  C_18 
REMARK       I    between atoms: N_20  and  C_19 
ROOT
HETATM    1  N   UNK N   1      33.826  17.847   7.887  0.00  0.00    -0.388 N 
HETATM    2  H   UNK N   1      34.447  18.451   7.419  0.00  0.00     0.159 HD
ENDROOT
BRANCH   1   3
HETATM    3  C   UNK N   1      34.242  17.203   9.106  0.00  0.00     0.146 C 
BRANCH   3   4
HETATM    4  C   UNK N   1      34.180  15.705   8.857  0.00  0.00     0.117 C 
HETATM    5  C   UNK N   1      33.097  15.019   9.702  0.00  0.00     0.148 C 
HETATM    6  N   UNK N   1      33.544  14.679  11.035  0.00  0.00    -0.372 N 
HETATM    7  C   UNK N   1      34.896  14.357  11.298  0.00  0.00     0.148 A 
HETATM    8  H   UNK N   1      32.894  14.672  11.774  0.00  0.00     0.161 HD
HETATM    9  C   UNK N   1      35.866  14.592  10.325  0.00  0.00     0.125 A 
HETATM   10  N   UNK N   1      35.250  13.814  12.490  0.00  0.00    -0.175 N 
HETATM   11  C   UNK N   1      37.196  14.283  10.616  0.00  0.00     0.185 A 
HETATM   12  N   UNK N   1      35.502  15.154   9.082  0.00  0.00    -0.376 N 
HETATM   13  N   UNK N   1      37.510  13.739  11.821  0.00  0.00    -0.168 N 
HETATM   14  C   UNK N   1      36.546  13.497  12.751  0.00  0.00     0.679 A 
ATOM     15  HN  UNK N   1      38.482  13.510  12.031  1.00  0.00     0.186 HD
HETATM   16  N   UNK N   1      36.859  12.969  13.871  0.00  0.00    -0.234 N 
HETATM   17  H   UNK N   1      36.160  12.686  14.503  0.00  0.00     0.174 HD
ATOM     18  HN  UNK N   1      37.842  12.840  14.111  1.00  0.00     0.174 HD
HETATM   19  H   UNK N   1      36.160  15.171   8.351  0.00  0.00     0.160 HD
HETATM   20  H   UNK N   1      34.560  13.649  13.172  0.00  0.00     0.186 HD
BRANCH  11  21
HETATM   21  O   UNK N   1      38.166  14.531   9.719  0.00  0.00    -0.344 OA
HETATM   22  H   UNK N   1      38.888  13.946   9.598  0.00  0.00     0.219 HD
ENDBRANCH  11  21
ENDBRANCH   3   4
ENDBRANCH   1   3
BRANCH   1  23
HETATM   23  C   UNK N   1      32.539  17.622   7.354  0.00  0.00     0.028 A 
HETATM   24  C   UNK N   1      31.395  17.804   8.147  0.00  0.00     0.030 A 
HETATM   25  C   UNK N   1      30.128  17.645   7.590  0.00  0.00     0.019 A 
HETATM   26  C   UNK N   1      29.997  17.251   6.254  0.00  0.00     0.032 A 
HETATM   27  C   UNK N   1      31.145  17.016   5.482  0.00  0.00     0.019 A 
HETATM   28  C   UNK N   1      32.410  17.210   6.029  0.00  0.00     0.030 A 
BRANCH  26  29
HETATM   29  C   UNK N   1      28.697  17.335   5.582  0.00  0.00     0.252 C 
HETATM   30  N   UNK N   1      28.308  18.536   5.076  0.00  0.00    -0.343 N 
HETATM   31  H   UNK N   1      28.891  18.956   4.403  0.00  0.00     0.163 HD
HETATM   32  O   UNK N   1      27.910  16.409   5.692  0.00  0.00    -0.268 OA
BRANCH  30  33
HETATM   33  C   UNK N   1      27.099  19.246   5.450  0.00  0.00     0.183 C 
BRANCH  33  34
HETATM   34  C   UNK N   1      26.539  19.847   4.149  0.00  0.00     0.046 C 
BRANCH  34  35
HETATM   35  C   UNK N   1      25.017  19.873   4.092  0.00  0.00     0.112 C 
BRANCH  35  36
HETATM   36  C   UNK N   1      24.531  20.688   2.936  0.00  0.00     0.139 C 
HETATM   37  O   UNK N   1      25.277  20.906   1.997  0.00  0.00    -0.650 OA
BRANCH  36  38
HETATM   38  O   UNK N   1      23.278  21.182   2.927  0.00  0.00    -0.776 OA
HETATM   39  H   UNK N   1      22.575  20.727   3.348  0.00  0.00     0.167 HD
ENDBRANCH  36  38
ENDBRANCH  35  36
ENDBRANCH  34  35
ENDBRANCH  33  34
BRANCH  33  40
HETATM   40  C   UNK N   1      27.225  20.294   6.542  0.00  0.00     0.163 C 
HETATM   41  O   UNK N   1      27.499  21.453   6.287  0.00  0.00    -0.648 OA
BRANCH  40  42
HETATM   42  O   UNK N   1      27.062  19.927   7.827  0.00  0.00    -0.775 OA
HETATM   43  H   UNK N   1      27.448  19.195   8.265  0.00  0.00     0.167 HD
ENDBRANCH  40  42
ENDBRANCH  33  40
ENDBRANCH  30  33
ENDBRANCH  26  29
ENDBRANCH   1  23
TORSDOF 12
ENDMDL
MODEL 3
REMARK VINA RESULT:      -8.2      4.347     11.880
REMARK  12 active torsions:
REMARK  status: ('A' for Active; 'I' for Inactive)
REMARK    1  A    between atoms: C_6  and  C_5 
REMARK    2  A    between atoms: C_12  and  C_5 
REMARK    3  A    between atoms: C_13  and  C_6 
REMARK    4  A    between atoms: C_11  and  C_7 
REMARK    5  A    between atoms: N_22  and  C_7 
REMARK    6  A    between atoms: C_16  and  C_9 
REMARK    7  A    between atoms: N_22  and  C_10 
REMARK    8  A    between atoms: C_18  and  C_12 
REMARK    9  A    between atoms: C_12  and  N_25 
REMARK   10  A    between atoms: O_30  and  C_13 
REMARK       I    between atoms: N_25  and  C_16 
REMARK   11  A    between atoms: O_32  and  C_17 
REMARK   12  A    between atoms: O_34  and  C_18 
REMARK       I    between atoms: N_20  and  C_19 
ROOT
HETATM    1  N   UNK N   1      35.292  16.256  10.015  0.00  0.00    -0.388 N 
HETATM    2  H   UNK N   1      36.193  16.571   9.773  0.00  0.00     0.159 HD
ENDROOT
BRANCH   1   3
HETATM    3  C   UNK N   1      35.062  15.686  11.317  0.00  0.00     0.146 C 
BRANCH   3   4
HETATM    4  C   UNK N   1      36.010  14.506  11.456  0.00  0.00     0.117 C 
HETATM    5  C   UNK N   1      35.289  13.160  11.297  0.00  0.00     0.148 C 
HETATM    6  N   UNK N   1      34.682  12.690  12.522  0.00  0.00    -0.372 N 
HETATM    7  C   UNK N   1      35.237  13.001  13.785  0.00  0.00     0.148 A 
HETATM    8  H   UNK N   1      33.865  12.141  12.476  0.00  0.00     0.161 HD
HETATM    9  C   UNK N   1      36.242  13.962  13.883  0.00  0.00     0.125 A 
HETATM   10  N   UNK N   1      34.801  12.363  14.899  0.00  0.00    -0.175 N 
HETATM   11  C   UNK N   1      36.760  14.265  15.142  0.00  0.00     0.185 A 
HETATM   12  N   UNK N   1      36.701  14.627  12.724  0.00  0.00    -0.376 N 
HETATM   13  N   UNK N   1      36.298  13.603  16.235  0.00  0.00    -0.168 N 
HETATM   14  C   UNK N   1      35.331  12.652  16.118  0.00  0.00     0.679 A 
ATOM     15  HN  UNK N   1      36.680  13.822  17.155  1.00  0.00     0.186 HD
HETATM   16  N   UNK N   1      34.922  12.028  17.154  0.00  0.00    -0.234 N 
HETATM   17  H   UNK N   1      34.309  11.263  17.069  0.00  0.00     0.174 HD
ATOM     18  HN  UNK N   1      35.234  12.325  18.079  1.00  0.00     0.174 HD
HETATM   19  H   UNK N   1      37.509  15.185  12.780  0.00  0.00     0.160 HD
HETATM   20  H   UNK N   1      34.092  11.684  14.825  0.00  0.00     0.186 HD
BRANCH  11  21
HETATM   21  O   UNK N   1      37.702  15.214  15.282  0.00  0.00    -0.344 OA
HETATM   22  H   UNK N   1      37.716  15.790  16.022  0.00  0.00     0.219 HD
ENDBRANCH  11  21
ENDBRANCH   3   4
ENDBRANCH   1   3
BRANCH   1  23
HETATM   23  C   UNK N   1      34.241  16.369   9.080  0.00  0.00     0.028 A 
HETATM   24  C   UNK N   1      33.584  15.225   8.601  0.00  0.00     0.030 A 
HETATM   25  C   UNK N   1      32.505  15.353   7.731  0.00  0.00     0.019 A 
HETATM   26  C   UNK N   1      32.108  16.621   7.292  0.00  0.00     0.032 A 
HETATM   27  C   UNK N   1      32.805  17.758   7.730  0.00  0.00     0.019 A 
HETATM   28  C   UNK N   1      33.861  17.631   8.627  0.00  0.00     0.030 A 
BRANCH  26  29
HETATM   29  C   UNK N   1      30.829  16.798   6.599  0.00  0.00     0.252 C 
HETATM   30  N   UNK N   1      29.906  17.631   7.149  0.00  0.00    -0.343 N 
HETATM   31  H   UNK N   1      30.169  18.569   7.293  0.00  0.00     0.163 HD
HETATM   32  O   UNK N   1      30.534  16.037   5.692  0.00  0.00    -0.268 OA
BRANCH  30  33
HETATM   33  C   UNK N   1      28.562  17.246   7.539  0.00  0.00     0.183 C 
BRANCH  33  34
HETATM   34  C   UNK N   1      27.618  17.906   6.519  0.00  0.00     0.046 C 
BRANCH  34  35
HETATM   35  C   UNK N   1      28.039  19.314   6.117  0.00  0.00     0.112 C 
BRANCH  35  36
HETATM   36  C   UNK N   1      27.038  20.330   6.567  0.00  0.00     0.139 C 
HETATM   37  O   UNK N   1      26.599  21.137   5.767  0.00  0.00    -0.650 OA
BRANCH  36  38
HETATM   38  O   UNK N   1      26.622  20.360   7.848  0.00  0.00    -0.776 OA
HETATM   39  H   UNK N   1      27.236  20.401   8.555  0.00  0.00     0.167 HD
ENDBRANCH  36  38
ENDBRANCH  35  36
ENDBRANCH  34  35
ENDBRANCH  33  34
BRANCH  33  40
HETATM   40  C   UNK N   1      28.146  17.550   8.967  0.00  0.00     0.163 C 
HETATM   41  O   UNK N   1      27.428  16.795   9.599  0.00  0.00    -0.648 OA
BRANCH  40  42
HETATM   42  O   UNK N   1      28.552  18.698   9.541  0.00  0.00    -0.775 OA
HETATM   43  H   UNK N   1      28.667  19.532   9.130  0.00  0.00     0.167 HD
ENDBRANCH  40  42
ENDBRANCH  33  40
ENDBRANCH  30  33
ENDBRANCH  26  29
ENDBRANCH   1  23
TORSDOF 12
ENDMDL
MODEL 4
REMARK VINA RESULT:      -8.2      2.996     11.585
REMARK  12 active torsions:
REMARK  status: ('A' for Active; 'I' for Inactive)
REMARK    1  A    between atoms: C_6  and  C_5 
REMARK    2  A    between atoms: C_12  and  C_5 
REMARK    3  A    between atoms: C_13  and  C_6 
REMARK    4  A    between atoms: C_11  and  C_7 
REMARK    5  A    between atoms: N_22  and  C_7 
REMARK    6  A    between atoms: C_16  and  C_9 
REMARK    7  A    between atoms: N_22  and  C_10 
REMARK    8  A    between atoms: C_18  and  C_12 
REMARK    9  A    between atoms: C_12  and  N_25 
REMARK   10  A    between atoms: O_30  and  C_13 
REMARK       I    between atoms: N_25  and  C_16 
REMARK   11  A    between atoms: O_32  and  C_17 
REMARK   12  A    between atoms: O_34  and  C_18 
REMARK       I    between atoms: N_20  and  C_19 
ROOT
HETATM    1  N   UNK N   1      28.441  18.253   3.977  0.00  0.00    -0.388 N 
HETATM    2  H   UNK N   1      28.944  18.072   3.150  0.00  0.00     0.159 HD
ENDROOT
BRANCH   1   3
HETATM    3  C   UNK N   1      29.153  18.489   5.207  0.00  0.00     0.146 C 
BRANCH   3   4
HETATM    4  C   UNK N   1      29.159  17.175   5.972  0.00  0.00     0.117 C 
HETATM    5  C   UNK N   1      28.741  17.355   7.438  0.00  0.00     0.148 C 
HETATM    6  N   UNK N   1      29.836  17.746   8.298  0.00  0.00    -0.372 N 
HETATM    7  C   UNK N   1      31.164  17.342   8.030  0.00  0.00     0.148 A 
HETATM    8  H   UNK N   1      29.652  18.307   9.087  0.00  0.00     0.161 HD
HETATM    9  C   UNK N   1      31.476  16.758   6.804  0.00  0.00     0.125 A 
HETATM   10  N   UNK N   1      32.133  17.514   8.964  0.00  0.00    -0.175 N 
HETATM   11  C   UNK N   1      32.798  16.384   6.556  0.00  0.00     0.185 A 
HETATM   12  N   UNK N   1      30.470  16.575   5.830  0.00  0.00    -0.376 N 
HETATM   13  N   UNK N   1      33.740  16.571   7.517  0.00  0.00    -0.168 N 
HETATM   14  C   UNK N   1      33.412  17.124   8.718  0.00  0.00     0.679 A 
ATOM     15  HN  UNK N   1      34.705  16.294   7.337  1.00  0.00     0.186 HD
HETATM   16  N   UNK N   1      34.308  17.276   9.615  0.00  0.00    -0.234 N 
HETATM   17  H   UNK N   1      34.063  17.568  10.522  0.00  0.00     0.174 HD
ATOM     18  HN  UNK N   1      35.286  17.093   9.389  1.00  0.00     0.174 HD
HETATM   19  H   UNK N   1      30.664  16.025   5.037  0.00  0.00     0.160 HD
HETATM   20  H   UNK N   1      31.907  17.926   9.829  0.00  0.00     0.186 HD
BRANCH  11  21
HETATM   21  O   UNK N   1      33.146  15.854   5.371  0.00  0.00    -0.344 OA
HETATM   22  H   UNK N   1      34.009  15.525   5.211  0.00  0.00     0.219 HD
ENDBRANCH  11  21
ENDBRANCH   3   4
ENDBRANCH   1   3
BRANCH   1  23
HETATM   23  C   UNK N   1      27.030  18.278   3.943  0.00  0.00     0.028 A 
HETATM   24  C   UNK N   1      26.301  17.110   3.673  0.00  0.00     0.030 A 
HETATM   25  C   UNK N   1      24.909  17.133   3.710  0.00  0.00     0.019 A 
HETATM   26  C   UNK N   1      24.237  18.334   3.963  0.00  0.00     0.032 A 
HETATM   27  C   UNK N   1      24.971  19.510   4.176  0.00  0.00     0.019 A 
HETATM   28  C   UNK N   1      26.362  19.479   4.175  0.00  0.00     0.030 A 
BRANCH  26  29
HETATM   29  C   UNK N   1      22.803  18.329   4.265  0.00  0.00     0.252 C 
HETATM   30  N   UNK N   1      21.924  18.370   3.229  0.00  0.00    -0.343 N 
HETATM   31  H   UNK N   1      21.974  17.648   2.561  0.00  0.00     0.163 HD
HETATM   32  O   UNK N   1      22.437  18.519   5.414  0.00  0.00    -0.268 OA
BRANCH  30  33
HETATM   33  C   UNK N   1      20.916  19.395   3.031  0.00  0.00     0.183 C 
BRANCH  33  34
HETATM   34  C   UNK N   1      19.676  18.671   2.478  0.00  0.00     0.046 C 
BRANCH  34  35
HETATM   35  C   UNK N   1      19.947  17.235   2.048  0.00  0.00     0.112 C 
BRANCH  35  36
HETATM   36  C   UNK N   1      19.827  17.080   0.565  0.00  0.00     0.139 C 
HETATM   37  O   UNK N   1      19.215  16.130   0.108  0.00  0.00    -0.650 OA
BRANCH  36  38
HETATM   38  O   UNK N   1      20.390  17.979  -0.264  0.00  0.00    -0.776 OA
HETATM   39  H   UNK N   1      20.607  17.752  -1.147  0.00  0.00     0.167 HD
ENDBRANCH  36  38
ENDBRANCH  35  36
ENDBRANCH  34  35
ENDBRANCH  33  34
BRANCH  33  40
HETATM   40  C   UNK N   1      21.302  20.583   2.167  0.00  0.00     0.163 C 
HETATM   41  O   UNK N   1      21.264  20.529   0.951  0.00  0.00    -0.648 OA
BRANCH  40  42
HETATM   42  O   UNK N   1      21.728  21.716   2.758  0.00  0.00    -0.775 OA
HETATM   43  H   UNK N   1      21.938  21.843   3.662  0.00  0.00     0.167 HD
ENDBRANCH  40  42
ENDBRANCH  33  40
ENDBRANCH  30  33
ENDBRANCH  26  29
ENDBRANCH   1  23
TORSDOF 12
ENDMDL
MODEL 5
REMARK VINA RESULT:      -8.1      4.994      9.199
REMARK  12 active torsions:
REMARK  status: ('A' for Active; 'I' for Inactive)
REMARK    1  A    between atoms: C_6  and  C_5 
REMARK    2  A    between atoms: C_12  and  C_5 
REMARK    3  A    between atoms: C_13  and  C_6 
REMARK    4  A    between atoms: C_11  and  C_7 
REMARK    5  A    between atoms: N_22  and  C_7 
REMARK    6  A    between atoms: C_16  and  C_9 
REMARK    7  A    between atoms: N_22  and  C_10 
REMARK    8  A    between atoms: C_18  and  C_12 
REMARK    9  A    between atoms: C_12  and  N_25 
REMARK   10  A    between atoms: O_30  and  C_13 
REMARK       I    between atoms: N_25  and  C_16 
REMARK   11  A    between atoms: O_32  and  C_17 
REMARK   12  A    between atoms: O_34  and  C_18 
REMARK       I    between atoms: N_20  and  C_19 
ROOT
HETATM    1  N   UNK N   1      24.048  18.540   5.159  0.00  0.00    -0.388 N 
HETATM    2  H   UNK N   1      23.741  19.469   5.271  0.00  0.00     0.159 HD
ENDROOT
BRANCH   1   3
HETATM    3  C   UNK N   1      25.294  18.277   4.488  0.00  0.00     0.146 C 
BRANCH   3   4
HETATM    4  C   UNK N   1      26.246  19.399   4.869  0.00  0.00     0.117 C 
HETATM    5  C   UNK N   1      27.396  19.554   3.864  0.00  0.00     0.148 C 
HETATM    6  N   UNK N   1      28.503  18.660   4.123  0.00  0.00    -0.372 N 
HETATM    7  C   UNK N   1      28.820  18.243   5.436  0.00  0.00     0.148 A 
HETATM    8  H   UNK N   1      29.047  18.336   3.369  0.00  0.00     0.161 HD
HETATM    9  C   UNK N   1      27.928  18.494   6.478  0.00  0.00     0.125 A 
HETATM   10  N   UNK N   1      29.991  17.605   5.687  0.00  0.00    -0.175 N 
HETATM   11  C   UNK N   1      28.256  18.055   7.761  0.00  0.00     0.185 A 
HETATM   12  N   UNK N   1      26.710  19.160   6.221  0.00  0.00    -0.376 N 
HETATM   13  N   UNK N   1      29.439  17.422   7.972  0.00  0.00    -0.168 N 
HETATM   14  C   UNK N   1      30.307  17.204   6.947  0.00  0.00     0.679 A 
ATOM     15  HN  UNK N   1      29.679  17.105   8.912  1.00  0.00     0.186 HD
HETATM   16  N   UNK N   1      31.422  16.622   7.169  0.00  0.00    -0.234 N 
HETATM   17  H   UNK N   1      32.104  16.560   6.462  0.00  0.00     0.174 HD
ATOM     18  HN  UNK N   1      31.608  16.218   8.087  1.00  0.00     0.174 HD
HETATM   19  H   UNK N   1      26.163  19.469   6.979  0.00  0.00     0.160 HD
HETATM   20  H   UNK N   1      30.618  17.431   4.948  0.00  0.00     0.186 HD
BRANCH  11  21
HETATM   21  O   UNK N   1      27.404  18.244   8.784  0.00  0.00    -0.344 OA
HETATM   22  H   UNK N   1      27.685  18.614   9.599  0.00  0.00     0.219 HD
ENDBRANCH  11  21
ENDBRANCH   3   4
ENDBRANCH   1   3
BRANCH   1  23
HETATM   23  C   UNK N   1      23.259  17.481   5.658  0.00  0.00     0.028 A 
HETATM   24  C   UNK N   1      23.771  16.176   5.722  0.00  0.00     0.030 A 
HETATM   25  C   UNK N   1      23.008  15.154   6.279  0.00  0.00     0.019 A 
HETATM   26  C   UNK N   1      21.708  15.417   6.727  0.00  0.00     0.032 A 
HETATM   27  C   UNK N   1      21.181  16.712   6.609  0.00  0.00     0.019 A 
HETATM   28  C   UNK N   1      21.958  17.741   6.085  0.00  0.00     0.030 A 
BRANCH  26  29
HETATM   29  C   UNK N   1      20.996  14.434   7.548  0.00  0.00     0.252 C 
HETATM   30  N   UNK N   1      21.512  14.111   8.763  0.00  0.00    -0.343 N 
HETATM   31  H   UNK N   1      21.636  14.840   9.413  0.00  0.00     0.163 HD
HETATM   32  O   UNK N   1      20.105  13.771   7.041  0.00  0.00    -0.268 OA
BRANCH  30  33
HETATM   33  C   UNK N   1      21.896  12.773   9.176  0.00  0.00     0.183 C 
BRANCH  33  34
HETATM   34  C   UNK N   1      21.954  12.804  10.714  0.00  0.00     0.046 C 
BRANCH  34  35
HETATM   35  C   UNK N   1      22.670  11.606  11.324  0.00  0.00     0.112 C 
BRANCH  35  36
HETATM   36  C   UNK N   1      23.801  12.038  12.202  0.00  0.00     0.139 C 
HETATM   37  O   UNK N   1      23.644  12.073  13.411  0.00  0.00    -0.650 OA
BRANCH  36  38
HETATM   38  O   UNK N   1      24.986  12.390  11.669  0.00  0.00    -0.776 OA
HETATM   39  H   UNK N   1      25.051  13.100  11.061  0.00  0.00     0.167 HD
ENDBRANCH  36  38
ENDBRANCH  35  36
ENDBRANCH  34  35
ENDBRANCH  33  34
BRANCH  33  40
HETATM   40  C   UNK N   1      23.172  12.207   8.579  0.00  0.00     0.163 C 
HETATM   41  O   UNK N   1      23.186  11.137   7.995  0.00  0.00    -0.648 OA
BRANCH  40  42
HETATM   42  O   UNK N   1      24.325  12.887   8.725  0.00  0.00    -0.775 OA
HETATM   43  H   UNK N   1      25.028  12.698   9.314  0.00  0.00     0.167 HD
ENDBRANCH  40  42
ENDBRANCH  33  40
ENDBRANCH  30  33
ENDBRANCH  26  29
ENDBRANCH   1  23
TORSDOF 12
ENDMDL
MODEL 6
REMARK VINA RESULT:      -8.1      4.633     11.459
REMARK  12 active torsions:
REMARK  status: ('A' for Active; 'I' for Inactive)
REMARK    1  A    between atoms: C_6  and  C_5 
REMARK    2  A    between atoms: C_12  and  C_5 
REMARK    3  A    between atoms: C_13  and  C_6 
REMARK    4  A    between atoms: C_11  and  C_7 
REMARK    5  A    between atoms: N_22  and  C_7 
REMARK    6  A    between atoms: C_16  and  C_9 
REMARK    7  A    between atoms: N_22  and  C_10 
REMARK    8  A    between atoms: C_18  and  C_12 
REMARK    9  A    between atoms: C_12  and  N_25 
REMARK   10  A    between atoms: O_30  and  C_13 
REMARK       I    between atoms: N_25  and  C_16 
REMARK   11  A    between atoms: O_32  and  C_17 
REMARK   12  A    between atoms: O_34  and  C_18 
REMARK       I    between atoms: N_20  and  C_19 
ROOT
HETATM    1  N   UNK N   1      35.177  16.936  10.114  0.00  0.00    -0.388 N 
HETATM    2  H   UNK N   1      36.001  17.476  10.087  0.00  0.00     0.159 HD
ENDROOT
BRANCH   1   3
HETATM    3  C   UNK N   1      34.906  16.108  11.260  0.00  0.00     0.146 C 
BRANCH   3   4
HETATM    4  C   UNK N   1      35.914  14.971  11.232  0.00  0.00     0.117 C 
HETATM    5  C   UNK N   1      35.265  13.627  10.871  0.00  0.00     0.148 C 
HETATM    6  N   UNK N   1      34.683  12.951  12.009  0.00  0.00    -0.372 N 
HETATM    7  C   UNK N   1      35.221  13.102  13.308  0.00  0.00     0.148 A 
HETATM    8  H   UNK N   1      33.896  12.374  11.877  0.00  0.00     0.161 HD
HETATM    9  C   UNK N   1      36.173  14.089  13.554  0.00  0.00     0.125 A 
HETATM   10  N   UNK N   1      34.818  12.285  14.314  0.00  0.00    -0.175 N 
HETATM   11  C   UNK N   1      36.675  14.229  14.849  0.00  0.00     0.185 A 
HETATM   12  N   UNK N   1      36.597  14.939  12.510  0.00  0.00    -0.376 N 
HETATM   13  N   UNK N   1      36.248  13.391  15.829  0.00  0.00    -0.168 N 
HETATM   14  C   UNK N   1      35.332  12.418  15.566  0.00  0.00     0.679 A 
ATOM     15  HN  UNK N   1      36.618  13.492  16.774  1.00  0.00     0.186 HD
HETATM   16  N   UNK N   1      34.956  11.629  16.496  0.00  0.00    -0.234 N 
HETATM   17  H   UNK N   1      34.384  10.854  16.294  0.00  0.00     0.174 HD
ATOM     18  HN  UNK N   1      35.252  11.802  17.457  1.00  0.00     0.174 HD
HETATM   19  H   UNK N   1      37.375  15.524  12.653  0.00  0.00     0.160 HD
HETATM   20  H   UNK N   1      34.146  11.588  14.135  0.00  0.00     0.186 HD
BRANCH  11  21
HETATM   21  O   UNK N   1      37.565  15.195  15.134  0.00  0.00    -0.344 OA
HETATM   22  H   UNK N   1      37.904  15.314  16.000  0.00  0.00     0.219 HD
ENDBRANCH  11  21
ENDBRANCH   3   4
ENDBRANCH   1   3
BRANCH   1  23
HETATM   23  C   UNK N   1      34.277  16.984   9.028  0.00  0.00     0.028 A 
HETATM   24  C   UNK N   1      34.432  17.940   8.013  0.00  0.00     0.030 A 
HETATM   25  C   UNK N   1      33.578  17.934   6.913  0.00  0.00     0.019 A 
HETATM   26  C   UNK N   1      32.532  17.007   6.846  0.00  0.00     0.032 A 
HETATM   27  C   UNK N   1      32.348  16.090   7.892  0.00  0.00     0.019 A 
HETATM   28  C   UNK N   1      33.223  16.074   8.974  0.00  0.00     0.030 A 
BRANCH  26  29
HETATM   29  C   UNK N   1      31.796  16.810   5.594  0.00  0.00     0.252 C 
HETATM   30  N   UNK N   1      30.783  17.667   5.298  0.00  0.00    -0.343 N 
HETATM   31  H   UNK N   1      31.002  18.625   5.236  0.00  0.00     0.163 HD
HETATM   32  O   UNK N   1      31.950  15.772   4.971  0.00  0.00    -0.268 OA
BRANCH  30  33
HETATM   33  C   UNK N   1      29.404  17.279   5.066  0.00  0.00     0.183 C 
BRANCH  33  34
HETATM   34  C   UNK N   1      28.972  16.484   6.311  0.00  0.00     0.046 C 
BRANCH  34  35
HETATM   35  C   UNK N   1      27.834  17.134   7.087  0.00  0.00     0.112 C 
BRANCH  35  36
HETATM   36  C   UNK N   1      28.344  17.874   8.282  0.00  0.00     0.139 C 
HETATM   37  O   UNK N   1      29.507  18.235   8.314  0.00  0.00    -0.650 OA
BRANCH  36  38
HETATM   38  O   UNK N   1      27.528  18.143   9.320  0.00  0.00    -0.776 OA
HETATM   39  H   UNK N   1      26.786  18.705   9.219  0.00  0.00     0.167 HD
ENDBRANCH  36  38
ENDBRANCH  35  36
ENDBRANCH  34  35
ENDBRANCH  33  34
BRANCH  33  40
HETATM   40  C   UNK N   1      29.108  16.519   3.785  0.00  0.00     0.163 C 
HETATM   41  O   UNK N   1      28.230  15.675   3.730  0.00  0.00    -0.648 OA
BRANCH  40  42
HETATM   42  O   UNK N   1      29.853  16.759   2.690  0.00  0.00    -0.775 OA
HETATM   43  H   UNK N   1      30.411  16.158   2.237  0.00  0.00     0.167 HD
ENDBRANCH  40  42
ENDBRANCH  33  40
ENDBRANCH  30  33
ENDBRANCH  26  29
ENDBRANCH   1  23
TORSDOF 12
ENDMDL
MODEL 7
REMARK VINA RESULT:      -7.9      2.459      4.230
REMARK  12 active torsions:
REMARK  status: ('A' for Active; 'I' for Inactive)
REMARK    1  A    between atoms: C_6  and  C_5 
REMARK    2  A    between atoms: C_12  and  C_5 
REMARK    3  A    between atoms: C_13  and  C_6 
REMARK    4  A    between atoms: C_11  and  C_7 
REMARK    5  A    between atoms: N_22  and  C_7 
REMARK    6  A    between atoms: C_16  and  C_9 
REMARK    7  A    between atoms: N_22  and  C_10 
REMARK    8  A    between atoms: C_18  and  C_12 
REMARK    9  A    between atoms: C_12  and  N_25 
REMARK   10  A    between atoms: O_30  and  C_13 
REMARK       I    between atoms: N_25  and  C_16 
REMARK   11  A    between atoms: O_32  and  C_17 
REMARK   12  A    between atoms: O_34  and  C_18 
REMARK       I    between atoms: N_20  and  C_19 
ROOT
HETATM    1  N   UNK N   1      26.100  16.442   3.989  0.00  0.00    -0.388 N 
HETATM    2  H   UNK N   1      25.615  15.585   4.031  0.00  0.00     0.159 HD
ENDROOT
BRANCH   1   3
HETATM    3  C   UNK N   1      25.423  17.621   3.516  0.00  0.00     0.146 C 
BRANCH   3   4
HETATM    4  C   UNK N   1      24.536  18.106   4.651  0.00  0.00     0.117 C 
HETATM    5  C   UNK N   1      23.673  16.980   5.237  0.00  0.00     0.148 C 
HETATM    6  N   UNK N   1      22.446  16.762   4.503  0.00  0.00    -0.372 N 
HETATM    7  C   UNK N   1      21.791  17.821   3.833  0.00  0.00     0.148 A 
HETATM    8  H   UNK N   1      22.059  15.857   4.470  0.00  0.00     0.161 HD
HETATM    9  C   UNK N   1      22.440  19.044   3.668  0.00  0.00     0.125 A 
HETATM   10  N   UNK N   1      20.532  17.654   3.356  0.00  0.00    -0.175 N 
HETATM   11  C   UNK N   1      21.779  20.067   2.986  0.00  0.00     0.185 A 
HETATM   12  N   UNK N   1      23.749  19.223   4.165  0.00  0.00    -0.376 N 
HETATM   13  N   UNK N   1      20.518  19.861   2.525  0.00  0.00    -0.168 N 
HETATM   14  C   UNK N   1      19.892  18.667   2.714  0.00  0.00     0.679 A 
ATOM     15  HN  UNK N   1      20.035  20.611   2.030  1.00  0.00     0.186 HD
HETATM   16  N   UNK N   1      18.700  18.499   2.288  0.00  0.00    -0.234 N 
HETATM   17  H   UNK N   1      18.197  17.684   2.517  0.00  0.00     0.174 HD
ATOM     18  HN  UNK N   1      18.265  19.215   1.707  1.00  0.00     0.174 HD
HETATM   19  H   UNK N   1      24.137  20.127   4.182  0.00  0.00     0.160 HD
HETATM   20  H   UNK N   1      20.078  16.789   3.476  0.00  0.00     0.186 HD
BRANCH  11  21
HETATM   21  O   UNK N   1      22.387  21.247   2.773  0.00  0.00    -0.344 OA
HETATM   22  H   UNK N   1      23.132  21.517   3.274  0.00  0.00     0.219 HD
ENDBRANCH  11  21
ENDBRANCH   3   4
ENDBRANCH   1   3
BRANCH   1  23
HETATM   23  C   UNK N   1      27.451  16.498   4.394  0.00  0.00     0.028 A 
HETATM   24  C   UNK N   1      28.151  17.714   4.382  0.00  0.00     0.030 A 
HETATM   25  C   UNK N   1      29.462  17.769   4.847  0.00  0.00     0.019 A 
HETATM   26  C   UNK N   1      30.100  16.600   5.278  0.00  0.00     0.032 A 
HETATM   27  C   UNK N   1      29.413  15.377   5.235  0.00  0.00     0.019 A 
HETATM   28  C   UNK N   1      28.091  15.329   4.803  0.00  0.00     0.030 A 
BRANCH  26  29
HETATM   29  C   UNK N   1      31.367  16.675   6.011  0.00  0.00     0.252 C 
HETATM   30  N   UNK N   1      31.448  16.069   7.225  0.00  0.00    -0.343 N 
HETATM   31  H   UNK N   1      31.270  15.101   7.263  0.00  0.00     0.163 HD
HETATM   32  O   UNK N   1      32.226  17.455   5.633  0.00  0.00    -0.268 OA
BRANCH  30  33
HETATM   33  C   UNK N   1      31.778  16.738   8.470  0.00  0.00     0.183 C 
BRANCH  33  34
HETATM   34  C   UNK N   1      30.697  17.814   8.674  0.00  0.00     0.046 C 
BRANCH  34  35
HETATM   35  C   UNK N   1      29.534  17.356   9.546  0.00  0.00     0.112 C 
BRANCH  35  36
HETATM   36  C   UNK N   1      28.221  17.595   8.871  0.00  0.00     0.139 C 
HETATM   37  O   UNK N   1      27.893  16.893   7.930  0.00  0.00    -0.650 OA
BRANCH  36  38
HETATM   38  O   UNK N   1      27.403  18.577   9.294  0.00  0.00    -0.776 OA
HETATM   39  H   UNK N   1      26.478  18.532   9.149  0.00  0.00     0.167 HD
ENDBRANCH  36  38
ENDBRANCH  35  36
ENDBRANCH  34  35
ENDBRANCH  33  34
BRANCH  33  40
HETATM   40  C   UNK N   1      33.176  17.319   8.591  0.00  0.00     0.163 C 
HETATM   41  O   UNK N   1      34.075  16.712   9.147  0.00  0.00    -0.648 OA
BRANCH  40  42
HETATM   42  O   UNK N   1      33.422  18.548   8.101  0.00  0.00    -0.775 OA
HETATM   43  H   UNK N   1      34.230  19.021   8.128  0.00  0.00     0.167 HD
ENDBRANCH  40  42
ENDBRANCH  33  40
ENDBRANCH  30  33
ENDBRANCH  26  29
ENDBRANCH   1  23
TORSDOF 12
ENDMDL
MODEL 8
REMARK VINA RESULT:      -7.9      2.660     10.845
REMARK  12 active torsions:
REMARK  status: ('A' for Active; 'I' for Inactive)
REMARK    1  A    between atoms: C_6  and  C_5 
REMARK    2  A    between atoms: C_12  and  C_5 
REMARK    3  A    between atoms: C_13  and  C_6 
REMARK    4  A    between atoms: C_11  and  C_7 
REMARK    5  A    between atoms: N_22  and  C_7 
REMARK    6  A    between atoms: C_16  and  C_9 
REMARK    7  A    between atoms: N_22  and  C_10 
REMARK    8  A    between atoms: C_18  and  C_12 
REMARK    9  A    between atoms: C_12  and  N_25 
REMARK   10  A    between atoms: O_30  and  C_13 
REMARK       I    between atoms: N_25  and  C_16 
REMARK   11  A    between atoms: O_32  and  C_17 
REMARK   12  A    between atoms: O_34  and  C_18 
REMARK       I    between atoms: N_20  and  C_19 
ROOT
HETATM    1  N   UNK N   1      30.245  16.715   7.906  0.00  0.00    -0.388 N 
HETATM    2  H   UNK N   1      29.992  15.764   7.920  0.00  0.00     0.159 HD
ENDROOT
BRANCH   1   3
HETATM    3  C   UNK N   1      31.439  17.144   8.587  0.00  0.00     0.146 C 
BRANCH   3   4
HETATM    4  C   UNK N   1      32.589  16.330   8.016  0.00  0.00     0.117 C 
HETATM    5  C   UNK N   1      32.330  14.819   8.101  0.00  0.00     0.148 C 
HETATM    6  N   UNK N   1      32.692  14.249   9.380  0.00  0.00    -0.372 N 
HETATM    7  C   UNK N   1      33.746  14.787  10.153  0.00  0.00     0.148 A 
HETATM    8  H   UNK N   1      32.193  13.471   9.719  0.00  0.00     0.161 HD
HETATM    9  C   UNK N   1      34.301  16.019   9.808  0.00  0.00     0.125 A 
HETATM   10  N   UNK N   1      34.225  14.105  11.224  0.00  0.00    -0.175 N 
HETATM   11  C   UNK N   1      35.328  16.536  10.598  0.00  0.00     0.185 A 
HETATM   12  N   UNK N   1      33.807  16.730   8.693  0.00  0.00    -0.376 N 
HETATM   13  N   UNK N   1      35.781  15.823  11.662  0.00  0.00    -0.168 N 
HETATM   14  C   UNK N   1      35.243  14.611  11.971  0.00  0.00     0.679 A 
ATOM     15  HN  UNK N   1      36.535  16.200  12.237  1.00  0.00     0.186 HD
HETATM   16  N   UNK N   1      35.694  13.948  12.965  0.00  0.00    -0.234 N 
HETATM   17  H   UNK N   1      35.392  13.026  13.129  0.00  0.00     0.174 HD
ATOM     18  HN  UNK N   1      36.373  14.378  13.592  1.00  0.00     0.174 HD
HETATM   19  H   UNK N   1      34.302  17.515   8.367  0.00  0.00     0.160 HD
HETATM   20  H   UNK N   1      33.831  13.235  11.462  0.00  0.00     0.186 HD
BRANCH  11  21
HETATM   21  O   UNK N   1      35.861  17.739  10.322  0.00  0.00    -0.344 OA
HETATM   22  H   UNK N   1      35.917  18.415  10.969  0.00  0.00     0.219 HD
ENDBRANCH  11  21
ENDBRANCH   3   4
ENDBRANCH   1   3
BRANCH   1  23
HETATM   23  C   UNK N   1      29.433  17.643   7.219  0.00  0.00     0.028 A 
HETATM   24  C   UNK N   1      29.382  17.647   5.816  0.00  0.00     0.030 A 
HETATM   25  C   UNK N   1      28.526  18.522   5.153  0.00  0.00     0.019 A 
HETATM   26  C   UNK N   1      27.755  19.433   5.883  0.00  0.00     0.032 A 
HETATM   27  C   UNK N   1      27.852  19.462   7.282  0.00  0.00     0.019 A 
HETATM   28  C   UNK N   1      28.681  18.564   7.947  0.00  0.00     0.030 A 
BRANCH  26  29
HETATM   29  C   UNK N   1      26.666  20.169   5.233  0.00  0.00     0.252 C 
HETATM   30  N   UNK N   1      25.423  19.619   5.237  0.00  0.00    -0.343 N 
HETATM   31  H   UNK N   1      25.016  19.420   6.111  0.00  0.00     0.163 HD
HETATM   32  O   UNK N   1      26.935  21.122   4.520  0.00  0.00    -0.268 OA
BRANCH  30  33
HETATM   33  C   UNK N   1      24.648  19.301   4.051  0.00  0.00     0.183 C 
BRANCH  33  34
HETATM   34  C   UNK N   1      25.363  18.114   3.382  0.00  0.00     0.046 C 
BRANCH  34  35
HETATM   35  C   UNK N   1      25.305  16.828   4.195  0.00  0.00     0.112 C 
BRANCH  35  36
HETATM   36  C   UNK N   1      24.481  15.786   3.508  0.00  0.00     0.139 C 
HETATM   37  O   UNK N   1      24.993  14.725   3.195  0.00  0.00    -0.650 OA
BRANCH  36  38
HETATM   38  O   UNK N   1      23.183  16.013   3.233  0.00  0.00    -0.776 OA
HETATM   39  H   UNK N   1      22.515  15.823   3.862  0.00  0.00     0.167 HD
ENDBRANCH  36  38
ENDBRANCH  35  36
ENDBRANCH  34  35
ENDBRANCH  33  34
BRANCH  33  40
HETATM   40  C   UNK N   1      24.399  20.432   3.068  0.00  0.00     0.163 C 
HETATM   41  O   UNK N   1      23.376  21.092   3.098  0.00  0.00    -0.648 OA
BRANCH  40  42
HETATM   42  O   UNK N   1      25.317  20.692   2.118  0.00  0.00    -0.775 OA
HETATM   43  H   UNK N   1      25.519  20.175   1.363  0.00  0.00     0.167 HD
ENDBRANCH  40  42
ENDBRANCH  33  40
ENDBRANCH  30  33
ENDBRANCH  26  29
ENDBRANCH   1  23
TORSDOF 12
ENDMDL
MODEL 9
REMARK VINA RESULT:      -7.8      2.800      4.932
REMARK  12 active torsions:
REMARK  status: ('A' for Active; 'I' for Inactive)
REMARK    1  A    between atoms: C_6  and  C_5 
REMARK    2  A    between atoms: C_12  and  C_5 
REMARK    3  A    between atoms: C_13  and  C_6 
REMARK    4  A    between atoms: C_11  and  C_7 
REMARK    5  A    between atoms: N_22  and  C_7 
REMARK    6  A    between atoms: C_16  and  C_9 
REMARK    7  A    between atoms: N_22  and  C_10 
REMARK    8  A    between atoms: C_18  and  C_12 
REMARK    9  A    between atoms: C_12  and  N_25 
REMARK   10  A    between atoms: O_30  and  C_13 
REMARK       I    between atoms: N_25  and  C_16 
REMARK   11  A    between atoms: O_32  and  C_17 
REMARK   12  A    between atoms: O_34  and  C_18 
REMARK       I    between atoms: N_20  and  C_19 
ROOT
HETATM    1  N   UNK N   1      23.606  14.953   4.879  0.00  0.00    -0.388 N 
HETATM    2  H   UNK N   1      23.299  14.183   5.411  0.00  0.00     0.159 HD
ENDROOT
BRANCH   1   3
HETATM    3  C   UNK N   1      22.744  15.510   3.869  0.00  0.00     0.146 C 
BRANCH   3   4
HETATM    4  C   UNK N   1      21.776  16.441   4.581  0.00  0.00     0.117 C 
HETATM    5  C   UNK N   1      20.329  16.248   4.105  0.00  0.00     0.148 C 
HETATM    6  N   UNK N   1      20.016  16.998   2.909  0.00  0.00    -0.372 N 
HETATM    7  C   UNK N   1      20.649  18.231   2.627  0.00  0.00     0.148 A 
HETATM    8  H   UNK N   1      19.349  16.643   2.278  0.00  0.00     0.161 HD
HETATM    9  C   UNK N   1      21.756  18.629   3.376  0.00  0.00     0.125 A 
HETATM   10  N   UNK N   1      20.180  19.029   1.637  0.00  0.00    -0.175 N 
HETATM   11  C   UNK N   1      22.375  19.840   3.065  0.00  0.00     0.185 A 
HETATM   12  N   UNK N   1      22.247  17.801   4.409  0.00  0.00    -0.376 N 
HETATM   13  N   UNK N   1      21.874  20.613   2.067  0.00  0.00    -0.168 N 
HETATM   14  C   UNK N   1      20.779  20.219   1.361  0.00  0.00     0.679 A 
ATOM     15  HN  UNK N   1      22.324  21.501   1.844  1.00  0.00     0.186 HD
HETATM   16  N   UNK N   1      20.312  20.968   0.437  0.00  0.00    -0.234 N 
HETATM   17  H   UNK N   1      19.460  20.748  -0.002  0.00  0.00     0.174 HD
ATOM     18  HN  UNK N   1      20.828  21.800   0.153  1.00  0.00     0.174 HD
HETATM   19  H   UNK N   1      22.924  18.157   5.028  0.00  0.00     0.160 HD
HETATM   20  H   UNK N   1      19.398  18.745   1.112  0.00  0.00     0.186 HD
BRANCH  11  21
HETATM   21  O   UNK N   1      23.468  20.240   3.738  0.00  0.00    -0.344 OA
HETATM   22  H   UNK N   1      23.800  21.114   3.667  0.00  0.00     0.219 HD
ENDBRANCH  11  21
ENDBRANCH   3   4
ENDBRANCH   1   3
BRANCH   1  23
HETATM   23  C   UNK N   1      24.887  15.497   5.116  0.00  0.00     0.028 A 
HETATM   24  C   UNK N   1      25.593  16.138   4.087  0.00  0.00     0.030 A 
HETATM   25  C   UNK N   1      26.826  16.729   4.350  0.00  0.00     0.019 A 
HETATM   26  C   UNK N   1      27.385  16.639   5.630  0.00  0.00     0.032 A 
HETATM   27  C   UNK N   1      26.699  15.949   6.641  0.00  0.00     0.019 A 
HETATM   28  C   UNK N   1      25.451  15.388   6.386  0.00  0.00     0.030 A 
BRANCH  26  29
HETATM   29  C   UNK N   1      28.536  17.469   5.995  0.00  0.00     0.252 C 
HETATM   30  N   UNK N   1      29.315  17.072   7.036  0.00  0.00    -0.343 N 
HETATM   31  H   UNK N   1      29.738  16.185   6.974  0.00  0.00     0.163 HD
HETATM   32  O   UNK N   1      28.635  18.589   5.520  0.00  0.00    -0.268 OA
BRANCH  30  33
HETATM   33  C   UNK N   1      29.572  17.854   8.231  0.00  0.00     0.183 C 
BRANCH  33  34
HETATM   34  C   UNK N   1      31.048  17.610   8.590  0.00  0.00     0.046 C 
BRANCH  34  35
HETATM   35  C   UNK N   1      31.634  16.357   7.952  0.00  0.00     0.112 C 
BRANCH  35  36
HETATM   36  C   UNK N   1      32.162  15.415   8.986  0.00  0.00     0.139 C 
HETATM   37  O   UNK N   1      33.143  14.736   8.737  0.00  0.00    -0.650 OA
BRANCH  36  38
HETATM   38  O   UNK N   1      31.562  15.312  10.188  0.00  0.00    -0.776 OA
HETATM   39  H   UNK N   1      32.009  14.936  10.921  0.00  0.00     0.167 HD
ENDBRANCH  36  38
ENDBRANCH  35  36
ENDBRANCH  34  35
ENDBRANCH  33  34
BRANCH  33  40
HETATM   40  C   UNK N   1      28.658  17.615   9.420  0.00  0.00     0.163 C 
HETATM   41  O   UNK N   1      28.991  16.898  10.349  0.00  0.00    -0.648 OA
BRANCH  40  42
HETATM   42  O   UNK N   1      27.437  18.181   9.437  0.00  0.00    -0.775 OA
HETATM   43  H   UNK N   1      27.160  18.953   8.984  0.00  0.00     0.167 HD
ENDBRANCH  40  42
ENDBRANCH  33  40
ENDBRANCH  30  33
ENDBRANCH  26  29
ENDBRANCH   1  23
TORSDOF 12
ENDMDL
