MODEL 1
REMARK VINA RESULT:      -8.4      0.000      0.000
REMARK  12 active torsions:
REMARK  status: ('A' for Active; 'I' for Inactive)
REMARK    1  A    between atoms: C_7  and  C_6 
REMARK    2  A    between atoms: C_13  and  C_6 
REMARK    3  A    between atoms: C_14  and  C_7 
REMARK    4  A    between atoms: C_11  and  C_8 
REMARK    5  A    between atoms: N_28  and  C_8 
REMARK    6  A    between atoms: C_17  and  C_10 
REMARK    7  A    between atoms: N_28  and  C_12 
REMARK    8  A    between atoms: C_19  and  C_13 
REMARK    9  A    between atoms: C_13  and  N_23 
REMARK   10  A    between atoms: O_29  and  C_14 
REMARK   11  A    between atoms: N_21  and  C_16 
REMARK       I    between atoms: N_23  and  C_17 
REMARK   12  A    between atoms: O_32  and  C_19 
REMARK       I    between atoms: N_22  and  C_20 
ROOT
HETATM    1  C   UNK N   1      24.160  18.500   4.198  0.00  0.00     0.019 A 
HETATM    2  C   UNK N   1      25.612  20.317   3.526  0.00  0.00     0.019 A 
HETATM    3  C   UNK N   1      25.272  17.751   4.567  0.00  0.00     0.030 A 
HETATM    4  C   UNK N   1      26.725  19.586   3.947  0.00  0.00     0.030 A 
HETATM    5  C   UNK N   1      24.325  19.769   3.634  0.00  0.00     0.032 A 
HETATM    6  C   UNK N   1      26.565  18.275   4.427  0.00  0.00     0.030 A 
ENDROOT
BRANCH   6   7
HETATM    7  N   UNK N   1      27.701  17.439   4.621  0.00  0.00    -0.381 N 
HETATM    8  C   UNK N   1      28.471  16.996   3.483  0.00  0.00     0.150 C 
BRANCH   7   9
HETATM    9  C   UNK N   1      27.784  16.678   5.853  0.00  0.00     0.164 C 
BRANCH   9  10
HETATM   10  C   UNK N   1      28.596  17.366   6.886  0.00  0.00     0.000 A 
HETATM   11  C   UNK N   1      28.195  18.466   7.639  0.00  0.00     0.154 A 
HETATM   12  O   UNK N   1      29.179  18.782   8.466  0.00  0.00    -0.304 OA
HETATM   13  C   UNK N   1      30.171  17.949   8.269  0.00  0.00     0.176 A 
HETATM   14  C   UNK N   1      29.866  17.057   7.295  0.00  0.00     0.070 A 
HETATM   15  N   UNK N   1      31.355  17.930   8.920  0.00  0.00    -0.169 N 
HETATM   16  C   UNK N   1      30.797  16.095   6.924  0.00  0.00     0.130 A 
HETATM   17  N   UNK N   1      31.993  16.074   7.578  0.00  0.00    -0.176 N 
HETATM   18  C   UNK N   1      32.272  16.975   8.573  0.00  0.00     0.679 A 
ATOM     19  HN  UNK N   1      32.690  15.375   7.323  1.00  0.00     0.186 HD
HETATM   20  N   UNK N   1      33.508  16.916   9.243  0.00  0.00    -0.234 N 
HETATM   21  H   UNK N   1      34.107  16.144   9.118  0.00  0.00     0.174 HD
HETATM   22  H   UNK N   1      33.777  17.651   9.841  0.00  0.00     0.174 HD
ATOM     23  HN  UNK N   1      31.560  18.610   9.653  1.00  0.00     0.186 HD
BRANCH  16  24
HETATM   24  N   UNK N   1      30.532  15.171   5.895  0.00  0.00    -0.384 N 
HETATM   25  H   UNK N   1      29.966  15.415   5.128  0.00  0.00     0.157 HD
HETATM   26  H   UNK N   1      30.919  14.267   5.944  0.00  0.00     0.157 HD
ENDBRANCH  16  24
ENDBRANCH   9  10
ENDBRANCH   7   9
ENDBRANCH   6   7
BRANCH   5  27
HETATM   27  C   UNK N   1      23.185  20.395   2.950  0.00  0.00     0.252 C 
HETATM   28  N   UNK N   1      22.131  19.622   2.587  0.00  0.00    -0.343 N 
HETATM   29  H   UNK N   1      22.273  18.654   2.486  0.00  0.00     0.163 HD
HETATM   30  O   UNK N   1      23.120  21.614   2.863  0.00  0.00    -0.268 OA
BRANCH  28  31
HETATM   31  C   UNK N   1      20.805  20.155   2.338  0.00  0.00     0.183 C 
BRANCH  31  32
HETATM   32  C   UNK N   1      19.788  19.008   2.411  0.00  0.00     0.046 C 
BRANCH  32  33
HETATM   33  C   UNK N   1      20.456  17.637   2.361  0.00  0.00     0.112 C 
BRANCH  33  34
HETATM   34  C   UNK N   1      20.143  16.950   1.075  0.00  0.00     0.139 C 
HETATM   35  O   UNK N   1      19.781  15.786   1.078  0.00  0.00    -0.650 OA
BRANCH  34  36
HETATM   36  O   UNK N   1      20.288  17.607  -0.091  0.00  0.00    -0.776 OA
HETATM   37  H   UNK N   1      20.223  18.540  -0.134  0.00  0.00     0.167 HD
ENDBRANCH  34  36
ENDBRANCH  33  34
ENDBRANCH  32  33
ENDBRANCH  31  32
BRANCH  31  38
HETATM   38  C   UNK N   1      20.771  20.900   1.034  0.00  0.00     0.163 C 
HETATM   39  O   UNK N   1      20.889  20.313  -0.030  0.00  0.00    -0.648 OA
BRANCH  38  40
HETATM   40  O   UNK N   1      20.565  22.230   1.039  0.00  0.00    -0.775 OA
HETATM   41  H   UNK N   1      21.005  22.788   0.429  0.00  0.00     0.167 HD
ENDBRANCH  38  40
ENDBRANCH  31  38
ENDBRANCH  28  31
ENDBRANCH   5  27
TORSDOF 12
ENDMDL
MODEL 2
REMARK VINA RESULT:      -7.7      1.741      2.438
REMARK  12 active torsions:
REMARK  status: ('A' for Active; 'I' for Inactive)
REMARK    1  A    between atoms: C_7  and  C_6 
REMARK    2  A    between atoms: C_13  and  C_6 
REMARK    3  A    between atoms: C_14  and  C_7 
REMARK    4  A    between atoms: C_11  and  C_8 
REMARK    5  A    between atoms: N_28  and  C_8 
REMARK    6  A    between atoms: C_17  and  C_10 
REMARK    7  A    between atoms: N_28  and  C_12 
REMARK    8  A    between atoms: C_19  and  C_13 
REMARK    9  A    between atoms: C_13  and  N_23 
REMARK   10  A    between atoms: O_29  and  C_14 
REMARK   11  A    between atoms: N_21  and  C_16 
REMARK       I    between atoms: N_23  and  C_17 
REMARK   12  A    between atoms: O_32  and  C_19 
REMARK       I    between atoms: N_22  and  C_20 
ROOT
HETATM    1  C   UNK N   1      26.264  20.412   4.117  0.00  0.00     0.019 A 
HETATM    2  C   UNK N   1      25.076  18.303   4.182  0.00  0.00     0.019 A 
HETATM    3  C   UNK N   1      27.145  19.942   5.086  0.00  0.00     0.030 A 
HETATM    4  C   UNK N   1      25.992  17.813   5.115  0.00  0.00     0.030 A 
HETATM    5  C   UNK N   1      25.199  19.612   3.692  0.00  0.00     0.032 A 
HETATM    6  C   UNK N   1      27.007  18.649   5.611  0.00  0.00     0.030 A 
ENDROOT
BRANCH   6   7
HETATM    7  N   UNK N   1      27.784  18.246   6.733  0.00  0.00    -0.381 N 
HETATM    8  C   UNK N   1      28.227  19.231   7.692  0.00  0.00     0.150 C 
BRANCH   7   9
HETATM    9  C   UNK N   1      28.503  16.989   6.648  0.00  0.00     0.164 C 
BRANCH   9  10
HETATM   10  C   UNK N   1      29.937  17.183   6.322  0.00  0.00     0.000 A 
HETATM   11  C   UNK N   1      30.469  17.321   5.043  0.00  0.00     0.154 A 
HETATM   12  O   UNK N   1      31.777  17.494   5.155  0.00  0.00    -0.304 OA
HETATM   13  C   UNK N   1      32.091  17.465   6.427  0.00  0.00     0.176 A 
HETATM   14  C   UNK N   1      30.990  17.266   7.192  0.00  0.00     0.070 A 
HETATM   15  N   UNK N   1      33.324  17.612   6.961  0.00  0.00    -0.169 N 
HETATM   16  C   UNK N   1      31.115  17.186   8.573  0.00  0.00     0.130 A 
HETATM   17  N   UNK N   1      32.357  17.334   9.115  0.00  0.00    -0.176 N 
HETATM   18  C   UNK N   1      33.454  17.553   8.322  0.00  0.00     0.679 A 
ATOM     19  HN  UNK N   1      32.471  17.281  10.127  1.00  0.00     0.186 HD
HETATM   20  N   UNK N   1      34.721  17.720   8.912  0.00  0.00    -0.234 N 
HETATM   21  H   UNK N   1      34.806  17.840   9.886  0.00  0.00     0.174 HD
HETATM   22  H   UNK N   1      35.528  17.717   8.348  0.00  0.00     0.174 HD
ATOM     23  HN  UNK N   1      34.138  17.765   6.364  1.00  0.00     0.186 HD
BRANCH  16  24
HETATM   24  N   UNK N   1      30.001  16.948   9.401  0.00  0.00    -0.384 N 
HETATM   25  H   UNK N   1      30.051  17.098  10.373  0.00  0.00     0.157 HD
HETATM   26  H   UNK N   1      29.161  16.625   9.003  0.00  0.00     0.157 HD
ENDBRANCH  16  24
ENDBRANCH   9  10
ENDBRANCH   7   9
ENDBRANCH   6   7
BRANCH   5  27
HETATM   27  C   UNK N   1      24.103  20.234   2.936  0.00  0.00     0.252 C 
HETATM   28  N   UNK N   1      22.868  19.673   2.986  0.00  0.00    -0.343 N 
HETATM   29  H   UNK N   1      22.794  18.725   3.238  0.00  0.00     0.163 HD
HETATM   30  O   UNK N   1      24.267  21.327   2.411  0.00  0.00    -0.268 OA
BRANCH  28  31
HETATM   31  C   UNK N   1      21.653  20.404   2.685  0.00  0.00     0.183 C 
BRANCH  31  32
HETATM   32  C   UNK N   1      20.584  20.042   3.726  0.00  0.00     0.046 C 
BRANCH  32  33
HETATM   33  C   UNK N   1      20.886  18.721   4.429  0.00  0.00     0.112 C 
BRANCH  33  34
HETATM   34  C   UNK N   1      20.379  17.573   3.624  0.00  0.00     0.139 C 
HETATM   35  O   UNK N   1      21.164  16.824   3.066  0.00  0.00    -0.650 OA
BRANCH  34  36
HETATM   36  O   UNK N   1      19.054  17.379   3.489  0.00  0.00    -0.776 OA
HETATM   37  H   UNK N   1      18.713  16.586   3.126  0.00  0.00     0.167 HD
ENDBRANCH  34  36
ENDBRANCH  33  34
ENDBRANCH  32  33
ENDBRANCH  31  32
BRANCH  31  38
HETATM   38  C   UNK N   1      21.217  20.147   1.270  0.00  0.00     0.163 C 
HETATM   39  O   UNK N   1      21.629  20.837   0.350  0.00  0.00    -0.648 OA
BRANCH  38  40
HETATM   40  O   UNK N   1      20.393  19.115   1.010  0.00  0.00    -0.775 OA
HETATM   41  H   UNK N   1      20.451  18.318   1.500  0.00  0.00     0.167 HD
ENDBRANCH  38  40
ENDBRANCH  31  38
ENDBRANCH  28  31
ENDBRANCH   5  27
TORSDOF 12
ENDMDL
MODEL 3
REMARK VINA RESULT:      -7.7      1.081      1.684
REMARK  12 active torsions:
REMARK  status: ('A' for Active; 'I' for Inactive)
REMARK    1  A    between atoms: C_7  and  C_6 
REMARK    2  A    between atoms: C_13  and  C_6 
REMARK    3  A    between atoms: C_14  and  C_7 
REMARK    4  A    between atoms: C_11  and  C_8 
REMARK    5  A    between atoms: N_28  and  C_8 
REMARK    6  A    between atoms: C_17  and  C_10 
REMARK    7  A    between atoms: N_28  and  C_12 
REMARK    8  A    between atoms: C_19  and  C_13 
REMARK    9  A    between atoms: C_13  and  N_23 
REMARK   10  A    between atoms: O_29  and  C_14 
REMARK   11  A    between atoms: N_21  and  C_16 
REMARK       I    between atoms: N_23  and  C_17 
REMARK   12  A    between atoms: O_32  and  C_19 
REMARK       I    between atoms: N_22  and  C_20 
ROOT
HETATM    1  C   UNK N   1      25.635  20.368   3.784  0.00  0.00     0.019 A 
HETATM    2  C   UNK N   1      24.343  18.323   3.875  0.00  0.00     0.019 A 
HETATM    3  C   UNK N   1      26.611  19.783   4.586  0.00  0.00     0.030 A 
HETATM    4  C   UNK N   1      25.348  17.719   4.633  0.00  0.00     0.030 A 
HETATM    5  C   UNK N   1      24.475  19.656   3.462  0.00  0.00     0.032 A 
HETATM    6  C   UNK N   1      26.469  18.463   5.036  0.00  0.00     0.030 A 
ENDROOT
BRANCH   6   7
HETATM    7  N   UNK N   1      27.368  17.939   6.007  0.00  0.00    -0.381 N 
HETATM    8  C   UNK N   1      27.122  16.637   6.585  0.00  0.00     0.150 C 
BRANCH   7   9
HETATM    9  C   UNK N   1      28.208  18.871   6.733  0.00  0.00     0.164 C 
BRANCH   9  10
HETATM   10  C   UNK N   1      28.901  18.231   7.878  0.00  0.00     0.000 A 
HETATM   11  C   UNK N   1      28.506  18.302   9.211  0.00  0.00     0.154 A 
HETATM   12  O   UNK N   1      29.359  17.592   9.933  0.00  0.00    -0.304 OA
HETATM   13  C   UNK N   1      30.263  17.088   9.130  0.00  0.00     0.176 A 
HETATM   14  C   UNK N   1      30.032  17.460   7.848  0.00  0.00     0.070 A 
HETATM   15  N   UNK N   1      31.303  16.296   9.475  0.00  0.00    -0.169 N 
HETATM   16  C   UNK N   1      30.893  17.042   6.841  0.00  0.00     0.130 A 
HETATM   17  N   UNK N   1      31.942  16.243   7.186  0.00  0.00    -0.176 N 
HETATM   18  C   UNK N   1      32.147  15.864   8.488  0.00  0.00     0.679 A 
ATOM     19  HN  UNK N   1      32.586  15.922   6.463  1.00  0.00     0.186 HD
HETATM   20  N   UNK N   1      33.229  15.024   8.810  0.00  0.00    -0.234 N 
HETATM   21  H   UNK N   1      33.743  14.579   8.098  0.00  0.00     0.174 HD
HETATM   22  H   UNK N   1      33.473  14.880   9.753  0.00  0.00     0.174 HD
ATOM     23  HN  UNK N   1      31.454  16.026  10.448  1.00  0.00     0.186 HD
BRANCH  16  24
HETATM   24  N   UNK N   1      30.706  17.433   5.502  0.00  0.00    -0.384 N 
HETATM   25  H   UNK N   1      30.939  18.341   5.202  0.00  0.00     0.157 HD
HETATM   26  H   UNK N   1      30.337  16.788   4.855  0.00  0.00     0.157 HD
ENDBRANCH  16  24
ENDBRANCH   9  10
ENDBRANCH   7   9
ENDBRANCH   6   7
BRANCH   5  27
HETATM   27  C   UNK N   1      23.325  20.388   2.912  0.00  0.00     0.252 C 
HETATM   28  N   UNK N   1      22.221  19.693   2.541  0.00  0.00    -0.343 N 
HETATM   29  H   UNK N   1      22.316  18.734   2.339  0.00  0.00     0.163 HD
HETATM   30  O   UNK N   1      23.305  21.611   2.947  0.00  0.00    -0.268 OA
BRANCH  28  31
HETATM   31  C   UNK N   1      20.906  20.294   2.426  0.00  0.00     0.183 C 
BRANCH  31  32
HETATM   32  C   UNK N   1      19.847  19.248   2.800  0.00  0.00     0.046 C 
BRANCH  32  33
HETATM   33  C   UNK N   1      20.446  17.855   2.975  0.00  0.00     0.112 C 
BRANCH  33  34
HETATM   34  C   UNK N   1      20.032  16.964   1.854  0.00  0.00     0.139 C 
HETATM   35  O   UNK N   1      20.163  17.333   0.699  0.00  0.00    -0.650 OA
BRANCH  34  36
HETATM   36  O   UNK N   1      19.486  15.761   2.117  0.00  0.00    -0.776 OA
HETATM   37  H   UNK N   1      18.778  15.427   1.604  0.00  0.00     0.167 HD
ENDBRANCH  34  36
ENDBRANCH  33  34
ENDBRANCH  32  33
ENDBRANCH  31  32
BRANCH  31  38
HETATM   38  C   UNK N   1      20.709  20.879   1.056  0.00  0.00     0.163 C 
HETATM   39  O   UNK N   1      20.656  22.088   0.890  0.00  0.00    -0.648 OA
BRANCH  38  40
HETATM   40  O   UNK N   1      20.631  20.058  -0.007  0.00  0.00    -0.775 OA
HETATM   41  H   UNK N   1      20.914  19.166   0.052  0.00  0.00     0.167 HD
ENDBRANCH  38  40
ENDBRANCH  31  38
ENDBRANCH  28  31
ENDBRANCH   5  27
TORSDOF 12
ENDMDL
MODEL 4
REMARK VINA RESULT:      -7.5      9.214     13.946
REMARK  12 active torsions:
REMARK  status: ('A' for Active; 'I' for Inactive)
REMARK    1  A    between atoms: C_7  and  C_6 
REMARK    2  A    between atoms: C_13  and  C_6 
REMARK    3  A    between atoms: C_14  and  C_7 
REMARK    4  A    between atoms: C_11  and  C_8 
REMARK    5  A    between atoms: N_28  and  C_8 
REMARK    6  A    between atoms: C_17  and  C_10 
REMARK    7  A    between atoms: N_28  and  C_12 
REMARK    8  A    between atoms: C_19  and  C_13 
REMARK    9  A    between atoms: C_13  and  N_23 
REMARK   10  A    between atoms: O_29  and  C_14 
REMARK   11  A    between atoms: N_21  and  C_16 
REMARK       I    between atoms: N_23  and  C_17 
REMARK   12  A    between atoms: O_32  and  C_19 
REMARK       I    between atoms: N_22  and  C_20 
ROOT
HETATM    1  C   UNK N   1      36.105  15.268  12.533  0.00  0.00     0.019 A 
HETATM    2  C   UNK N   1      34.796  13.865  11.057  0.00  0.00     0.019 A 
HETATM    3  C   UNK N   1      36.103  14.258  13.490  0.00  0.00     0.030 A 
HETATM    4  C   UNK N   1      34.841  12.832  11.996  0.00  0.00     0.030 A 
HETATM    5  C   UNK N   1      35.415  15.094  11.330  0.00  0.00     0.032 A 
HETATM    6  C   UNK N   1      35.454  13.040  13.242  0.00  0.00     0.030 A 
ENDROOT
BRANCH   6   7
HETATM    7  N   UNK N   1      35.290  12.091  14.290  0.00  0.00    -0.381 N 
HETATM    8  C   UNK N   1      33.971  11.599  14.614  0.00  0.00     0.150 C 
BRANCH   7   9
HETATM    9  C   UNK N   1      36.329  12.000  15.297  0.00  0.00     0.164 C 
BRANCH   9  10
HETATM   10  C   UNK N   1      35.847  12.400  16.642  0.00  0.00     0.000 A 
HETATM   11  C   UNK N   1      35.339  13.649  16.987  0.00  0.00     0.154 A 
HETATM   12  O   UNK N   1      34.996  13.618  18.266  0.00  0.00    -0.304 OA
HETATM   13  C   UNK N   1      35.266  12.426  18.738  0.00  0.00     0.176 A 
HETATM   14  C   UNK N   1      35.802  11.636  17.777  0.00  0.00     0.070 A 
HETATM   15  N   UNK N   1      35.054  11.987  19.999  0.00  0.00    -0.169 N 
HETATM   16  C   UNK N   1      36.174  10.333  18.083  0.00  0.00     0.130 A 
HETATM   17  N   UNK N   1      35.963   9.887  19.354  0.00  0.00    -0.176 N 
HETATM   18  C   UNK N   1      35.402  10.700  20.306  0.00  0.00     0.679 A 
ATOM     19  HN  UNK N   1      36.227   8.933  19.601  1.00  0.00     0.186 HD
HETATM   20  N   UNK N   1      35.180  10.205  21.604  0.00  0.00    -0.234 N 
HETATM   21  H   UNK N   1      35.273   9.244  21.795  0.00  0.00     0.174 HD
HETATM   22  H   UNK N   1      34.929  10.824  22.328  0.00  0.00     0.174 HD
ATOM     23  HN  UNK N   1      34.645  12.601  20.705  1.00  0.00     0.186 HD
BRANCH  16  24
HETATM   24  N   UNK N   1      36.765   9.490  17.123  0.00  0.00    -0.384 N 
HETATM   25  H   UNK N   1      36.576   9.603  16.164  0.00  0.00     0.157 HD
HETATM   26  H   UNK N   1      37.376   8.775  17.415  0.00  0.00     0.157 HD
ENDBRANCH  16  24
ENDBRANCH   9  10
ENDBRANCH   7   9
ENDBRANCH   6   7
BRANCH   5  27
HETATM   27  C   UNK N   1      35.145  16.270  10.490  0.00  0.00     0.252 C 
HETATM   28  N   UNK N   1      34.205  16.181   9.516  0.00  0.00    -0.343 N 
HETATM   29  H   UNK N   1      33.965  15.289   9.177  0.00  0.00     0.163 HD
HETATM   30  O   UNK N   1      35.640  17.351  10.777  0.00  0.00    -0.268 OA
BRANCH  28  31
HETATM   31  C   UNK N   1      33.538  17.337   8.950  0.00  0.00     0.183 C 
BRANCH  31  32
HETATM   32  C   UNK N   1      32.221  16.884   8.304  0.00  0.00     0.046 C 
BRANCH  32  33
HETATM   33  C   UNK N   1      32.162  15.371   8.111  0.00  0.00     0.112 C 
BRANCH  33  34
HETATM   34  C   UNK N   1      31.981  15.035   6.670  0.00  0.00     0.139 C 
HETATM   35  O   UNK N   1      31.327  14.057   6.348  0.00  0.00    -0.650 OA
BRANCH  34  36
HETATM   36  O   UNK N   1      32.563  15.795   5.724  0.00  0.00    -0.776 OA
HETATM   37  H   UNK N   1      33.057  15.410   5.027  0.00  0.00     0.167 HD
ENDBRANCH  34  36
ENDBRANCH  33  34
ENDBRANCH  32  33
ENDBRANCH  31  32
BRANCH  31  38
HETATM   38  C   UNK N   1      34.450  18.061   8.000  0.00  0.00     0.163 C 
HETATM   39  O   UNK N   1      34.499  17.755   6.819  0.00  0.00    -0.648 OA
BRANCH  38  40
HETATM   40  O   UNK N   1      35.191  19.090   8.451  0.00  0.00    -0.775 OA
HETATM   41  H   UNK N   1      34.791  19.903   8.691  0.00  0.00     0.167 HD
ENDBRANCH  38  40
ENDBRANCH  31  38
ENDBRANCH  28  31
ENDBRANCH   5  27
TORSDOF 12
ENDMDL
MODEL 5
REMARK VINA RESULT:      -7.4      7.015     12.584
REMARK  12 active torsions:
REMARK  status: ('A' for Active; 'I' for Inactive)
REMARK    1  A    between atoms: C_7  and  C_6 
REMARK    2  A    between atoms: C_13  and  C_6 
REMARK    3  A    between atoms: C_14  and  C_7 
REMARK    4  A    between atoms: C_11  and  C_8 
REMARK    5  A    between atoms: N_28  and  C_8 
REMARK    6  A    between atoms: C_17  and  C_10 
REMARK    7  A    between atoms: N_28  and  C_12 
REMARK    8  A    between atoms: C_19  and  C_13 
REMARK    9  A    between atoms: C_13  and  N_23 
REMARK   10  A    between atoms: O_29  and  C_14 
REMARK   11  A    between atoms: N_21  and  C_16 
REMARK       I    between atoms: N_23  and  C_17 
REMARK   12  A    between atoms: O_32  and  C_19 
REMARK       I    between atoms: N_22  and  C_20 
ROOT
HETATM    1  C   UNK N   1      33.356  12.897   6.865  0.00  0.00     0.019 A 
HETATM    2  C   UNK N   1      35.448  14.107   7.012  0.00  0.00     0.019 A 
HETATM    3  C   UNK N   1      33.010  13.640   5.741  0.00  0.00     0.030 A 
HETATM    4  C   UNK N   1      35.124  14.813   5.852  0.00  0.00     0.030 A 
HETATM    5  C   UNK N   1      34.557  13.157   7.533  0.00  0.00     0.032 A 
HETATM    6  C   UNK N   1      33.877  14.619   5.235  0.00  0.00     0.030 A 
ENDROOT
BRANCH   6   7
HETATM    7  N   UNK N   1      33.438  15.503   4.210  0.00  0.00    -0.381 N 
HETATM    8  C   UNK N   1      33.699  15.184   2.825  0.00  0.00     0.150 C 
BRANCH   7   9
HETATM    9  C   UNK N   1      33.181  16.885   4.565  0.00  0.00     0.164 C 
BRANCH   9  10
HETATM   10  C   UNK N   1      31.860  17.061   5.217  0.00  0.00     0.000 A 
HETATM   11  C   UNK N   1      30.623  16.999   4.581  0.00  0.00     0.154 A 
HETATM   12  O   UNK N   1      29.680  17.186   5.490  0.00  0.00    -0.304 OA
HETATM   13  C   UNK N   1      30.255  17.367   6.653  0.00  0.00     0.176 A 
HETATM   14  C   UNK N   1      31.604  17.308   6.539  0.00  0.00     0.070 A 
HETATM   15  N   UNK N   1      29.640  17.581   7.838  0.00  0.00    -0.169 N 
HETATM   16  C   UNK N   1      32.401  17.493   7.662  0.00  0.00     0.130 A 
HETATM   17  N   UNK N   1      31.783  17.710   8.858  0.00  0.00    -0.176 N 
HETATM   18  C   UNK N   1      30.416  17.747   8.953  0.00  0.00     0.679 A 
ATOM     19  HN  UNK N   1      32.349  17.846   9.696  1.00  0.00     0.186 HD
HETATM   20  N   UNK N   1      29.807  17.954  10.205  0.00  0.00    -0.234 N 
HETATM   21  H   UNK N   1      30.341  17.914  11.031  0.00  0.00     0.174 HD
HETATM   22  H   UNK N   1      28.842  18.141  10.255  0.00  0.00     0.174 HD
ATOM     23  HN  UNK N   1      28.622  17.617   7.899  1.00  0.00     0.186 HD
BRANCH  16  24
HETATM   24  N   UNK N   1      33.806  17.473   7.580  0.00  0.00    -0.384 N 
HETATM   25  H   UNK N   1      34.263  17.111   6.787  0.00  0.00     0.157 HD
HETATM   26  H   UNK N   1      34.340  17.825   8.329  0.00  0.00     0.157 HD
ENDBRANCH  16  24
ENDBRANCH   9  10
ENDBRANCH   7   9
ENDBRANCH   6   7
BRANCH   5  27
HETATM   27  C   UNK N   1      34.748  12.612   8.885  0.00  0.00     0.252 C 
HETATM   28  N   UNK N   1      35.530  13.290   9.762  0.00  0.00    -0.343 N 
HETATM   29  H   UNK N   1      36.193  13.924   9.406  0.00  0.00     0.163 HD
HETATM   30  O   UNK N   1      34.080  11.658   9.258  0.00  0.00    -0.268 OA
BRANCH  28  31
HETATM   31  C   UNK N   1      35.435  13.126  11.200  0.00  0.00     0.183 C 
BRANCH  31  32
HETATM   32  C   UNK N   1      34.887  14.422  11.813  0.00  0.00     0.046 C 
BRANCH  32  33
HETATM   33  C   UNK N   1      34.573  15.475  10.754  0.00  0.00     0.112 C 
BRANCH  33  34
HETATM   34  C   UNK N   1      35.691  16.456  10.645  0.00  0.00     0.139 C 
HETATM   35  O   UNK N   1      35.467  17.599  10.286  0.00  0.00    -0.650 OA
BRANCH  34  36
HETATM   36  O   UNK N   1      36.952  16.071  10.916  0.00  0.00    -0.776 OA
HETATM   37  H   UNK N   1      37.258  15.215  10.688  0.00  0.00     0.167 HD
ENDBRANCH  34  36
ENDBRANCH  33  34
ENDBRANCH  32  33
ENDBRANCH  31  32
BRANCH  31  38
HETATM   38  C   UNK N   1      36.760  12.709  11.773  0.00  0.00     0.163 C 
HETATM   39  O   UNK N   1      37.315  11.689  11.396  0.00  0.00    -0.648 OA
BRANCH  38  40
HETATM   40  O   UNK N   1      37.361  13.496  12.685  0.00  0.00    -0.775 OA
HETATM   41  H   UNK N   1      36.863  14.090  13.210  0.00  0.00     0.167 HD
ENDBRANCH  38  40
ENDBRANCH  31  38
ENDBRANCH  28  31
ENDBRANCH   5  27
TORSDOF 12
ENDMDL
MODEL 6
REMARK VINA RESULT:      -7.3      8.106     13.565
REMARK  12 active torsions:
REMARK  status: ('A' for Active; 'I' for Inactive)
REMARK    1  A    between atoms: C_7  and  C_6 
REMARK    2  A    between atoms: C_13  and  C_6 
REMARK    3  A    between atoms: C_14  and  C_7 
REMARK    4  A    between atoms: C_11  and  C_8 
REMARK    5  A    between atoms: N_28  and  C_8 
REMARK    6  A    between atoms: C_17  and  C_10 
REMARK    7  A    between atoms: N_28  and  C_12 
REMARK    8  A    between atoms: C_19  and  C_13 
REMARK    9  A    between atoms: C_13  and  N_23 
REMARK   10  A    between atoms: O_29  and  C_14 
REMARK   11  A    between atoms: N_21  and  C_16 
REMARK       I    between atoms: N_23  and  C_17 
REMARK   12  A    between atoms: O_32  and  C_19 
REMARK       I    between atoms: N_22  and  C_20 
ROOT
HETATM    1  C   UNK N   1      34.542  14.032  10.896  0.00  0.00     0.019 A 
HETATM    2  C   UNK N   1      35.890  15.363  12.404  0.00  0.00     0.019 A 
HETATM    3  C   UNK N   1      34.916  12.881  11.583  0.00  0.00     0.030 A 
HETATM    4  C   UNK N   1      36.220  14.215  13.126  0.00  0.00     0.030 A 
HETATM    5  C   UNK N   1      35.062  15.273  11.275  0.00  0.00     0.032 A 
HETATM    6  C   UNK N   1      35.774  12.956  12.689  0.00  0.00     0.030 A 
ENDROOT
BRANCH   6   7
HETATM    7  N   UNK N   1      36.304  11.768  13.265  0.00  0.00    -0.381 N 
HETATM    8  C   UNK N   1      37.579  11.258  12.816  0.00  0.00     0.150 C 
BRANCH   7   9
HETATM    9  C   UNK N   1      35.384  10.855  13.915  0.00  0.00     0.164 C 
BRANCH   9  10
HETATM   10  C   UNK N   1      35.843  10.461  15.269  0.00  0.00     0.000 A 
HETATM   11  C   UNK N   1      36.571   9.317  15.582  0.00  0.00     0.154 A 
HETATM   12  O   UNK N   1      36.810   9.321  16.884  0.00  0.00    -0.304 OA
HETATM   13  C   UNK N   1      36.269  10.396  17.401  0.00  0.00     0.176 A 
HETATM   14  C   UNK N   1      35.650  11.132  16.447  0.00  0.00     0.070 A 
HETATM   15  N   UNK N   1      36.296  10.773  18.699  0.00  0.00    -0.169 N 
HETATM   16  C   UNK N   1      34.997  12.308  16.797  0.00  0.00     0.130 A 
HETATM   17  N   UNK N   1      35.022  12.690  18.105  0.00  0.00    -0.176 N 
HETATM   18  C   UNK N   1      35.671  11.938  19.051  0.00  0.00     0.679 A 
ATOM     19  HN  UNK N   1      34.551  13.551  18.384  1.00  0.00     0.186 HD
HETATM   20  N   UNK N   1      35.695  12.370  20.390  0.00  0.00    -0.234 N 
HETATM   21  H   UNK N   1      35.392  13.276  20.628  0.00  0.00     0.174 HD
HETATM   22  H   UNK N   1      36.017  11.761  21.095  0.00  0.00     0.174 HD
ATOM     23  HN  UNK N   1      36.773  10.204  19.399  1.00  0.00     0.186 HD
BRANCH  16  24
HETATM   24  N   UNK N   1      34.314  13.084  15.841  0.00  0.00    -0.384 N 
HETATM   25  H   UNK N   1      34.758  13.835  15.387  0.00  0.00     0.157 HD
HETATM   26  H   UNK N   1      33.377  12.873  15.625  0.00  0.00     0.157 HD
ENDBRANCH  16  24
ENDBRANCH   9  10
ENDBRANCH   7   9
ENDBRANCH   6   7
BRANCH   5  27
HETATM   27  C   UNK N   1      34.931  16.408  10.351  0.00  0.00     0.252 C 
HETATM   28  N   UNK N   1      33.930  16.398   9.434  0.00  0.00    -0.343 N 
HETATM   29  H   UNK N   1      33.532  15.533   9.185  0.00  0.00     0.163 HD
HETATM   30  O   UNK N   1      35.607  17.414  10.519  0.00  0.00    -0.268 OA
BRANCH  28  31
HETATM   31  C   UNK N   1      33.421  17.600   8.802  0.00  0.00     0.183 C 
BRANCH  31  32
HETATM   32  C   UNK N   1      32.123  17.257   8.057  0.00  0.00     0.046 C 
BRANCH  32  33
HETATM   33  C   UNK N   1      30.967  16.969   9.012  0.00  0.00     0.112 C 
BRANCH  33  34
HETATM   34  C   UNK N   1      29.961  18.069   8.962  0.00  0.00     0.139 C 
HETATM   35  O   UNK N   1      29.855  18.841   9.899  0.00  0.00    -0.650 OA
BRANCH  34  36
HETATM   36  O   UNK N   1      29.152  18.191   7.893  0.00  0.00    -0.776 OA
HETATM   37  H   UNK N   1      28.324  17.755   7.859  0.00  0.00     0.167 HD
ENDBRANCH  34  36
ENDBRANCH  33  34
ENDBRANCH  32  33
ENDBRANCH  31  32
BRANCH  31  38
HETATM   38  C   UNK N   1      34.468  18.219   7.921  0.00  0.00     0.163 C 
HETATM   39  O   UNK N   1      34.595  17.873   6.757  0.00  0.00    -0.648 OA
BRANCH  38  40
HETATM   40  O   UNK N   1      35.250  19.198   8.412  0.00  0.00    -0.775 OA
HETATM   41  H   UNK N   1      36.183  19.106   8.429  0.00  0.00     0.167 HD
ENDBRANCH  38  40
ENDBRANCH  31  38
ENDBRANCH  28  31
ENDBRANCH   5  27
TORSDOF 12
ENDMDL
MODEL 7
REMARK VINA RESULT:      -7.2      2.785      4.454
REMARK  12 active torsions:
REMARK  status: ('A' for Active; 'I' for Inactive)
REMARK    1  A    between atoms: C_7  and  C_6 
REMARK    2  A    between atoms: C_13  and  C_6 
REMARK    3  A    between atoms: C_14  and  C_7 
REMARK    4  A    between atoms: C_11  and  C_8 
REMARK    5  A    between atoms: N_28  and  C_8 
REMARK    6  A    between atoms: C_17  and  C_10 
REMARK    7  A    between atoms: N_28  and  C_12 
REMARK    8  A    between atoms: C_19  and  C_13 
REMARK    9  A    between atoms: C_13  and  N_23 
REMARK   10  A    between atoms: O_29  and  C_14 
REMARK   11  A    between atoms: N_21  and  C_16 
REMARK       I    between atoms: N_23  and  C_17 
REMARK   12  A    between atoms: O_32  and  C_19 
REMARK       I    between atoms: N_22  and  C_20 
ROOT
HETATM    1  C   UNK N   1      28.291  18.082   4.373  0.00  0.00     0.019 A 
HETATM    2  C   UNK N   1      27.967  18.314   6.761  0.00  0.00     0.019 A 
HETATM    3  C   UNK N   1      29.530  17.493   4.601  0.00  0.00     0.030 A 
HETATM    4  C   UNK N   1      29.186  17.673   6.990  0.00  0.00     0.030 A 
HETATM    5  C   UNK N   1      27.522  18.536   5.449  0.00  0.00     0.032 A 
HETATM    6  C   UNK N   1      30.001  17.302   5.908  0.00  0.00     0.030 A 
ENDROOT
BRANCH   6   7
HETATM    7  N   UNK N   1      31.342  16.880   6.131  0.00  0.00    -0.381 N 
HETATM    8  C   UNK N   1      32.235  16.700   5.010  0.00  0.00     0.150 C 
BRANCH   7   9
HETATM    9  C   UNK N   1      31.644  16.196   7.373  0.00  0.00     0.164 C 
BRANCH   9  10
HETATM   10  C   UNK N   1      32.796  16.802   8.084  0.00  0.00     0.000 A 
HETATM   11  C   UNK N   1      33.323  18.069   7.849  0.00  0.00     0.154 A 
HETATM   12  O   UNK N   1      34.329  18.261   8.688  0.00  0.00    -0.304 OA
HETATM   13  C   UNK N   1      34.463  17.188   9.428  0.00  0.00     0.176 A 
HETATM   14  C   UNK N   1      33.545  16.250   9.089  0.00  0.00     0.070 A 
HETATM   15  N   UNK N   1      35.369  16.989  10.411  0.00  0.00    -0.169 N 
HETATM   16  C   UNK N   1      33.531  15.027   9.748  0.00  0.00     0.130 A 
HETATM   17  N   UNK N   1      34.444  14.823  10.739  0.00  0.00    -0.176 N 
HETATM   18  C   UNK N   1      35.352  15.794  11.077  0.00  0.00     0.679 A 
ATOM     19  HN  UNK N   1      34.451  13.933  11.238  1.00  0.00     0.186 HD
HETATM   20  N   UNK N   1      36.270  15.560  12.118  0.00  0.00    -0.234 N 
HETATM   21  H   UNK N   1      36.167  14.778  12.708  0.00  0.00     0.174 HD
HETATM   22  H   UNK N   1      37.021  16.182  12.258  0.00  0.00     0.174 HD
ATOM     23  HN  UNK N   1      36.048  17.712  10.651  1.00  0.00     0.186 HD
BRANCH  16  24
HETATM   24  N   UNK N   1      32.616  14.014   9.404  0.00  0.00    -0.384 N 
HETATM   25  H   UNK N   1      32.558  13.676   8.482  0.00  0.00     0.157 HD
HETATM   26  H   UNK N   1      32.025  13.640  10.096  0.00  0.00     0.157 HD
ENDBRANCH  16  24
ENDBRANCH   9  10
ENDBRANCH   7   9
ENDBRANCH   6   7
BRANCH   5  27
HETATM   27  C   UNK N   1      26.397  19.443   5.183  0.00  0.00     0.252 C 
HETATM   28  N   UNK N   1      25.564  19.172   4.147  0.00  0.00    -0.343 N 
HETATM   29  H   UNK N   1      25.893  18.596   3.420  0.00  0.00     0.163 HD
HETATM   30  O   UNK N   1      26.124  20.328   5.984  0.00  0.00    -0.268 OA
BRANCH  28  31
HETATM   31  C   UNK N   1      24.213  19.691   4.059  0.00  0.00     0.183 C 
BRANCH  31  32
HETATM   32  C   UNK N   1      23.233  18.513   3.965  0.00  0.00     0.046 C 
BRANCH  32  33
HETATM   33  C   UNK N   1      22.785  18.022   5.339  0.00  0.00     0.112 C 
BRANCH  33  34
HETATM   34  C   UNK N   1      23.414  16.707   5.655  0.00  0.00     0.139 C 
HETATM   35  O   UNK N   1      24.471  16.396   5.134  0.00  0.00    -0.650 OA
BRANCH  34  36
HETATM   36  O   UNK N   1      22.800  15.853   6.494  0.00  0.00    -0.776 OA
HETATM   37  H   UNK N   1      21.987  15.448   6.266  0.00  0.00     0.167 HD
ENDBRANCH  34  36
ENDBRANCH  33  34
ENDBRANCH  32  33
ENDBRANCH  31  32
BRANCH  31  38
HETATM   38  C   UNK N   1      24.091  20.660   2.917  0.00  0.00     0.163 C 
HETATM   39  O   UNK N   1      24.984  20.775   2.092  0.00  0.00    -0.648 OA
BRANCH  38  40
HETATM   40  O   UNK N   1      22.963  21.381   2.780  0.00  0.00    -0.775 OA
HETATM   41  H   UNK N   1      22.658  21.932   3.474  0.00  0.00     0.167 HD
ENDBRANCH  38  40
ENDBRANCH  31  38
ENDBRANCH  28  31
ENDBRANCH   5  27
TORSDOF 12
ENDMDL
MODEL 8
REMARK VINA RESULT:      -7.2      6.601     14.695
REMARK  12 active torsions:
REMARK  status: ('A' for Active; 'I' for Inactive)
REMARK    1  A    between atoms: C_7  and  C_6 
REMARK    2  A    between atoms: C_13  and  C_6 
REMARK    3  A    between atoms: C_14  and  C_7 
REMARK    4  A    between atoms: C_11  and  C_8 
REMARK    5  A    between atoms: N_28  and  C_8 
REMARK    6  A    between atoms: C_17  and  C_10 
REMARK    7  A    between atoms: N_28  and  C_12 
REMARK    8  A    between atoms: C_19  and  C_13 
REMARK    9  A    between atoms: C_13  and  N_23 
REMARK   10  A    between atoms: O_29  and  C_14 
REMARK   11  A    between atoms: N_21  and  C_16 
REMARK       I    between atoms: N_23  and  C_17 
REMARK   12  A    between atoms: O_32  and  C_19 
REMARK       I    between atoms: N_22  and  C_20 
ROOT
HETATM    1  C   UNK N   1      34.829  13.936  10.832  0.00  0.00     0.019 A 
HETATM    2  C   UNK N   1      36.017  16.025  11.121  0.00  0.00     0.019 A 
HETATM    3  C   UNK N   1      33.976  14.550   9.921  0.00  0.00     0.030 A 
HETATM    4  C   UNK N   1      35.196  16.627  10.166  0.00  0.00     0.030 A 
HETATM    5  C   UNK N   1      35.826  14.680  11.470  0.00  0.00     0.032 A 
HETATM    6  C   UNK N   1      34.135  15.905   9.594  0.00  0.00     0.030 A 
ENDROOT
BRANCH   6   7
HETATM    7  N   UNK N   1      33.148  16.573   8.816  0.00  0.00    -0.381 N 
HETATM    8  C   UNK N   1      33.403  17.908   8.326  0.00  0.00     0.150 C 
BRANCH   7   9
HETATM    9  C   UNK N   1      31.774  16.127   8.929  0.00  0.00     0.164 C 
BRANCH   9  10
HETATM   10  C   UNK N   1      30.934  16.600   7.801  0.00  0.00     0.000 A 
HETATM   11  C   UNK N   1      31.028  16.171   6.480  0.00  0.00     0.154 A 
HETATM   12  O   UNK N   1      30.104  16.804   5.773  0.00  0.00    -0.304 OA
HETATM   13  C   UNK N   1      29.445  17.605   6.573  0.00  0.00     0.176 A 
HETATM   14  C   UNK N   1      29.925  17.524   7.839  0.00  0.00     0.070 A 
HETATM   15  N   UNK N   1      28.417  18.417   6.241  0.00  0.00    -0.169 N 
HETATM   16  C   UNK N   1      29.368  18.312   8.839  0.00  0.00     0.130 A 
HETATM   17  N   UNK N   1      28.332  19.133   8.507  0.00  0.00    -0.176 N 
HETATM   18  C   UNK N   1      27.852  19.184   7.223  0.00  0.00     0.679 A 
ATOM     19  HN  UNK N   1      27.907  19.719   9.226  1.00  0.00     0.186 HD
HETATM   20  N   UNK N   1      26.769  20.028   6.916  0.00  0.00    -0.234 N 
HETATM   21  H   UNK N   1      26.252  20.459   7.635  0.00  0.00     0.174 HD
HETATM   22  H   UNK N   1      26.525  20.189   5.975  0.00  0.00     0.174 HD
ATOM     23  HN  UNK N   1      28.071  18.457   5.282  1.00  0.00     0.186 HD
BRANCH  16  24
HETATM   24  N   UNK N   1      29.859  18.283  10.158  0.00  0.00    -0.384 N 
HETATM   25  H   UNK N   1      29.247  18.199  10.924  0.00  0.00     0.157 HD
HETATM   26  H   UNK N   1      30.828  18.348  10.317  0.00  0.00     0.157 HD
ENDBRANCH  16  24
ENDBRANCH   9  10
ENDBRANCH   7   9
ENDBRANCH   6   7
BRANCH   5  27
HETATM   27  C   UNK N   1      36.485  14.113  12.655  0.00  0.00     0.252 C 
HETATM   28  N   UNK N   1      36.590  14.872  13.775  0.00  0.00    -0.343 N 
HETATM   29  H   UNK N   1      36.531  15.850  13.685  0.00  0.00     0.163 HD
HETATM   30  O   UNK N   1      36.780  12.926  12.680  0.00  0.00    -0.268 OA
BRANCH  28  31
HETATM   31  C   UNK N   1      36.786  14.311  15.097  0.00  0.00     0.183 C 
BRANCH  31  32
HETATM   32  C   UNK N   1      35.530  13.522  15.494  0.00  0.00     0.046 C 
BRANCH  32  33
HETATM   33  C   UNK N   1      35.866  12.139  16.044  0.00  0.00     0.112 C 
BRANCH  33  34
HETATM   34  C   UNK N   1      35.400  12.010  17.455  0.00  0.00     0.139 C 
HETATM   35  O   UNK N   1      35.375  10.916  17.992  0.00  0.00    -0.650 OA
BRANCH  34  36
HETATM   36  O   UNK N   1      34.979  13.099  18.126  0.00  0.00    -0.776 OA
HETATM   37  H   UNK N   1      35.108  13.179  19.050  0.00  0.00     0.167 HD
ENDBRANCH  34  36
ENDBRANCH  33  34
ENDBRANCH  32  33
ENDBRANCH  31  32
BRANCH  31  38
HETATM   38  C   UNK N   1      37.149  15.388  16.081  0.00  0.00     0.163 C 
HETATM   39  O   UNK N   1      37.744  16.392  15.722  0.00  0.00    -0.648 OA
BRANCH  38  40
HETATM   40  O   UNK N   1      36.775  15.260  17.367  0.00  0.00    -0.775 OA
HETATM   41  H   UNK N   1      37.186  14.631  17.927  0.00  0.00     0.167 HD
ENDBRANCH  38  40
ENDBRANCH  31  38
ENDBRANCH  28  31
ENDBRANCH   5  27
TORSDOF 12
ENDMDL
MODEL 9
REMARK VINA RESULT:      -7.2      7.685     13.156
REMARK  12 active torsions:
REMARK  status: ('A' for Active; 'I' for Inactive)
REMARK    1  A    between atoms: C_7  and  C_6 
REMARK    2  A    between atoms: C_13  and  C_6 
REMARK    3  A    between atoms: C_14  and  C_7 
REMARK    4  A    between atoms: C_11  and  C_8 
REMARK    5  A    between atoms: N_28  and  C_8 
REMARK    6  A    between atoms: C_17  and  C_10 
REMARK    7  A    between atoms: N_28  and  C_12 
REMARK    8  A    between atoms: C_19  and  C_13 
REMARK    9  A    between atoms: C_13  and  N_23 
REMARK   10  A    between atoms: O_29  and  C_14 
REMARK   11  A    between atoms: N_21  and  C_16 
REMARK       I    between atoms: N_23  and  C_17 
REMARK   12  A    between atoms: O_32  and  C_19 
REMARK       I    between atoms: N_22  and  C_20 
ROOT
HETATM    1  C   UNK N   1      33.382  15.133   9.367  0.00  0.00     0.019 A 
HETATM    2  C   UNK N   1      34.246  17.366   9.005  0.00  0.00     0.019 A 
HETATM    3  C   UNK N   1      32.252  15.453   8.621  0.00  0.00     0.030 A 
HETATM    4  C   UNK N   1      33.138  17.668   8.211  0.00  0.00     0.030 A 
HETATM    5  C   UNK N   1      34.364  16.101   9.601  0.00  0.00     0.032 A 
HETATM    6  C   UNK N   1      32.107  16.727   8.054  0.00  0.00     0.030 A 
ENDROOT
BRANCH   6   7
HETATM    7  N   UNK N   1      30.871  17.109   7.460  0.00  0.00    -0.381 N 
HETATM    8  C   UNK N   1      29.921  17.890   8.218  0.00  0.00     0.150 C 
BRANCH   7   9
HETATM    9  C   UNK N   1      30.390  16.337   6.331  0.00  0.00     0.164 C 
BRANCH   9  10
HETATM   10  C   UNK N   1      31.239  16.511   5.127  0.00  0.00     0.000 A 
HETATM   11  C   UNK N   1      31.444  17.704   4.441  0.00  0.00     0.154 A 
HETATM   12  O   UNK N   1      32.275  17.467   3.438  0.00  0.00    -0.304 OA
HETATM   13  C   UNK N   1      32.594  16.197   3.455  0.00  0.00     0.176 A 
HETATM   14  C   UNK N   1      31.973  15.557   4.476  0.00  0.00     0.070 A 
HETATM   15  N   UNK N   1      33.426  15.558   2.602  0.00  0.00    -0.169 N 
HETATM   16  C   UNK N   1      32.168  14.193   4.656  0.00  0.00     0.130 A 
HETATM   17  N   UNK N   1      33.006  13.546   3.798  0.00  0.00    -0.176 N 
HETATM   18  C   UNK N   1      33.638  14.218   2.782  0.00  0.00     0.679 A 
ATOM     19  HN  UNK N   1      33.166  12.545   3.913  1.00  0.00     0.186 HD
HETATM   20  N   UNK N   1      34.512  13.526   1.924  0.00  0.00    -0.234 N 
HETATM   21  H   UNK N   1      34.797  12.608   2.137  0.00  0.00     0.174 HD
HETATM   22  H   UNK N   1      34.841  13.963   1.104  0.00  0.00     0.174 HD
ATOM     23  HN  UNK N   1      33.885  16.063   1.843  1.00  0.00     0.186 HD
BRANCH  16  24
HETATM   24  N   UNK N   1      31.517  13.485   5.684  0.00  0.00    -0.384 N 
HETATM   25  H   UNK N   1      30.655  13.037   5.523  0.00  0.00     0.157 HD
HETATM   26  H   UNK N   1      31.929  13.437   6.577  0.00  0.00     0.157 HD
ENDBRANCH  16  24
ENDBRANCH   9  10
ENDBRANCH   7   9
ENDBRANCH   6   7
BRANCH   5  27
HETATM   27  C   UNK N   1      35.363  15.858  10.651  0.00  0.00     0.252 C 
HETATM   28  N   UNK N   1      35.225  14.772  11.452  0.00  0.00    -0.343 N 
HETATM   29  H   UNK N   1      34.333  14.366  11.540  0.00  0.00     0.163 HD
HETATM   30  O   UNK N   1      36.385  16.530  10.688  0.00  0.00    -0.268 OA
BRANCH  28  31
HETATM   31  C   UNK N   1      36.328  14.180  12.184  0.00  0.00     0.183 C 
BRANCH  31  32
HETATM   32  C   UNK N   1      36.713  12.853  11.516  0.00  0.00     0.046 C 
BRANCH  32  33
HETATM   33  C   UNK N   1      38.169  12.836  11.059  0.00  0.00     0.112 C 
BRANCH  33  34
HETATM   34  C   UNK N   1      38.332  13.625   9.804  0.00  0.00     0.139 C 
HETATM   35  O   UNK N   1      38.155  13.094   8.721  0.00  0.00    -0.650 OA
BRANCH  34  36
HETATM   36  O   UNK N   1      38.702  14.918   9.867  0.00  0.00    -0.776 OA
HETATM   37  H   UNK N   1      38.170  15.555  10.303  0.00  0.00     0.167 HD
ENDBRANCH  34  36
ENDBRANCH  33  34
ENDBRANCH  32  33
ENDBRANCH  31  32
BRANCH  31  38
HETATM   38  C   UNK N   1      35.981  14.037  13.639  0.00  0.00     0.163 C 
HETATM   39  O   UNK N   1      34.926  13.532  13.987  0.00  0.00    -0.648 OA
BRANCH  38  40
HETATM   40  O   UNK N   1      36.867  14.436  14.571  0.00  0.00    -0.775 OA
HETATM   41  H   UNK N   1      37.701  14.785  14.323  0.00  0.00     0.167 HD
ENDBRANCH  38  40
ENDBRANCH  31  38
ENDBRANCH  28  31
ENDBRANCH   5  27
TORSDOF 12
ENDMDL
