MODEL 1
REMARK VINA RESULT:      -4.8      0.000      0.000
REMARK  6 active torsions:
REMARK  status: ('A' for Active; 'I' for Inactive)
REMARK    1  A    between atoms: C_3  and  C_2 
REMARK    2  A    between atoms: O_9  and  C_2 
REMARK    3  A    between atoms: C_4  and  N_8 
REMARK    4  A    between atoms: C_5  and  O_10 
REMARK    5  A    between atoms: C_6  and  O_11 
REMARK    6  A    between atoms: C_7  and  O_12 
ROOT
HETATM    1  C   UNK N   1      32.886  15.403   7.955  0.00  0.00     0.008 C 
HETATM    2  C   UNK N   1      32.769  16.321   6.980  0.00  0.00    -0.027 C 
HETATM    3  C   UNK N   1      33.686  15.617   9.217  0.00  0.00     0.129 C 
HETATM    4  C   UNK N   1      33.489  17.665   7.064  0.00  0.00     0.180 C 
HETATM    5  C   UNK N   1      34.024  17.101   9.454  0.00  0.00     0.175 C 
HETATM    6  C   UNK N   1      34.572  17.697   8.162  0.00  0.00     0.182 C 
ENDROOT
BRANCH   2   7
HETATM    7  C   UNK N   1      31.834  15.998   5.845  0.00  0.00     0.201 C 
BRANCH   7   8
HETATM    8  O   UNK N   1      31.318  17.144   5.238  0.00  0.00    -0.397 OA
HETATM    9  H   UNK N   1      31.600  17.419   4.352  0.00  0.00     0.209 HD
ENDBRANCH   7   8
ENDBRANCH   2   7
BRANCH   4  10
HETATM   10  O   UNK N   1      34.100  17.969   5.846  0.00  0.00    -0.388 OA
HETATM   11  H   UNK N   1      34.228  17.411   5.063  0.00  0.00     0.210 HD
ENDBRANCH   4  10
BRANCH   3  12
HETATM   12  N   UNK N   1      32.939  15.105  10.353  0.00  0.00    -0.421 N 
HETATM   13  H   UNK N   1      31.962  14.813  10.379  0.00  0.00     0.150 HD
HETATM   14  H   UNK N   1      33.454  15.026  11.230  0.00  0.00     0.150 HD
ENDBRANCH   3  12
BRANCH   6  15
HETATM   15  O   UNK N   1      34.991  19.015   8.366  0.00  0.00    -0.390 OA
HETATM   16  H   UNK N   1      35.892  19.328   8.186  0.00  0.00     0.210 HD
ENDBRANCH   6  15
BRANCH   5  17
HETATM   17  O   UNK N   1      34.969  17.204  10.479  0.00  0.00    -0.391 OA
HETATM   18  H   UNK N   1      35.172  16.455  11.061  0.00  0.00     0.210 HD
ENDBRANCH   5  17
TORSDOF 6
ENDMDL
MODEL 2
REMARK VINA RESULT:      -4.7     12.266     13.992
REMARK  6 active torsions:
REMARK  status: ('A' for Active; 'I' for Inactive)
REMARK    1  A    between atoms: C_3  and  C_2 
REMARK    2  A    between atoms: O_9  and  C_2 
REMARK    3  A    between atoms: C_4  and  N_8 
REMARK    4  A    between atoms: C_5  and  O_10 
REMARK    5  A    between atoms: C_6  and  O_11 
REMARK    6  A    between atoms: C_7  and  O_12 
ROOT
HETATM    1  C   UNK N   1      21.811  19.746   3.101  0.00  0.00     0.008 C 
HETATM    2  C   UNK N   1      20.729  19.682   2.305  0.00  0.00    -0.027 C 
HETATM    3  C   UNK N   1      22.214  18.648   4.055  0.00  0.00     0.129 C 
HETATM    4  C   UNK N   1      19.786  18.483   2.340  0.00  0.00     0.180 C 
HETATM    5  C   UNK N   1      21.507  17.315   3.751  0.00  0.00     0.175 C 
HETATM    6  C   UNK N   1      20.015  17.575   3.566  0.00  0.00     0.182 C 
ENDROOT
BRANCH   2   7
HETATM    7  C   UNK N   1      20.538  20.807   1.322  0.00  0.00     0.201 C 
BRANCH   7   8
HETATM    8  O   UNK N   1      20.586  20.370  -0.003  0.00  0.00    -0.397 OA
HETATM    9  H   UNK N   1      20.387  19.452  -0.242  0.00  0.00     0.209 HD
ENDBRANCH   7   8
ENDBRANCH   2   7
BRANCH   4  10
HETATM   10  O   UNK N   1      18.456  18.907   2.359  0.00  0.00    -0.388 OA
HETATM   11  H   UNK N   1      18.045  19.671   1.925  0.00  0.00     0.210 HD
ENDBRANCH   4  10
BRANCH   3  12
HETATM   12  N   UNK N   1      23.653  18.458   3.989  0.00  0.00    -0.421 N 
HETATM   13  H   UNK N   1      24.215  17.763   4.481  0.00  0.00     0.150 HD
HETATM   14  H   UNK N   1      24.162  19.095   3.377  0.00  0.00     0.150 HD
ENDBRANCH   3  12
BRANCH   6  15
HETATM   15  O   UNK N   1      19.322  16.373   3.394  0.00  0.00    -0.390 OA
HETATM   16  H   UNK N   1      18.460  16.187   3.796  0.00  0.00     0.210 HD
ENDBRANCH   6  15
BRANCH   5  17
HETATM   17  O   UNK N   1      21.719  16.424   4.808  0.00  0.00    -0.391 OA
HETATM   18  H   UNK N   1      21.167  16.440   5.605  0.00  0.00     0.210 HD
ENDBRANCH   5  17
TORSDOF 6
ENDMDL
MODEL 3
REMARK VINA RESULT:      -4.7      1.806      3.885
REMARK  6 active torsions:
REMARK  status: ('A' for Active; 'I' for Inactive)
REMARK    1  A    between atoms: C_3  and  C_2 
REMARK    2  A    between atoms: O_9  and  C_2 
REMARK    3  A    between atoms: C_4  and  N_8 
REMARK    4  A    between atoms: C_5  and  O_10 
REMARK    5  A    between atoms: C_6  and  O_11 
REMARK    6  A    between atoms: C_7  and  O_12 
ROOT
HETATM    1  C   UNK N   1      33.670  15.008   8.267  0.00  0.00     0.008 C 
HETATM    2  C   UNK N   1      34.389  15.345   9.352  0.00  0.00    -0.027 C 
HETATM    3  C   UNK N   1      33.444  15.928   7.093  0.00  0.00     0.129 C 
HETATM    4  C   UNK N   1      35.009  16.732   9.494  0.00  0.00     0.180 C 
HETATM    5  C   UNK N   1      34.420  17.119   7.082  0.00  0.00     0.175 C 
HETATM    6  C   UNK N   1      34.454  17.746   8.472  0.00  0.00     0.182 C 
ENDROOT
BRANCH   2   7
HETATM    7  C   UNK N   1      34.622  14.269  10.379  0.00  0.00     0.201 C 
BRANCH   7   8
HETATM    8  O   UNK N   1      33.895  14.486  11.551  0.00  0.00    -0.397 OA
HETATM    9  H   UNK N   1      33.207  15.167  11.603  0.00  0.00     0.209 HD
ENDBRANCH   7   8
ENDBRANCH   2   7
BRANCH   4  10
HETATM   10  O   UNK N   1      34.780  17.242  10.774  0.00  0.00    -0.388 OA
HETATM   11  H   UNK N   1      34.976  18.122  11.133  0.00  0.00     0.210 HD
ENDBRANCH   4  10
BRANCH   3  12
HETATM   12  N   UNK N   1      33.586  15.176   5.858  0.00  0.00    -0.421 N 
HETATM   13  H   UNK N   1      34.442  14.801   5.449  0.00  0.00     0.150 HD
HETATM   14  H   UNK N   1      32.726  15.001   5.338  0.00  0.00     0.150 HD
ENDBRANCH   3  12
BRANCH   6  15
HETATM   15  O   UNK N   1      35.248  18.896   8.475  0.00  0.00    -0.390 OA
HETATM   16  H   UNK N   1      35.357  19.473   9.247  0.00  0.00     0.210 HD
ENDBRANCH   6  15
BRANCH   5  17
HETATM   17  O   UNK N   1      33.999  18.056   6.134  0.00  0.00    -0.391 OA
HETATM   18  H   UNK N   1      33.473  17.797   5.362  0.00  0.00     0.210 HD
ENDBRANCH   5  17
TORSDOF 6
ENDMDL
MODEL 4
REMARK VINA RESULT:      -4.7     10.900     12.522
REMARK  6 active torsions:
REMARK  status: ('A' for Active; 'I' for Inactive)
REMARK    1  A    between atoms: C_3  and  C_2 
REMARK    2  A    between atoms: O_9  and  C_2 
REMARK    3  A    between atoms: C_4  and  N_8 
REMARK    4  A    between atoms: C_5  and  O_10 
REMARK    5  A    between atoms: C_6  and  O_11 
REMARK    6  A    between atoms: C_7  and  O_12 
ROOT
HETATM    1  C   UNK N   1      23.651  13.313   8.571  0.00  0.00     0.008 C 
HETATM    2  C   UNK N   1      23.660  12.835   9.827  0.00  0.00    -0.027 C 
HETATM    3  C   UNK N   1      22.406  13.790   7.864  0.00  0.00     0.129 C 
HETATM    4  C   UNK N   1      22.371  12.699  10.634  0.00  0.00     0.180 C 
HETATM    5  C   UNK N   1      21.237  14.039   8.835  0.00  0.00     0.175 C 
HETATM    6  C   UNK N   1      21.103  12.838   9.767  0.00  0.00     0.182 C 
ENDROOT
BRANCH   2   7
HETATM    7  C   UNK N   1      25.003  12.518  10.429  0.00  0.00     0.201 C 
BRANCH   7   8
HETATM    8  O   UNK N   1      24.971  12.505  11.824  0.00  0.00    -0.397 OA
HETATM    9  H   UNK N   1      25.011  11.675  12.325  0.00  0.00     0.209 HD
ENDBRANCH   7   8
ENDBRANCH   2   7
BRANCH   4  10
HETATM   10  O   UNK N   1      22.323  11.458  11.273  0.00  0.00    -0.388 OA
HETATM   11  H   UNK N   1      23.027  10.804  11.406  0.00  0.00     0.210 HD
ENDBRANCH   4  10
BRANCH   3  12
HETATM   12  N   UNK N   1      22.702  15.016   7.142  0.00  0.00    -0.421 N 
HETATM   13  H   UNK N   1      23.593  15.303   6.736  0.00  0.00     0.150 HD
HETATM   14  H   UNK N   1      21.926  15.668   7.027  0.00  0.00     0.150 HD
ENDBRANCH   3  12
BRANCH   6  15
HETATM   15  O   UNK N   1      19.984  12.979  10.594  0.00  0.00    -0.390 OA
HETATM   16  H   UNK N   1      19.977  13.513  11.403  0.00  0.00     0.210 HD
ENDBRANCH   6  15
BRANCH   5  17
HETATM   17  O   UNK N   1      20.059  14.225   8.106  0.00  0.00    -0.391 OA
HETATM   18  H   UNK N   1      19.975  13.921   7.189  0.00  0.00     0.210 HD
ENDBRANCH   5  17
TORSDOF 6
ENDMDL
MODEL 5
REMARK VINA RESULT:      -4.6      1.455      2.443
REMARK  6 active torsions:
REMARK  status: ('A' for Active; 'I' for Inactive)
REMARK    1  A    between atoms: C_3  and  C_2 
REMARK    2  A    between atoms: O_9  and  C_2 
REMARK    3  A    between atoms: C_4  and  N_8 
REMARK    4  A    between atoms: C_5  and  O_10 
REMARK    5  A    between atoms: C_6  and  O_11 
REMARK    6  A    between atoms: C_7  and  O_12 
ROOT
HETATM    1  C   UNK N   1      33.295  15.244   7.888  0.00  0.00     0.008 C 
HETATM    2  C   UNK N   1      33.532  16.567   7.913  0.00  0.00    -0.027 C 
HETATM    3  C   UNK N   1      33.535  14.327   9.062  0.00  0.00     0.129 C 
HETATM    4  C   UNK N   1      34.113  17.246   9.151  0.00  0.00     0.180 C 
HETATM    5  C   UNK N   1      33.700  15.097  10.385  0.00  0.00     0.175 C 
HETATM    6  C   UNK N   1      34.684  16.243  10.173  0.00  0.00     0.182 C 
ENDROOT
BRANCH   2   7
HETATM    7  C   UNK N   1      33.122  17.358   6.699  0.00  0.00     0.201 C 
BRANCH   7   8
HETATM    8  O   UNK N   1      34.213  17.938   6.049  0.00  0.00    -0.397 OA
HETATM    9  H   UNK N   1      34.509  17.628   5.179  0.00  0.00     0.209 HD
ENDBRANCH   7   8
ENDBRANCH   2   7
BRANCH   4  10
HETATM   10  O   UNK N   1      35.137  18.125   8.790  0.00  0.00    -0.388 OA
HETATM   11  H   UNK N   1      35.219  19.078   8.955  0.00  0.00     0.210 HD
ENDBRANCH   4  10
BRANCH   3  12
HETATM   12  N   UNK N   1      32.425  13.396   9.180  0.00  0.00    -0.421 N 
HETATM   13  H   UNK N   1      32.245  12.730   9.931  0.00  0.00     0.150 HD
HETATM   14  H   UNK N   1      31.744  13.411   8.421  0.00  0.00     0.150 HD
ENDBRANCH   3  12
BRANCH   6  15
HETATM   15  O   UNK N   1      34.942  16.900  11.380  0.00  0.00    -0.390 OA
HETATM   16  H   UNK N   1      35.369  17.769  11.438  0.00  0.00     0.210 HD
ENDBRANCH   6  15
BRANCH   5  17
HETATM   17  O   UNK N   1      34.169  14.227  11.374  0.00  0.00    -0.391 OA
HETATM   18  H   UNK N   1      34.053  13.267  11.303  0.00  0.00     0.210 HD
ENDBRANCH   5  17
TORSDOF 6
ENDMDL
MODEL 6
REMARK VINA RESULT:      -4.6      2.263      3.748
REMARK  6 active torsions:
REMARK  status: ('A' for Active; 'I' for Inactive)
REMARK    1  A    between atoms: C_3  and  C_2 
REMARK    2  A    between atoms: O_9  and  C_2 
REMARK    3  A    between atoms: C_4  and  N_8 
REMARK    4  A    between atoms: C_5  and  O_10 
REMARK    5  A    between atoms: C_6  and  O_11 
REMARK    6  A    between atoms: C_7  and  O_12 
ROOT
HETATM    1  C   UNK N   1      33.317  16.258   7.337  0.00  0.00     0.008 C 
HETATM    2  C   UNK N   1      33.697  17.105   8.309  0.00  0.00    -0.027 C 
HETATM    3  C   UNK N   1      32.893  14.831   7.589  0.00  0.00     0.129 C 
HETATM    4  C   UNK N   1      33.768  16.661   9.768  0.00  0.00     0.180 C 
HETATM    5  C   UNK N   1      32.569  14.566   9.070  0.00  0.00     0.175 C 
HETATM    6  C   UNK N   1      33.694  15.129   9.933  0.00  0.00     0.182 C 
ENDROOT
BRANCH   2   7
HETATM    7  C   UNK N   1      33.970  18.530   7.905  0.00  0.00     0.201 C 
BRANCH   7   8
HETATM    8  O   UNK N   1      35.166  19.014   8.436  0.00  0.00    -0.397 OA
HETATM    9  H   UNK N   1      35.235  19.288   9.364  0.00  0.00     0.209 HD
ENDBRANCH   7   8
ENDBRANCH   2   7
BRANCH   4  10
HETATM   10  O   UNK N   1      34.956  17.101  10.355  0.00  0.00    -0.388 OA
HETATM   11  H   UNK N   1      35.112  17.860  10.940  0.00  0.00     0.210 HD
ENDBRANCH   4  10
BRANCH   3  12
HETATM   12  N   UNK N   1      31.727  14.526   6.777  0.00  0.00    -0.421 N 
HETATM   13  H   UNK N   1      31.127  13.703   6.829  0.00  0.00     0.150 HD
HETATM   14  H   UNK N   1      31.479  15.218   6.070  0.00  0.00     0.150 HD
ENDBRANCH   3  12
BRANCH   6  15
HETATM   15  O   UNK N   1      33.489  14.813  11.279  0.00  0.00    -0.390 OA
HETATM   16  H   UNK N   1      32.635  14.525  11.640  0.00  0.00     0.210 HD
ENDBRANCH   6  15
BRANCH   5  17
HETATM   17  O   UNK N   1      32.438  13.189   9.278  0.00  0.00    -0.391 OA
HETATM   18  H   UNK N   1      31.626  12.715   9.041  0.00  0.00     0.210 HD
ENDBRANCH   5  17
TORSDOF 6
ENDMDL
MODEL 7
REMARK VINA RESULT:      -4.6      4.259      5.780
REMARK  6 active torsions:
REMARK  status: ('A' for Active; 'I' for Inactive)
REMARK    1  A    between atoms: C_3  and  C_2 
REMARK    2  A    between atoms: O_9  and  C_2 
REMARK    3  A    between atoms: C_4  and  N_8 
REMARK    4  A    between atoms: C_5  and  O_10 
REMARK    5  A    between atoms: C_6  and  O_11 
REMARK    6  A    between atoms: C_7  and  O_12 
ROOT
HETATM    1  C   UNK N   1      30.617  17.299   6.697  0.00  0.00     0.008 C 
HETATM    2  C   UNK N   1      30.893  17.518   7.994  0.00  0.00    -0.027 C 
HETATM    3  C   UNK N   1      29.240  17.446   6.097  0.00  0.00     0.129 C 
HETATM    4  C   UNK N   1      29.797  17.901   8.986  0.00  0.00     0.180 C 
HETATM    5  C   UNK N   1      28.282  18.234   7.009  0.00  0.00     0.175 C 
HETATM    6  C   UNK N   1      28.377  17.678   8.426  0.00  0.00     0.182 C 
ENDROOT
BRANCH   2   7
HETATM    7  C   UNK N   1      32.339  17.448   8.407  0.00  0.00     0.201 C 
BRANCH   7   8
HETATM    8  O   UNK N   1      32.588  16.404   9.299  0.00  0.00    -0.397 OA
HETATM    9  H   UNK N   1      32.223  15.517   9.157  0.00  0.00     0.209 HD
ENDBRANCH   7   8
ENDBRANCH   2   7
BRANCH   4  10
HETATM   10  O   UNK N   1      29.919  17.157  10.161  0.00  0.00    -0.388 OA
HETATM   11  H   UNK N   1      30.626  17.164  10.826  0.00  0.00     0.210 HD
ENDBRANCH   4  10
BRANCH   3  12
HETATM   12  N   UNK N   1      29.345  18.116   4.812  0.00  0.00    -0.421 N 
HETATM   13  H   UNK N   1      29.703  17.737   3.936  0.00  0.00     0.150 HD
HETATM   14  H   UNK N   1      29.020  19.083   4.783  0.00  0.00     0.150 HD
ENDBRANCH   3  12
BRANCH   6  15
HETATM   15  O   UNK N   1      27.442  18.297   9.262  0.00  0.00    -0.390 OA
HETATM   16  H   UNK N   1      26.930  17.826   9.938  0.00  0.00     0.210 HD
ENDBRANCH   6  15
BRANCH   5  17
HETATM   17  O   UNK N   1      26.976  18.114   6.524  0.00  0.00    -0.391 OA
HETATM   18  H   UNK N   1      26.610  18.746   5.887  0.00  0.00     0.210 HD
ENDBRANCH   5  17
TORSDOF 6
ENDMDL
MODEL 8
REMARK VINA RESULT:      -4.5     11.643     12.950
REMARK  6 active torsions:
REMARK  status: ('A' for Active; 'I' for Inactive)
REMARK    1  A    between atoms: C_3  and  C_2 
REMARK    2  A    between atoms: O_9  and  C_2 
REMARK    3  A    between atoms: C_4  and  N_8 
REMARK    4  A    between atoms: C_5  and  O_10 
REMARK    5  A    between atoms: C_6  and  O_11 
REMARK    6  A    between atoms: C_7  and  O_12 
ROOT
HETATM    1  C   UNK N   1      43.034  20.438   2.935  0.00  0.00     0.008 C 
HETATM    2  C   UNK N   1      44.336  20.671   3.173  0.00  0.00    -0.027 C 
HETATM    3  C   UNK N   1      42.027  21.525   2.649  0.00  0.00     0.129 C 
HETATM    4  C   UNK N   1      44.894  22.091   3.212  0.00  0.00     0.180 C 
HETATM    5  C   UNK N   1      42.693  22.861   2.276  0.00  0.00     0.175 C 
HETATM    6  C   UNK N   1      43.792  23.167   3.289  0.00  0.00     0.182 C 
ENDROOT
BRANCH   2   7
HETATM    7  C   UNK N   1      45.231  19.468   3.317  0.00  0.00     0.201 C 
BRANCH   7   8
HETATM    8  O   UNK N   1      46.583  19.814   3.364  0.00  0.00    -0.397 OA
HETATM    9  H   UNK N   1      46.929  20.576   2.875  0.00  0.00     0.209 HD
ENDBRANCH   7   8
ENDBRANCH   2   7
BRANCH   4  10
HETATM   10  O   UNK N   1      45.735  22.256   4.316  0.00  0.00    -0.388 OA
HETATM   11  H   UNK N   1      45.867  23.033   4.881  0.00  0.00     0.210 HD
ENDBRANCH   4  10
BRANCH   3  12
HETATM   12  N   UNK N   1      41.156  21.101   1.566  0.00  0.00    -0.421 N 
HETATM   13  H   UNK N   1      41.340  20.391   0.857  0.00  0.00     0.150 HD
HETATM   14  H   UNK N   1      40.251  21.569   1.509  0.00  0.00     0.150 HD
ENDBRANCH   3  12
BRANCH   6  15
HETATM   15  O   UNK N   1      44.349  24.426   3.047  0.00  0.00    -0.390 OA
HETATM   16  H   UNK N   1      45.301  24.611   3.088  0.00  0.00     0.210 HD
ENDBRANCH   6  15
BRANCH   5  17
HETATM   17  O   UNK N   1      41.731  23.876   2.278  0.00  0.00    -0.391 OA
HETATM   18  H   UNK N   1      41.905  24.742   1.877  0.00  0.00     0.210 HD
ENDBRANCH   5  17
TORSDOF 6
ENDMDL
MODEL 9
REMARK VINA RESULT:      -4.4     12.569     14.290
REMARK  6 active torsions:
REMARK  status: ('A' for Active; 'I' for Inactive)
REMARK    1  A    between atoms: C_3  and  C_2 
REMARK    2  A    between atoms: O_9  and  C_2 
REMARK    3  A    between atoms: C_4  and  N_8 
REMARK    4  A    between atoms: C_5  and  O_10 
REMARK    5  A    between atoms: C_6  and  O_11 
REMARK    6  A    between atoms: C_7  and  O_12 
ROOT
HETATM    1  C   UNK N   1      20.556  16.769   4.295  0.00  0.00     0.008 C 
HETATM    2  C   UNK N   1      21.060  17.983   4.574  0.00  0.00    -0.027 C 
HETATM    3  C   UNK N   1      19.872  16.424   2.995  0.00  0.00     0.129 C 
HETATM    4  C   UNK N   1      20.938  19.140   3.585  0.00  0.00     0.180 C 
HETATM    5  C   UNK N   1      20.150  17.460   1.891  0.00  0.00     0.175 C 
HETATM    6  C   UNK N   1      19.926  18.859   2.455  0.00  0.00     0.182 C 
ENDROOT
BRANCH   2   7
HETATM    7  C   UNK N   1      21.821  18.128   5.865  0.00  0.00     0.201 C 
BRANCH   7   8
HETATM    8  O   UNK N   1      21.089  18.808   6.840  0.00  0.00    -0.397 OA
HETATM    9  H   UNK N   1      21.191  19.763   6.977  0.00  0.00     0.209 HD
ENDBRANCH   7   8
ENDBRANCH   2   7
BRANCH   4  10
HETATM   10  O   UNK N   1      20.537  20.305   4.243  0.00  0.00    -0.388 OA
HETATM   11  H   UNK N   1      19.688  20.774   4.207  0.00  0.00     0.210 HD
ENDBRANCH   4  10
BRANCH   3  12
HETATM   12  N   UNK N   1      20.316  15.113   2.551  0.00  0.00    -0.421 N 
HETATM   13  H   UNK N   1      19.855  14.215   2.694  0.00  0.00     0.150 HD
HETATM   14  H   UNK N   1      21.195  15.089   2.033  0.00  0.00     0.150 HD
ENDBRANCH   3  12
BRANCH   6  15
HETATM   15  O   UNK N   1      20.065  19.823   1.453  0.00  0.00    -0.390 OA
HETATM   16  H   UNK N   1      19.533  19.836   0.641  0.00  0.00     0.210 HD
ENDBRANCH   6  15
BRANCH   5  17
HETATM   17  O   UNK N   1      19.295  17.227   0.809  0.00  0.00    -0.391 OA
HETATM   18  H   UNK N   1      18.496  16.685   0.900  0.00  0.00     0.210 HD
ENDBRANCH   5  17
TORSDOF 6
ENDMDL
