MODEL 1
REMARK VINA RESULT:      -5.2      0.000      0.000
REMARK  3 active torsions:
REMARK  status: ('A' for Active; 'I' for Inactive)
REMARK       I    between atoms: N_1  and  C_2 
REMARK       I    between atoms: C_2  and  N_5 
REMARK    1  A    between atoms: N_5  and  C_6 
REMARK    2  A    between atoms: C_9  and  C_12 
REMARK    3  A    between atoms: C_12  and  O_13 
ROOT
HETATM    1  C   UNK N   1      31.437  17.009   6.264  0.00  0.00     0.049 A 
HETATM    2  C   UNK N   1      31.267  17.292   7.624  0.00  0.00     0.031 A 
HETATM    3  C   UNK N   1      32.352  17.703   8.403  0.00  0.00     0.020 A 
HETATM    4  C   UNK N   1      33.623  17.835   7.831  0.00  0.00     0.037 A 
HETATM    5  C   UNK N   1      33.799  17.550   6.470  0.00  0.00     0.020 A 
HETATM    6  C   UNK N   1      32.713  17.140   5.692  0.00  0.00     0.031 A 
ENDROOT
BRANCH   1   7
HETATM    7  N   UNK N   1      30.304  16.594   5.505  0.00  0.00    -0.193 N 
HETATM    8  C   UNK N   1      29.889  15.251   5.268  0.00  0.00     0.669 C 
HETATM    9  N   UNK N   1      28.729  15.014   4.499  0.00  0.00    -0.235 N 
HETATM   10  N   UNK N   1      30.557  14.254   5.720  0.00  0.00    -0.235 N 
HETATM   11  H   UNK N   1      28.224  15.771   4.124  0.00  0.00     0.174 HD
HETATM   12  H   UNK N   1      28.424  14.091   4.338  0.00  0.00     0.174 HD
HETATM   13  H   UNK N   1      30.266  13.335   5.522  0.00  0.00     0.174 HD
ATOM     14  HN  UNK N   1      31.391  14.415   6.285  1.00  0.00     0.174 HD
HETATM   15  H   UNK N   1      29.754  17.306   5.105  0.00  0.00     0.184 HD
ENDBRANCH   1   7
BRANCH   4  16
HETATM   16  C   UNK N   1      34.766  18.272   8.658  0.00  0.00     0.176 C 
HETATM   17  O   UNK N   1      35.327  19.331   8.425  0.00  0.00    -0.646 OA
BRANCH  16  18
HETATM   18  O   UNK N   1      35.197  17.503   9.678  0.00  0.00    -0.773 OA
HETATM   19  H   UNK N   1      35.576  16.664   9.505  0.00  0.00     0.167 HD
ENDBRANCH  16  18
ENDBRANCH   4  16
TORSDOF 3
ENDMDL
MODEL 2
REMARK VINA RESULT:      -5.2     16.186     17.208
REMARK  3 active torsions:
REMARK  status: ('A' for Active; 'I' for Inactive)
REMARK       I    between atoms: N_1  and  C_2 
REMARK       I    between atoms: C_2  and  N_5 
REMARK    1  A    between atoms: N_5  and  C_6 
REMARK    2  A    between atoms: C_9  and  C_12 
REMARK    3  A    between atoms: C_12  and  O_13 
ROOT
HETATM    1  C   UNK N   1      25.693  27.423  -4.313  0.00  0.00     0.049 A 
HETATM    2  C   UNK N   1      26.419  26.435  -3.640  0.00  0.00     0.031 A 
HETATM    3  C   UNK N   1      26.553  25.157  -4.189  0.00  0.00     0.020 A 
HETATM    4  C   UNK N   1      25.960  24.850  -5.419  0.00  0.00     0.037 A 
HETATM    5  C   UNK N   1      25.229  25.836  -6.096  0.00  0.00     0.020 A 
HETATM    6  C   UNK N   1      25.096  27.114  -5.546  0.00  0.00     0.031 A 
ENDROOT
BRANCH   1   7
HETATM    7  N   UNK N   1      25.581  28.714  -3.720  0.00  0.00    -0.193 N 
HETATM    8  C   UNK N   1      26.402  29.847  -3.994  0.00  0.00     0.669 C 
HETATM    9  N   UNK N   1      26.147  31.062  -3.323  0.00  0.00    -0.235 N 
HETATM   10  N   UNK N   1      27.380  29.780  -4.821  0.00  0.00    -0.235 N 
HETATM   11  H   UNK N   1      25.416  31.117  -2.665  0.00  0.00     0.174 HD
HETATM   12  H   UNK N   1      26.699  31.856  -3.512  0.00  0.00     0.174 HD
HETATM   13  H   UNK N   1      27.949  30.568  -4.976  0.00  0.00     0.174 HD
ATOM     14  HN  UNK N   1      27.566  28.910  -5.319  1.00  0.00     0.174 HD
HETATM   15  H   UNK N   1      24.865  28.835  -3.054  0.00  0.00     0.184 HD
ENDBRANCH   1   7
BRANCH   4  16
HETATM   16  C   UNK N   1      26.108  23.499  -5.996  0.00  0.00     0.176 C 
HETATM   17  O   UNK N   1      25.122  22.831  -6.266  0.00  0.00    -0.646 OA
BRANCH  16  18
HETATM   18  O   UNK N   1      27.335  22.992  -6.230  0.00  0.00    -0.773 OA
HETATM   19  H   UNK N   1      28.061  23.568  -6.369  0.00  0.00     0.167 HD
ENDBRANCH  16  18
ENDBRANCH   4  16
TORSDOF 3
ENDMDL
MODEL 3
REMARK VINA RESULT:      -5.2      1.132      2.042
REMARK  3 active torsions:
REMARK  status: ('A' for Active; 'I' for Inactive)
REMARK       I    between atoms: N_1  and  C_2 
REMARK       I    between atoms: C_2  and  N_5 
REMARK    1  A    between atoms: N_5  and  C_6 
REMARK    2  A    between atoms: C_9  and  C_12 
REMARK    3  A    between atoms: C_12  and  O_13 
ROOT
HETATM    1  C   UNK N   1      31.519  16.794   5.773  0.00  0.00     0.049 A 
HETATM    2  C   UNK N   1      32.807  17.138   5.349  0.00  0.00     0.031 A 
HETATM    3  C   UNK N   1      33.766  17.566   6.272  0.00  0.00     0.020 A 
HETATM    4  C   UNK N   1      33.447  17.657   7.632  0.00  0.00     0.037 A 
HETATM    5  C   UNK N   1      32.157  17.317   8.061  0.00  0.00     0.020 A 
HETATM    6  C   UNK N   1      31.200  16.888   7.137  0.00  0.00     0.031 A 
ENDROOT
BRANCH   1   7
HETATM    7  N   UNK N   1      30.572  16.361   4.801  0.00  0.00    -0.193 N 
HETATM    8  C   UNK N   1      29.555  17.157   4.195  0.00  0.00     0.669 C 
HETATM    9  N   UNK N   1      28.702  16.572   3.235  0.00  0.00    -0.235 N 
HETATM   10  N   UNK N   1      29.384  18.386   4.521  0.00  0.00    -0.235 N 
HETATM   11  H   UNK N   1      28.806  15.621   2.998  0.00  0.00     0.174 HD
HETATM   12  H   UNK N   1      28.003  17.113   2.801  0.00  0.00     0.174 HD
HETATM   13  H   UNK N   1      28.659  18.908   4.108  0.00  0.00     0.174 HD
ATOM     14  HN  UNK N   1      30.001  18.821   5.206  1.00  0.00     0.174 HD
HETATM   15  H   UNK N   1      30.625  15.419   4.518  0.00  0.00     0.184 HD
ENDBRANCH   1   7
BRANCH   4  16
HETATM   16  C   UNK N   1      34.464  18.107   8.603  0.00  0.00     0.176 C 
HETATM   17  O   UNK N   1      35.166  19.076   8.358  0.00  0.00    -0.646 OA
BRANCH  16  18
HETATM   18  O   UNK N   1      34.625  17.450   9.769  0.00  0.00    -0.773 OA
HETATM   19  H   UNK N   1      35.486  17.290  10.102  0.00  0.00     0.167 HD
ENDBRANCH  16  18
ENDBRANCH   4  16
TORSDOF 3
ENDMDL
MODEL 4
REMARK VINA RESULT:      -5.2     15.549     16.409
REMARK  3 active torsions:
REMARK  status: ('A' for Active; 'I' for Inactive)
REMARK       I    between atoms: N_1  and  C_2 
REMARK       I    between atoms: C_2  and  N_5 
REMARK    1  A    between atoms: N_5  and  C_6 
REMARK    2  A    between atoms: C_9  and  C_12 
REMARK    3  A    between atoms: C_12  and  O_13 
ROOT
HETATM    1  C   UNK N   1      25.542  25.136  -5.265  0.00  0.00     0.049 A 
HETATM    2  C   UNK N   1      26.291  25.148  -4.083  0.00  0.00     0.031 A 
HETATM    3  C   UNK N   1      26.580  26.355  -3.440  0.00  0.00     0.020 A 
HETATM    4  C   UNK N   1      26.125  27.567  -3.974  0.00  0.00     0.037 A 
HETATM    5  C   UNK N   1      25.377  27.559  -5.160  0.00  0.00     0.020 A 
HETATM    6  C   UNK N   1      25.088  26.352  -5.800  0.00  0.00     0.031 A 
ENDROOT
BRANCH   1   7
HETATM    7  N   UNK N   1      25.268  23.883  -5.887  0.00  0.00    -0.193 N 
HETATM    8  C   UNK N   1      26.075  23.227  -6.863  0.00  0.00     0.669 C 
HETATM    9  N   UNK N   1      25.661  21.977  -7.372  0.00  0.00    -0.235 N 
HETATM   10  N   UNK N   1      27.156  23.758  -7.303  0.00  0.00    -0.235 N 
HETATM   11  H   UNK N   1      24.818  21.574  -7.061  0.00  0.00     0.174 HD
HETATM   12  H   UNK N   1      26.215  21.508  -8.037  0.00  0.00     0.174 HD
HETATM   13  H   UNK N   1      27.684  23.298  -7.995  0.00  0.00     0.174 HD
ATOM     14  HN  UNK N   1      27.470  24.655  -6.934  1.00  0.00     0.174 HD
HETATM   15  H   UNK N   1      24.439  23.426  -5.617  0.00  0.00     0.184 HD
ENDBRANCH   1   7
BRANCH   4  16
HETATM   16  C   UNK N   1      26.431  28.839  -3.290  0.00  0.00     0.176 C 
HETATM   17  O   UNK N   1      27.130  28.849  -2.288  0.00  0.00    -0.646 OA
BRANCH  16  18
HETATM   18  O   UNK N   1      25.940  30.000  -3.767  0.00  0.00    -0.773 OA
HETATM   19  H   UNK N   1      25.310  29.993  -4.460  0.00  0.00     0.167 HD
ENDBRANCH  16  18
ENDBRANCH   4  16
TORSDOF 3
ENDMDL
MODEL 5
REMARK VINA RESULT:      -5.1     10.985     12.205
REMARK  3 active torsions:
REMARK  status: ('A' for Active; 'I' for Inactive)
REMARK       I    between atoms: N_1  and  C_2 
REMARK       I    between atoms: C_2  and  N_5 
REMARK    1  A    between atoms: N_5  and  C_6 
REMARK    2  A    between atoms: C_9  and  C_12 
REMARK    3  A    between atoms: C_12  and  O_13 
ROOT
HETATM    1  C   UNK N   1      35.531  12.752  15.991  0.00  0.00     0.049 A 
HETATM    2  C   UNK N   1      35.115  13.495  17.101  0.00  0.00     0.031 A 
HETATM    3  C   UNK N   1      35.085  12.914  18.372  0.00  0.00     0.020 A 
HETATM    4  C   UNK N   1      35.469  11.579  18.548  0.00  0.00     0.037 A 
HETATM    5  C   UNK N   1      35.883  10.829  17.438  0.00  0.00     0.020 A 
HETATM    6  C   UNK N   1      35.914  11.413  16.169  0.00  0.00     0.031 A 
ENDROOT
BRANCH   1   7
HETATM    7  N   UNK N   1      35.549  13.383  14.713  0.00  0.00    -0.193 N 
HETATM    8  C   UNK N   1      36.467  14.381  14.274  0.00  0.00     0.669 C 
HETATM    9  N   UNK N   1      36.351  14.895  12.964  0.00  0.00    -0.235 N 
HETATM   10  N   UNK N   1      37.382  14.837  15.049  0.00  0.00    -0.235 N 
HETATM   11  H   UNK N   1      35.635  14.572  12.370  0.00  0.00     0.174 HD
HETATM   12  H   UNK N   1      36.986  15.576  12.644  0.00  0.00     0.174 HD
HETATM   13  H   UNK N   1      37.988  15.544  14.732  0.00  0.00     0.174 HD
ATOM     14  HN  UNK N   1      37.480  14.464  15.993  1.00  0.00     0.174 HD
HETATM   15  H   UNK N   1      34.858  13.100  14.070  0.00  0.00     0.184 HD
ENDBRANCH   1   7
BRANCH   4  16
HETATM   16  C   UNK N   1      35.438  10.971  19.893  0.00  0.00     0.176 C 
HETATM   17  O   UNK N   1      34.645  10.077  20.149  0.00  0.00    -0.646 OA
BRANCH  16  18
HETATM   18  O   UNK N   1      36.286  11.398  20.850  0.00  0.00    -0.773 OA
HETATM   19  H   UNK N   1      36.464  10.857  21.593  0.00  0.00     0.167 HD
ENDBRANCH  16  18
ENDBRANCH   4  16
TORSDOF 3
ENDMDL
MODEL 6
REMARK VINA RESULT:      -5.1      3.314      4.200
REMARK  3 active torsions:
REMARK  status: ('A' for Active; 'I' for Inactive)
REMARK       I    between atoms: N_1  and  C_2 
REMARK       I    between atoms: C_2  and  N_5 
REMARK    1  A    between atoms: N_5  and  C_6 
REMARK    2  A    between atoms: C_9  and  C_12 
REMARK    3  A    between atoms: C_12  and  O_13 
ROOT
HETATM    1  C   UNK N   1      31.253  16.655   6.115  0.00  0.00     0.049 A 
HETATM    2  C   UNK N   1      29.855  16.653   6.079  0.00  0.00     0.031 A 
HETATM    3  C   UNK N   1      29.118  17.185   7.140  0.00  0.00     0.020 A 
HETATM    4  C   UNK N   1      29.771  17.726   8.254  0.00  0.00     0.037 A 
HETATM    5  C   UNK N   1      31.172  17.728   8.296  0.00  0.00     0.020 A 
HETATM    6  C   UNK N   1      31.908  17.197   7.233  0.00  0.00     0.031 A 
ENDROOT
BRANCH   1   7
HETATM    7  N   UNK N   1      31.967  16.104   5.011  0.00  0.00    -0.193 N 
HETATM    8  C   UNK N   1      32.226  16.745   3.764  0.00  0.00     0.669 C 
HETATM    9  N   UNK N   1      32.964  16.058   2.776  0.00  0.00    -0.235 N 
HETATM   10  N   UNK N   1      31.784  17.923   3.512  0.00  0.00    -0.235 N 
HETATM   11  H   UNK N   1      33.284  15.143   2.949  0.00  0.00     0.174 HD
HETATM   12  H   UNK N   1      33.159  16.493   1.915  0.00  0.00     0.174 HD
HETATM   13  H   UNK N   1      31.953  18.335   2.635  0.00  0.00     0.174 HD
ATOM     14  HN  UNK N   1      31.259  18.432   4.223  1.00  0.00     0.174 HD
HETATM   15  H   UNK N   1      32.317  15.190   5.122  0.00  0.00     0.184 HD
ENDBRANCH   1   7
BRANCH   4  16
HETATM   16  C   UNK N   1      28.988  18.289   9.371  0.00  0.00     0.176 C 
HETATM   17  O   UNK N   1      29.549  18.850  10.299  0.00  0.00    -0.646 OA
BRANCH  16  18
HETATM   18  O   UNK N   1      27.643  18.189   9.374  0.00  0.00    -0.773 OA
HETATM   19  H   UNK N   1      27.178  18.145  10.186  0.00  0.00     0.167 HD
ENDBRANCH  16  18
ENDBRANCH   4  16
TORSDOF 3
ENDMDL
MODEL 7
REMARK VINA RESULT:      -5.1      4.178      5.288
REMARK  3 active torsions:
REMARK  status: ('A' for Active; 'I' for Inactive)
REMARK       I    between atoms: N_1  and  C_2 
REMARK       I    between atoms: C_2  and  N_5 
REMARK    1  A    between atoms: N_5  and  C_6 
REMARK    2  A    between atoms: C_9  and  C_12 
REMARK    3  A    between atoms: C_12  and  O_13 
ROOT
HETATM    1  C   UNK N   1      33.112  17.481   7.782  0.00  0.00     0.049 A 
HETATM    2  C   UNK N   1      31.751  17.173   7.693  0.00  0.00     0.031 A 
HETATM    3  C   UNK N   1      31.134  17.042   6.446  0.00  0.00     0.020 A 
HETATM    4  C   UNK N   1      31.872  17.219   5.270  0.00  0.00     0.037 A 
HETATM    5  C   UNK N   1      33.236  17.530   5.354  0.00  0.00     0.020 A 
HETATM    6  C   UNK N   1      33.852  17.660   6.602  0.00  0.00     0.031 A 
ENDROOT
BRANCH   1   7
HETATM    7  N   UNK N   1      33.703  17.604   9.073  0.00  0.00    -0.193 N 
HETATM    8  C   UNK N   1      34.634  16.703   9.669  0.00  0.00     0.669 C 
HETATM    9  N   UNK N   1      35.134  16.982  10.959  0.00  0.00    -0.235 N 
HETATM   10  N   UNK N   1      35.009  15.634   9.067  0.00  0.00    -0.235 N 
HETATM   11  H   UNK N   1      34.831  17.786  11.441  0.00  0.00     0.174 HD
HETATM   12  H   UNK N   1      35.786  16.374  11.377  0.00  0.00     0.174 HD
HETATM   13  H   UNK N   1      35.633  15.014   9.509  0.00  0.00     0.174 HD
ATOM     14  HN  UNK N   1      34.662  15.429   8.131  1.00  0.00     0.174 HD
HETATM   15  H   UNK N   1      33.443  18.391   9.606  0.00  0.00     0.184 HD
ENDBRANCH   1   7
BRANCH   4  16
HETATM   16  C   UNK N   1      31.216  17.076   3.955  0.00  0.00     0.176 C 
HETATM   17  O   UNK N   1      30.057  16.698   3.880  0.00  0.00    -0.646 OA
BRANCH  16  18
HETATM   18  O   UNK N   1      31.894  17.364   2.825  0.00  0.00    -0.773 OA
HETATM   19  H   UNK N   1      32.755  17.021   2.695  0.00  0.00     0.167 HD
ENDBRANCH  16  18
ENDBRANCH   4  16
TORSDOF 3
ENDMDL
MODEL 8
REMARK VINA RESULT:      -5.0      6.794      8.158
REMARK  3 active torsions:
REMARK  status: ('A' for Active; 'I' for Inactive)
REMARK       I    between atoms: N_1  and  C_2 
REMARK       I    between atoms: C_2  and  N_5 
REMARK    1  A    between atoms: N_5  and  C_6 
REMARK    2  A    between atoms: C_9  and  C_12 
REMARK    3  A    between atoms: C_12  and  O_13 
ROOT
HETATM    1  C   UNK N   1      27.585  18.742   5.652  0.00  0.00     0.049 A 
HETATM    2  C   UNK N   1      27.741  20.039   5.151  0.00  0.00     0.031 A 
HETATM    3  C   UNK N   1      26.796  20.579   4.275  0.00  0.00     0.020 A 
HETATM    4  C   UNK N   1      25.681  19.826   3.885  0.00  0.00     0.037 A 
HETATM    5  C   UNK N   1      25.522  18.524   4.382  0.00  0.00     0.020 A 
HETATM    6  C   UNK N   1      26.468  17.987   5.259  0.00  0.00     0.031 A 
ENDROOT
BRANCH   1   7
HETATM    7  N   UNK N   1      28.571  18.230   6.544  0.00  0.00    -0.193 N 
HETATM    8  C   UNK N   1      28.545  18.303   7.968  0.00  0.00     0.669 C 
HETATM    9  N   UNK N   1      29.603  17.730   8.707  0.00  0.00    -0.235 N 
HETATM   10  N   UNK N   1      27.594  18.897   8.590  0.00  0.00    -0.235 N 
HETATM   11  H   UNK N   1      30.352  17.297   8.238  0.00  0.00     0.174 HD
HETATM   12  H   UNK N   1      29.592  17.764   9.691  0.00  0.00     0.174 HD
HETATM   13  H   UNK N   1      27.610  18.958   9.572  0.00  0.00     0.174 HD
ATOM     14  HN  UNK N   1      26.820  19.305   8.066  1.00  0.00     0.174 HD
HETATM   15  H   UNK N   1      29.347  17.780   6.137  0.00  0.00     0.184 HD
ENDBRANCH   1   7
BRANCH   4  16
HETATM   16  C   UNK N   1      24.684  20.401   2.962  0.00  0.00     0.176 C 
HETATM   17  O   UNK N   1      25.024  20.814   1.863  0.00  0.00    -0.646 OA
BRANCH  16  18
HETATM   18  O   UNK N   1      23.388  20.476   3.324  0.00  0.00    -0.773 OA
HETATM   19  H   UNK N   1      22.948  21.303   3.325  0.00  0.00     0.167 HD
ENDBRANCH  16  18
ENDBRANCH   4  16
TORSDOF 3
ENDMDL
MODEL 9
REMARK VINA RESULT:      -5.0      8.711     10.196
REMARK  3 active torsions:
REMARK  status: ('A' for Active; 'I' for Inactive)
REMARK       I    between atoms: N_1  and  C_2 
REMARK       I    between atoms: C_2  and  N_5 
REMARK    1  A    between atoms: N_5  and  C_6 
REMARK    2  A    between atoms: C_9  and  C_12 
REMARK    3  A    between atoms: C_12  and  O_13 
ROOT
HETATM    1  C   UNK N   1      25.453  19.123   4.184  0.00  0.00     0.049 A 
HETATM    2  C   UNK N   1      24.215  18.540   4.476  0.00  0.00     0.031 A 
HETATM    3  C   UNK N   1      23.045  19.029   3.888  0.00  0.00     0.020 A 
HETATM    4  C   UNK N   1      23.098  20.111   3.001  0.00  0.00     0.037 A 
HETATM    5  C   UNK N   1      24.336  20.701   2.708  0.00  0.00     0.020 A 
HETATM    6  C   UNK N   1      25.505  20.210   3.296  0.00  0.00     0.031 A 
ENDROOT
BRANCH   1   7
HETATM    7  N   UNK N   1      26.621  18.593   4.804  0.00  0.00    -0.193 N 
HETATM    8  C   UNK N   1      27.221  19.052   6.014  0.00  0.00     0.669 C 
HETATM    9  N   UNK N   1      28.377  18.403   6.499  0.00  0.00    -0.235 N 
HETATM   10  N   UNK N   1      26.745  20.053   6.659  0.00  0.00    -0.235 N 
HETATM   11  H   UNK N   1      28.767  17.651   5.997  0.00  0.00     0.174 HD
HETATM   12  H   UNK N   1      28.794  18.702   7.339  0.00  0.00     0.174 HD
HETATM   13  H   UNK N   1      27.191  20.368   7.478  0.00  0.00     0.174 HD
ATOM     14  HN  UNK N   1      25.904  20.522   6.323  1.00  0.00     0.174 HD
HETATM   15  H   UNK N   1      27.058  17.835   4.352  0.00  0.00     0.184 HD
ENDBRANCH   1   7
BRANCH   4  16
HETATM   16  C   UNK N   1      21.860  20.622   2.380  0.00  0.00     0.176 C 
HETATM   17  O   UNK N   1      21.688  20.525   1.175  0.00  0.00    -0.646 OA
BRANCH  16  18
HETATM   18  O   UNK N   1      20.909  21.199   3.141  0.00  0.00    -0.773 OA
HETATM   19  H   UNK N   1      20.516  22.004   2.869  0.00  0.00     0.167 HD
ENDBRANCH  16  18
ENDBRANCH   4  16
TORSDOF 3
ENDMDL
