REMARK  3 active torsions:
REMARK  status: ('A' for Active; 'I' for Inactive)
REMARK    1  A    between atoms: O_1  and  C_2 
REMARK    2  A    between atoms: C_2  and  C_4 
REMARK    3  A    between atoms: C_9  and  O_10 
ROOT
HETATM    1  C   UNK N   1       1.297   0.507  -0.000  0.00  0.00     0.114 A 
HETATM    2  C   UNK N   1       0.690  -0.734   0.000  0.00  0.00     0.190 A 
HETATM    3  O   UNK N   1      -0.616  -0.527   0.000  0.00  0.00    -0.247 OA
HETATM    4  N   UNK N   1      -0.900   0.746   0.000  0.00  0.00    -0.239 N 
ATOM      5  HN  UNK N   1      -1.833   1.160   0.000  1.00  0.00     0.197 HD
HETATM    6  C   UNK N   1       0.265   1.408   0.000  0.00  0.00     0.179 A 
ENDROOT
BRANCH   1   7
HETATM    7  C   UNK N   1       2.739   0.801  -0.000  0.00  0.00     0.182 C 
HETATM    8  O   UNK N   1       3.552  -0.110  -0.000  0.00  0.00    -0.646 OA
BRANCH   7   9
HETATM    9  O   UNK N   1       3.169   2.077  -0.000  0.00  0.00    -0.772 OA
HETATM   10  H   UNK N   1       4.087   2.263  -0.000  0.00  0.00     0.167 HD
ENDBRANCH   7   9
ENDBRANCH   1   7
BRANCH   6  11
HETATM   11  O   UNK N   1       0.373   2.747   0.000  0.00  0.00    -0.344 OA
HETATM   12  H   UNK N   1       1.220   3.148   0.000  0.00  0.00     0.219 HD
ENDBRANCH   6  11
TORSDOF 3
