REMARK  24 active torsions:
REMARK  status: ('A' for Active; 'I' for Inactive)
REMARK    1  A    between atoms: C_15  and  C_16 
REMARK    2  A    between atoms: C_16  and  C_17 
REMARK    3  A    between atoms: C_17  and  C_18 
REMARK    4  A    between atoms: C_18  and  O_20 
REMARK    5  A    between atoms: C_21  and  C_62 
REMARK    6  A    between atoms: C_25  and  C_22 
REMARK    7  A    between atoms: C_22  and  C_23 
REMARK    8  A    between atoms: C_23  and  O_60 
REMARK    9  A    between atoms: C_51  and  C_29 
REMARK   10  A    between atoms: C_29  and  C_30 
REMARK   11  A    between atoms: C_30  and  C_31 
REMARK   12  A    between atoms: C_31  and  O_33 
REMARK   13  A    between atoms: C_34  and  C_49 
REMARK   14  A    between atoms: C_44  and  C_35 
REMARK   15  A    between atoms: C_35  and  C_36 
REMARK   16  A    between atoms: C_36  and  O_59 
REMARK   17  A    between atoms: C_43  and  C_38 
REMARK   18  A    between atoms: C_38  and  C_39 
REMARK   19  A    between atoms: C_39  and  C_40 
REMARK   20  A    between atoms: C_40  and  O_42 
REMARK   21  A    between atoms: C_47  and  C_49 
REMARK   22  A    between atoms: C_62  and  C_63 
REMARK   23  A    between atoms: C_63  and  C_65 
REMARK   24  A    between atoms: C_65  and  O_66 
ROOT
HETATM    1  O   UNK N   1      -6.405  -0.285   0.624  0.00  0.00    -0.650 OA
HETATM    2  C   UNK N   1      -5.714  -1.044  -0.033  0.00  0.00     0.139 C 
HETATM    3  O   UNK N   1      -5.827  -1.066  -1.375  0.00  0.00    -0.776 OA
HETATM    4  H   UNK N   1      -5.879  -1.006  -2.309  0.00  0.00     0.167 HD
ENDROOT
BRANCH   2   5
HETATM    5  C   UNK N   1      -4.789  -1.981   0.657  0.00  0.00     0.117 C 
BRANCH   5   6
HETATM    6  C   UNK N   1      -3.342  -1.883   0.170  0.00  0.00     0.035 C 
HETATM    7  C   UNK N   1      -2.429  -0.711   0.634  0.00  0.00     0.115 C 
HETATM    8  N   UNK N   1      -1.128  -1.336   0.617  0.00  0.00    -0.385 N 
HETATM    9  C   UNK N   1      -2.344   0.572  -0.274  0.00  0.00     0.055 C 
HETATM   10  C   UNK N   1      -1.144  -2.600   0.475  0.00  0.00     0.022 C 
ATOM     11  HN  UNK N   1      -0.262  -0.805   0.712  1.00  0.00     0.160 HD
HETATM   12  C   UNK N   1       0.109  -3.420   0.465  0.00  0.00    -0.016 C 
HETATM   13  C   UNK N   1      -2.517  -3.175   0.389  0.00  0.00     0.005 C 
HETATM   14  C   UNK N   1       1.353  -2.878   0.500  0.00  0.00     0.022 C 
HETATM   15  C   UNK N   1      -0.029  -4.909   0.377  0.00  0.00     0.052 C 
HETATM   16  C   UNK N   1       2.629  -3.656   0.375  0.00  0.00     0.050 C 
HETATM   17  N   UNK N   1       1.621  -1.500   0.542  0.00  0.00    -0.361 N 
HETATM   18  C   UNK N   1       3.710  -2.566   0.561  0.00  0.00     0.004 C 
HETATM   19  C   UNK N   1       2.885  -1.303   0.559  0.00  0.00     0.020 C 
HETATM   20  C   UNK N   1       4.682  -2.607  -0.604  0.00  0.00     0.022 C 
HETATM   21  C   UNK N   1       4.468  -2.662   1.881  0.00  0.00     0.022 C 
HETATM   22  C   UNK N   1       3.523   0.029   0.573  0.00  0.00     0.051 C 
HETATM   23  C   UNK N   1       2.955   1.210   0.310  0.00  0.00     0.016 C 
HETATM   24  N   UNK N   1       1.612   1.406  -0.021  0.00  0.00    -0.361 N 
HETATM   25  C   UNK N   1       3.716   2.493   0.286  0.00  0.00     0.051 C 
HETATM   26  C   UNK N   1       1.426   2.614  -0.389  0.00  0.00     0.027 C 
ATOM     27  HN  UNK N   1       0.887   0.690   0.026  1.00  0.00     0.165 HD
HETATM   28  C   UNK N   1       2.696   3.448  -0.398  0.00  0.00     0.017 C 
HETATM   29  C   UNK N   1       0.083   3.186  -0.723  0.00  0.00    -0.016 C 
HETATM   30  C   UNK N   1       3.035   3.779  -1.854  0.00  0.00     0.023 C 
HETATM   31  C   UNK N   1      -1.068   2.519  -0.465  0.00  0.00     0.018 C 
HETATM   32  C   UNK N   1       0.045   4.548  -1.327  0.00  0.00     0.052 C 
HETATM   33  N   UNK N   1      -1.070   1.194  -0.040  0.00  0.00    -0.381 N 
HETATM   34  C   UNK N   1      -2.470   3.032  -0.643  0.00  0.00     0.047 C 
HETATM   35  H   UNK N   1      -0.298   0.740   0.370  0.00  0.00     0.160 HD
HETATM   36  C   UNK N   1      -3.301   1.810  -0.061  0.00  0.00     0.001 C 
HETATM   37  C   UNK N   1      -3.515   1.968   1.456  0.00  0.00     0.019 C 
ATOM     38  HN  UNK N   1       0.913  -0.765   0.558  1.00  0.00     0.165 HD
HETATM   39  C   UNK N   1      -2.800  -3.868   1.724  0.00  0.00     0.022 C 
HETATM   40  C   UNK N   1      -2.355   0.146  -1.749  0.00  0.00     0.041 C 
BRANCH  16  41
HETATM   41  C   UNK N   1       2.816  -4.948   1.168  0.00  0.00     0.022 C 
BRANCH  41  42
HETATM   42  C   UNK N   1       3.667  -5.920   0.355  0.00  0.00     0.110 C 
BRANCH  42  43
HETATM   43  C   UNK N   1       2.965  -6.341  -0.904  0.00  0.00     0.139 C 
HETATM   44  O   UNK N   1       3.456  -6.083  -1.990  0.00  0.00    -0.650 OA
BRANCH  43  45
HETATM   45  O   UNK N   1       1.794  -7.003  -0.840  0.00  0.00    -0.776 OA
HETATM   46  H   UNK N   1       0.988  -6.527  -0.796  0.00  0.00     0.167 HD
ENDBRANCH  43  45
ENDBRANCH  42  43
ENDBRANCH  41  42
ENDBRANCH  16  41
BRANCH  28  47
HETATM   47  C   UNK N   1       2.508   4.720   0.438  0.00  0.00     0.126 C 
BRANCH  47  48
HETATM   48  C   UNK N   1       3.706   5.617   0.460  0.00  0.00     0.140 C 
HETATM   49  O   UNK N   1       3.647   6.717  -0.062  0.00  0.00    -0.650 OA
BRANCH  48  50
HETATM   50  O   UNK N   1       4.836   5.226   1.076  0.00  0.00    -0.776 OA
HETATM   51  H   UNK N   1       4.995   4.409   1.506  0.00  0.00     0.167 HD
ENDBRANCH  48  50
ENDBRANCH  47  48
ENDBRANCH  28  47
BRANCH  34  52
HETATM   52  C   UNK N   1      -2.740   4.314   0.188  0.00  0.00     0.022 C 
BRANCH  52  53
HETATM   53  C   UNK N   1      -2.466   5.621  -0.540  0.00  0.00     0.110 C 
BRANCH  53  54
HETATM   54  C   UNK N   1      -1.774   6.591   0.372  0.00  0.00     0.139 C 
HETATM   55  O   UNK N   1      -0.684   6.319   0.852  0.00  0.00    -0.650 OA
BRANCH  54  56
HETATM   56  O   UNK N   1      -2.342   7.780   0.643  0.00  0.00    -0.776 OA
HETATM   57  H   UNK N   1      -1.822   8.537   0.832  0.00  0.00     0.167 HD
ENDBRANCH  54  56
ENDBRANCH  53  54
ENDBRANCH  52  53
ENDBRANCH  34  52
BRANCH  36  58
HETATM   58  C   UNK N   1      -4.681   1.713  -0.729  0.00  0.00     0.122 C 
BRANCH  58  59
HETATM   59  C   UNK N   1      -5.454   3.006  -0.722  0.00  0.00     0.140 C 
HETATM   60  O   UNK N   1      -6.353   3.179   0.084  0.00  0.00    -0.650 OA
BRANCH  59  61
HETATM   61  O   UNK N   1      -5.166   3.969  -1.619  0.00  0.00    -0.776 OA
HETATM   62  H   UNK N   1      -4.486   4.131  -2.243  0.00  0.00     0.167 HD
ENDBRANCH  59  61
ENDBRANCH  58  59
ENDBRANCH  36  58
BRANCH  25  63
HETATM   63  C   UNK N   1       5.092   2.416  -0.370  0.00  0.00     0.022 C 
BRANCH  63  64
HETATM   64  C   UNK N   1       6.071   1.805   0.619  0.00  0.00     0.110 C 
BRANCH  64  65
HETATM   65  C   UNK N   1       7.071   0.959  -0.089  0.00  0.00     0.139 C 
HETATM   66  O   UNK N   1       7.844   1.460  -0.888  0.00  0.00    -0.650 OA
BRANCH  65  67
HETATM   67  O   UNK N   1       7.128  -0.361   0.166  0.00  0.00    -0.776 OA
HETATM   68  H   UNK N   1       6.352  -0.856   0.343  0.00  0.00     0.167 HD
ENDBRANCH  65  67
ENDBRANCH  64  65
ENDBRANCH  63  64
ENDBRANCH  25  63
BRANCH  13  69
HETATM   69  C   UNK N   1      -2.625  -4.101  -0.837  0.00  0.00     0.026 C 
BRANCH  69  70
HETATM   70  C   UNK N   1      -3.708  -5.173  -0.767  0.00  0.00     0.111 C 
BRANCH  70  71
HETATM   71  C   UNK N   1      -3.193  -6.394  -0.064  0.00  0.00     0.139 C 
HETATM   72  O   UNK N   1      -3.761  -6.805   0.934  0.00  0.00    -0.650 OA
BRANCH  71  73
HETATM   73  O   UNK N   1      -2.105  -7.041  -0.527  0.00  0.00    -0.776 OA
HETATM   74  H   UNK N   1      -2.116  -7.921  -0.849  0.00  0.00     0.167 HD
ENDBRANCH  71  73
ENDBRANCH  70  71
ENDBRANCH  69  70
ENDBRANCH  13  69
ENDBRANCH   5   6
ENDBRANCH   2   5
TORSDOF 24
