MODEL 1
REMARK VINA RESULT:      -4.3      0.000      0.000
REMARK  1 active torsions:
REMARK  status: ('A' for Active; 'I' for Inactive)
REMARK    1  A    between atoms: O_1  and  C_2 
ROOT
HETATM    1  C   UNK N   1      31.885  21.177  -3.334  0.00  0.00     0.100 A 
HETATM    2  C   UNK N   1      32.398  20.342  -4.342  0.00  0.00     0.046 A 
HETATM    3 Br   UNK N   1      34.053  19.413  -4.118  0.00  0.00    -0.048 Br
HETATM    4  C   UNK N   1      31.693  20.179  -5.537  0.00  0.00     0.041 A 
HETATM    5  C   UNK N   1      30.481  20.843  -5.733  0.00  0.00     0.013 A 
HETATM    6 Br   UNK N   1      29.525  20.617  -7.365  0.00  0.00    -0.051 Br
HETATM    7  C   UNK N   1      29.968  21.673  -4.736  0.00  0.00     0.041 A 
HETATM    8  C   UNK N   1      30.665  21.844  -3.536  0.00  0.00     0.046 A 
HETATM    9 Br   UNK N   1      29.922  22.990  -2.200  0.00  0.00    -0.048 Br
ENDROOT
BRANCH   1  10
HETATM   10  O   UNK N   1      32.560  21.338  -2.181  0.00  0.00    -0.358 OA
HETATM   11  H   UNK N   1      32.240  20.945  -1.392  0.00  0.00     0.217 HD
ENDBRANCH   1  10
TORSDOF 1
ENDMDL
MODEL 2
REMARK VINA RESULT:      -4.3      0.001      3.010
REMARK  1 active torsions:
REMARK  status: ('A' for Active; 'I' for Inactive)
REMARK    1  A    between atoms: O_1  and  C_2 
ROOT
HETATM    1  C   UNK N   1      31.885  21.177  -3.334  0.00  0.00     0.100 A 
HETATM    2  C   UNK N   1      30.664  21.844  -3.536  0.00  0.00     0.046 A 
HETATM    3 Br   UNK N   1      29.923  22.991  -2.200  0.00  0.00    -0.048 Br
HETATM    4  C   UNK N   1      29.968  21.673  -4.736  0.00  0.00     0.041 A 
HETATM    5  C   UNK N   1      30.481  20.842  -5.734  0.00  0.00     0.013 A 
HETATM    6 Br   UNK N   1      29.527  20.614  -7.365  0.00  0.00    -0.051 Br
HETATM    7  C   UNK N   1      31.693  20.179  -5.537  0.00  0.00     0.041 A 
HETATM    8  C   UNK N   1      32.398  20.342  -4.341  0.00  0.00     0.046 A 
HETATM    9 Br   UNK N   1      34.053  19.412  -4.119  0.00  0.00    -0.048 Br
ENDROOT
BRANCH   1  10
HETATM   10  O   UNK N   1      32.560  21.338  -2.181  0.00  0.00    -0.358 OA
HETATM   11  H   UNK N   1      32.795  22.198  -1.892  0.00  0.00     0.217 HD
ENDBRANCH   1  10
TORSDOF 1
ENDMDL
MODEL 3
REMARK VINA RESULT:      -4.2     10.713     11.649
REMARK  1 active torsions:
REMARK  status: ('A' for Active; 'I' for Inactive)
REMARK    1  A    between atoms: O_1  and  C_2 
ROOT
HETATM    1  C   UNK N   1      31.652  17.588   7.725  0.00  0.00     0.100 A 
HETATM    2  C   UNK N   1      32.947  17.646   7.182  0.00  0.00     0.046 A 
HETATM    3 Br   UNK N   1      34.473  17.997   8.277  0.00  0.00    -0.048 Br
HETATM    4  C   UNK N   1      33.137  17.444   5.812  0.00  0.00     0.041 A 
HETATM    5  C   UNK N   1      32.043  17.186   4.982  0.00  0.00     0.013 A 
HETATM    6 Br   UNK N   1      32.309  16.912   3.117  0.00  0.00    -0.051 Br
HETATM    7  C   UNK N   1      30.757  17.127   5.518  0.00  0.00     0.041 A 
HETATM    8  C   UNK N   1      30.555  17.327   6.887  0.00  0.00     0.046 A 
HETATM    9 Br   UNK N   1      28.774  17.238   7.574  0.00  0.00    -0.048 Br
ENDROOT
BRANCH   1  10
HETATM   10  O   UNK N   1      31.464  17.782   9.045  0.00  0.00    -0.358 OA
HETATM   11  H   UNK N   1      31.641  18.620   9.425  0.00  0.00     0.217 HD
ENDBRANCH   1  10
TORSDOF 1
ENDMDL
MODEL 4
REMARK VINA RESULT:      -4.2     10.713     11.873
REMARK  1 active torsions:
REMARK  status: ('A' for Active; 'I' for Inactive)
REMARK    1  A    between atoms: O_1  and  C_2 
ROOT
HETATM    1  C   UNK N   1      31.658  17.592   7.726  0.00  0.00     0.100 A 
HETATM    2  C   UNK N   1      30.561  17.330   6.888  0.00  0.00     0.046 A 
HETATM    3 Br   UNK N   1      28.780  17.243   7.575  0.00  0.00    -0.048 Br
HETATM    4  C   UNK N   1      30.762  17.128   5.519  0.00  0.00     0.041 A 
HETATM    5  C   UNK N   1      32.051  17.186   4.984  0.00  0.00     0.013 A 
HETATM    6 Br   UNK N   1      32.318  16.909   3.119  0.00  0.00    -0.051 Br
HETATM    7  C   UNK N   1      33.142  17.445   5.813  0.00  0.00     0.041 A 
HETATM    8  C   UNK N   1      32.953  17.649   7.182  0.00  0.00     0.046 A 
HETATM    9 Br   UNK N   1      34.479  18.001   8.277  0.00  0.00    -0.048 Br
ENDROOT
BRANCH   1  10
HETATM   10  O   UNK N   1      31.469  17.788   9.045  0.00  0.00    -0.358 OA
HETATM   11  H   UNK N   1      32.021  17.354   9.666  0.00  0.00     0.217 HD
ENDBRANCH   1  10
TORSDOF 1
ENDMDL
MODEL 5
REMARK VINA RESULT:      -4.2      8.703      9.366
REMARK  1 active torsions:
REMARK  status: ('A' for Active; 'I' for Inactive)
REMARK    1  A    between atoms: O_1  and  C_2 
ROOT
HETATM    1  C   UNK N   1      26.269  28.713  -4.441  0.00  0.00     0.100 A 
HETATM    2  C   UNK N   1      26.334  27.824  -5.528  0.00  0.00     0.046 A 
HETATM    3 Br   UNK N   1      25.182  26.304  -5.644  0.00  0.00    -0.048 Br
HETATM    4  C   UNK N   1      27.258  28.045  -6.554  0.00  0.00     0.041 A 
HETATM    5  C   UNK N   1      28.115  29.147  -6.501  0.00  0.00     0.013 A 
HETATM    6 Br   UNK N   1      29.371  29.442  -7.901  0.00  0.00    -0.051 Br
HETATM    7  C   UNK N   1      28.053  30.031  -5.423  0.00  0.00     0.041 A 
HETATM    8  C   UNK N   1      27.133  29.820  -4.392  0.00  0.00     0.046 A 
HETATM    9 Br   UNK N   1      27.085  31.058  -2.938  0.00  0.00    -0.048 Br
ENDROOT
BRANCH   1  10
HETATM   10  O   UNK N   1      25.381  28.504  -3.451  0.00  0.00    -0.358 OA
HETATM   11  H   UNK N   1      25.603  28.725  -2.568  0.00  0.00     0.217 HD
ENDBRANCH   1  10
TORSDOF 1
ENDMDL
MODEL 6
REMARK VINA RESULT:      -4.0     10.626     11.700
REMARK  1 active torsions:
REMARK  status: ('A' for Active; 'I' for Inactive)
REMARK    1  A    between atoms: O_1  and  C_2 
ROOT
HETATM    1  C   UNK N   1      27.953  19.047   7.237  0.00  0.00     0.100 A 
HETATM    2  C   UNK N   1      28.892  18.095   7.672  0.00  0.00     0.046 A 
HETATM    3 Br   UNK N   1      29.127  17.704   9.527  0.00  0.00    -0.048 Br
HETATM    4  C   UNK N   1      29.676  17.413   6.737  0.00  0.00     0.041 A 
HETATM    5  C   UNK N   1      29.529  17.675   5.374  0.00  0.00     0.013 A 
HETATM    6 Br   UNK N   1      30.600  16.741   4.106  0.00  0.00    -0.051 Br
HETATM    7  C   UNK N   1      28.598  18.619   4.938  0.00  0.00     0.041 A 
HETATM    8  C   UNK N   1      27.809  19.307   5.864  0.00  0.00     0.046 A 
HETATM    9 Br   UNK N   1      26.549  20.591   5.219  0.00  0.00    -0.048 Br
ENDROOT
BRANCH   1  10
HETATM   10  O   UNK N   1      27.195  19.707   8.133  0.00  0.00    -0.358 OA
HETATM   11  H   UNK N   1      27.269  19.507   9.046  0.00  0.00     0.217 HD
ENDBRANCH   1  10
TORSDOF 1
ENDMDL
MODEL 7
REMARK VINA RESULT:      -4.0     10.800     11.964
REMARK  1 active torsions:
REMARK  status: ('A' for Active; 'I' for Inactive)
REMARK    1  A    between atoms: O_1  and  C_2 
ROOT
HETATM    1  C   UNK N   1      33.107  17.298   6.274  0.00  0.00     0.100 A 
HETATM    2  C   UNK N   1      32.042  17.250   5.358  0.00  0.00     0.046 A 
HETATM    3 Br   UNK N   1      32.351  17.161   3.474  0.00  0.00    -0.048 Br
HETATM    4  C   UNK N   1      30.723  17.267   5.822  0.00  0.00     0.041 A 
HETATM    5  C   UNK N   1      30.462  17.332   7.192  0.00  0.00     0.013 A 
HETATM    6 Br   UNK N   1      28.664  17.355   7.816  0.00  0.00    -0.051 Br
HETATM    7  C   UNK N   1      31.517  17.380   8.104  0.00  0.00     0.041 A 
HETATM    8  C   UNK N   1      32.839  17.363   7.652  0.00  0.00     0.046 A 
HETATM    9 Br   UNK N   1      34.249  17.431   8.940  0.00  0.00    -0.048 Br
ENDROOT
BRANCH   1  10
HETATM   10  O   UNK N   1      34.379  17.282   5.833  0.00  0.00    -0.358 OA
HETATM   11  H   UNK N   1      34.825  18.088   5.661  0.00  0.00     0.217 HD
ENDBRANCH   1  10
TORSDOF 1
ENDMDL
MODEL 8
REMARK VINA RESULT:      -4.0     10.594     11.816
REMARK  1 active torsions:
REMARK  status: ('A' for Active; 'I' for Inactive)
REMARK    1  A    between atoms: O_1  and  C_2 
ROOT
HETATM    1  C   UNK N   1      27.922  19.091   7.198  0.00  0.00     0.100 A 
HETATM    2  C   UNK N   1      27.778  19.337   5.821  0.00  0.00     0.046 A 
HETATM    3 Br   UNK N   1      26.522  20.619   5.164  0.00  0.00    -0.048 Br
HETATM    4  C   UNK N   1      28.564  18.636   4.903  0.00  0.00     0.041 A 
HETATM    5  C   UNK N   1      29.492  17.692   5.349  0.00  0.00     0.013 A 
HETATM    6 Br   UNK N   1      30.559  16.740   4.092  0.00  0.00    -0.051 Br
HETATM    7  C   UNK N   1      29.637  17.445   6.714  0.00  0.00     0.041 A 
HETATM    8  C   UNK N   1      28.856  18.140   7.642  0.00  0.00     0.046 A 
HETATM    9 Br   UNK N   1      29.091  17.767   9.501  0.00  0.00    -0.048 Br
ENDROOT
BRANCH   1  10
HETATM   10  O   UNK N   1      27.167  19.763   8.087  0.00  0.00    -0.358 OA
HETATM   11  H   UNK N   1      26.783  19.311   8.812  0.00  0.00     0.217 HD
ENDBRANCH   1  10
TORSDOF 1
ENDMDL
MODEL 9
REMARK VINA RESULT:      -4.0     10.980     12.190
REMARK  1 active torsions:
REMARK  status: ('A' for Active; 'I' for Inactive)
REMARK    1  A    between atoms: O_1  and  C_2 
ROOT
HETATM    1  C   UNK N   1      33.264  17.134   6.441  0.00  0.00     0.100 A 
HETATM    2  C   UNK N   1      32.994  17.194   7.819  0.00  0.00     0.046 A 
HETATM    3 Br   UNK N   1      34.400  17.142   9.112  0.00  0.00    -0.048 Br
HETATM    4  C   UNK N   1      31.674  17.293   8.267  0.00  0.00     0.041 A 
HETATM    5  C   UNK N   1      30.622  17.333   7.348  0.00  0.00     0.013 A 
HETATM    6 Br   UNK N   1      28.826  17.469   7.965  0.00  0.00    -0.051 Br
HETATM    7  C   UNK N   1      30.886  17.275   5.979  0.00  0.00     0.041 A 
HETATM    8  C   UNK N   1      32.203  17.175   5.520  0.00  0.00     0.046 A 
HETATM    9 Br   UNK N   1      32.514  17.098   3.637  0.00  0.00    -0.048 Br
ENDROOT
BRANCH   1  10
HETATM   10  O   UNK N   1      34.534  17.039   6.004  0.00  0.00    -0.358 OA
HETATM   11  H   UNK N   1      34.877  16.207   5.742  0.00  0.00     0.217 HD
ENDBRANCH   1  10
TORSDOF 1
ENDMDL
