REMARK  4 active torsions:
REMARK  status: ('A' for Active; 'I' for Inactive)
REMARK    1  A    between atoms: C_2  and  C_3 
REMARK    2  A    between atoms: C_3  and  C_4 
REMARK    3  A    between atoms: C_4  and  C_5 
REMARK    4  A    between atoms: C_5  and  N_6 
ROOT
HETATM    1  C   UNK N   1       2.222   1.376   0.000  0.00  0.00     0.019 C 
ENDROOT
BRANCH   1   2
HETATM    2  C   UNK N   1       0.990   0.502   0.000  0.00  0.00     0.001 C 
BRANCH   2   3
HETATM    3  C   UNK N   1      -0.244   1.374   0.000  0.00  0.00    -0.004 C 
HETATM    4  C   UNK N   1      -1.470   0.489  -0.000  0.00  0.00     0.005 C 
ENDBRANCH   2   3
ENDBRANCH   1   2
BRANCH   1   5
HETATM    5  C   UNK N   1       3.447   0.493   0.000  0.00  0.00     0.111 C 
BRANCH   5   6
HETATM    6  N   UNK N   1       4.637   1.324  -0.000  0.00  0.00    -0.430 N 
HETATM    7  H   UNK N   1       5.561   0.892  -0.000  0.00  0.00     0.149 HD
HETATM    8  H   UNK N   1       4.549   2.341  -0.000  0.00  0.00     0.149 HD
ENDBRANCH   5   6
ENDBRANCH   1   5
TORSDOF 4
