MODEL 1
REMARK VINA RESULT:      -4.9      0.000      0.000
REMARK  3 active torsions:
REMARK  status: ('A' for Active; 'I' for Inactive)
REMARK    1  A    between atoms: C_5  and  O_10 
REMARK    2  A    between atoms: C_6  and  O_11 
REMARK    3  A    between atoms: C_8  and  O_12 
ROOT
HETATM    1  C   UNK N   1      32.507  17.126   6.136  0.00  0.00     0.033 C 
HETATM    2  C   UNK N   1      33.829  17.761   6.532  0.00  0.00     0.036 C 
HETATM    3  C   UNK N   1      32.231  15.937   7.048  0.00  0.00     0.273 C 
HETATM    4  C   UNK N   1      32.272  15.023   9.176  0.00  0.00     0.307 C 
HETATM    5  C   UNK N   1      33.722  18.236   7.972  0.00  0.00     0.154 C 
HETATM    6  C   UNK N   1      33.658  14.928   9.818  0.00  0.00     0.177 C 
HETATM    7  C   UNK N   1      33.373  17.059   8.910  0.00  0.00     0.282 C 
HETATM    8  C   UNK N   1      34.442  15.988   9.072  0.00  0.00     0.184 C 
HETATM    9  N   UNK N   1      32.175  16.313   8.472  0.00  0.00     0.100 N 
ENDROOT
BRANCH   5  10
HETATM   10  O   UNK N   1      34.914  18.845   8.363  0.00  0.00    -0.393 OA
HETATM   11  H   UNK N   1      35.765  18.589   7.977  0.00  0.00     0.210 HD
ENDBRANCH   5  10
BRANCH   8  12
HETATM   12  O   UNK N   1      35.568  16.424   9.774  0.00  0.00    -0.391 OA
HETATM   13  H   UNK N   1      35.795  17.367   9.799  0.00  0.00     0.210 HD
ENDBRANCH   8  12
BRANCH   6  14
HETATM   14  O   UNK N   1      33.542  15.259  11.172  0.00  0.00    -0.391 OA
HETATM   15  H   UNK N   1      33.105  15.005  12.000  0.00  0.00     0.210 HD
ENDBRANCH   6  14
TORSDOF 3
ENDMDL
MODEL 2
REMARK VINA RESULT:      -4.8     12.999     13.920
REMARK  3 active torsions:
REMARK  status: ('A' for Active; 'I' for Inactive)
REMARK    1  A    between atoms: C_5  and  O_10 
REMARK    2  A    between atoms: C_6  and  O_11 
REMARK    3  A    between atoms: C_8  and  O_12 
ROOT
HETATM    1  C   UNK N   1      30.122  24.346  -4.764  0.00  0.00     0.033 C 
HETATM    2  C   UNK N   1      30.576  24.296  -3.315  0.00  0.00     0.036 C 
HETATM    3  C   UNK N   1      30.746  23.180  -5.522  0.00  0.00     0.273 C 
HETATM    4  C   UNK N   1      31.347  20.943  -5.569  0.00  0.00     0.307 C 
HETATM    5  C   UNK N   1      30.107  22.983  -2.710  0.00  0.00     0.154 C 
HETATM    6  C   UNK N   1      32.358  20.518  -4.502  0.00  0.00     0.177 C 
HETATM    7  C   UNK N   1      30.670  21.784  -3.504  0.00  0.00     0.282 C 
HETATM    8  C   UNK N   1      32.175  21.576  -3.432  0.00  0.00     0.184 C 
HETATM    9  N   UNK N   1      30.383  21.871  -4.952  0.00  0.00     0.100 N 
ENDROOT
BRANCH   5  10
HETATM   10  O   UNK N   1      30.488  22.912  -1.370  0.00  0.00    -0.393 OA
HETATM   11  H   UNK N   1      29.897  22.545  -0.693  0.00  0.00     0.210 HD
ENDBRANCH   5  10
BRANCH   8  12
HETATM   12  O   UNK N   1      32.623  21.159  -2.177  0.00  0.00    -0.391 OA
HETATM   13  H   UNK N   1      32.839  20.226  -2.019  0.00  0.00     0.210 HD
ENDBRANCH   8  12
BRANCH   6  14
HETATM   14  O   UNK N   1      31.989  19.258  -4.020  0.00  0.00    -0.391 OA
HETATM   15  H   UNK N   1      31.688  18.786  -3.227  0.00  0.00     0.210 HD
ENDBRANCH   6  14
TORSDOF 3
ENDMDL
MODEL 3
REMARK VINA RESULT:      -4.7     12.945     14.247
REMARK  3 active torsions:
REMARK  status: ('A' for Active; 'I' for Inactive)
REMARK    1  A    between atoms: C_5  and  O_10 
REMARK    2  A    between atoms: C_6  and  O_11 
REMARK    3  A    between atoms: C_8  and  O_12 
ROOT
HETATM    1  C   UNK N   1      31.545  20.642  -5.567  0.00  0.00     0.033 C 
HETATM    2  C   UNK N   1      31.673  20.306  -4.091  0.00  0.00     0.036 C 
HETATM    3  C   UNK N   1      30.834  21.982  -5.714  0.00  0.00     0.273 C 
HETATM    4  C   UNK N   1      30.539  24.159  -4.977  0.00  0.00     0.307 C 
HETATM    5  C   UNK N   1      32.492  21.396  -3.419  0.00  0.00     0.154 C 
HETATM    6  C   UNK N   1      30.059  24.298  -3.531  0.00  0.00     0.177 C 
HETATM    7  C   UNK N   1      31.827  22.777  -3.613  0.00  0.00     0.282 C 
HETATM    8  C   UNK N   1      30.494  22.986  -2.909  0.00  0.00     0.184 C 
HETATM    9  N   UNK N   1      31.541  23.080  -5.031  0.00  0.00     0.100 N 
ENDROOT
BRANCH   5  10
HETATM   10  O   UNK N   1      32.649  21.108  -2.064  0.00  0.00    -0.393 OA
HETATM   11  H   UNK N   1      31.993  20.584  -1.577  0.00  0.00     0.210 HD
ENDBRANCH   5  10
BRANCH   8  12
HETATM   12  O   UNK N   1      30.601  23.056  -1.519  0.00  0.00    -0.391 OA
HETATM   13  H   UNK N   1      30.551  23.913  -1.066  0.00  0.00     0.210 HD
ENDBRANCH   8  12
BRANCH   6  14
HETATM   14  O   UNK N   1      30.733  25.373  -2.942  0.00  0.00    -0.391 OA
HETATM   15  H   UNK N   1      30.993  25.755  -2.089  0.00  0.00     0.210 HD
ENDBRANCH   6  14
TORSDOF 3
ENDMDL
MODEL 4
REMARK VINA RESULT:      -4.7      1.968      2.487
REMARK  3 active torsions:
REMARK  status: ('A' for Active; 'I' for Inactive)
REMARK    1  A    between atoms: C_5  and  O_10 
REMARK    2  A    between atoms: C_6  and  O_11 
REMARK    3  A    between atoms: C_8  and  O_12 
ROOT
HETATM    1  C   UNK N   1      33.728  17.538   6.786  0.00  0.00     0.033 C 
HETATM    2  C   UNK N   1      33.029  17.945   8.073  0.00  0.00     0.036 C 
HETATM    3  C   UNK N   1      34.158  16.080   6.892  0.00  0.00     0.273 C 
HETATM    4  C   UNK N   1      33.673  13.916   7.560  0.00  0.00     0.307 C 
HETATM    5  C   UNK N   1      31.805  17.062   8.255  0.00  0.00     0.154 C 
HETATM    6  C   UNK N   1      33.430  13.736   9.060  0.00  0.00     0.177 C 
HETATM    7  C   UNK N   1      32.209  15.572   8.295  0.00  0.00     0.282 C 
HETATM    8  C   UNK N   1      33.026  15.129   9.500  0.00  0.00     0.184 C 
HETATM    9  N   UNK N   1      33.026  15.168   7.132  0.00  0.00     0.100 N 
ENDROOT
BRANCH   5  10
HETATM   10  O   UNK N   1      31.126  17.424   9.418  0.00  0.00    -0.393 OA
HETATM   11  H   UNK N   1      30.913  16.772  10.104  0.00  0.00     0.210 HD
ENDBRANCH   5  10
BRANCH   8  12
HETATM   12  O   UNK N   1      32.306  15.131  10.696  0.00  0.00    -0.391 OA
HETATM   13  H   UNK N   1      32.767  15.228  11.545  0.00  0.00     0.210 HD
ENDBRANCH   8  12
BRANCH   6  14
HETATM   14  O   UNK N   1      32.372  12.837   9.232  0.00  0.00    -0.391 OA
HETATM   15  H   UNK N   1      32.157  11.931   9.507  0.00  0.00     0.210 HD
ENDBRANCH   6  14
TORSDOF 3
ENDMDL
MODEL 5
REMARK VINA RESULT:      -4.5     12.049     13.112
REMARK  3 active torsions:
REMARK  status: ('A' for Active; 'I' for Inactive)
REMARK    1  A    between atoms: C_5  and  O_10 
REMARK    2  A    between atoms: C_6  and  O_11 
REMARK    3  A    between atoms: C_8  and  O_12 
ROOT
HETATM    1  C   UNK N   1      42.956  18.683   2.566  0.00  0.00     0.033 C 
HETATM    2  C   UNK N   1      44.393  18.702   3.060  0.00  0.00     0.036 C 
HETATM    3  C   UNK N   1      42.319  20.042   2.831  0.00  0.00     0.273 C 
HETATM    4  C   UNK N   1      42.508  22.351   2.833  0.00  0.00     0.307 C 
HETATM    5  C   UNK N   1      45.148  19.779   2.298  0.00  0.00     0.154 C 
HETATM    6  C   UNK N   1      43.596  22.914   3.750  0.00  0.00     0.177 C 
HETATM    7  C   UNK N   1      44.480  21.158   2.494  0.00  0.00     0.282 C 
HETATM    8  C   UNK N   1      44.545  21.743   3.897  0.00  0.00     0.184 C 
HETATM    9  N   UNK N   1      43.038  21.146   2.171  0.00  0.00     0.100 N 
ENDROOT
BRANCH   5  10
HETATM   10  O   UNK N   1      46.480  19.810   2.711  0.00  0.00    -0.393 OA
HETATM   11  H   UNK N   1      47.046  19.024   2.659  0.00  0.00     0.210 HD
ENDBRANCH   5  10
BRANCH   8  12
HETATM   12  O   UNK N   1      45.830  22.133   4.282  0.00  0.00    -0.391 OA
HETATM   13  H   UNK N   1      46.533  21.471   4.382  0.00  0.00     0.210 HD
ENDBRANCH   8  12
BRANCH   6  14
HETATM   14  O   UNK N   1      44.221  23.979   3.092  0.00  0.00    -0.391 OA
HETATM   15  H   UNK N   1      44.601  24.862   3.227  0.00  0.00     0.210 HD
ENDBRANCH   6  14
TORSDOF 3
ENDMDL
MODEL 6
REMARK VINA RESULT:      -4.5     17.438     18.603
REMARK  3 active torsions:
REMARK  status: ('A' for Active; 'I' for Inactive)
REMARK    1  A    between atoms: C_5  and  O_10 
REMARK    2  A    between atoms: C_6  and  O_11 
REMARK    3  A    between atoms: C_8  and  O_12 
ROOT
HETATM    1  C   UNK N   1      27.337  29.102  -5.613  0.00  0.00     0.033 C 
HETATM    2  C   UNK N   1      27.224  28.695  -4.154  0.00  0.00     0.036 C 
HETATM    3  C   UNK N   1      27.215  27.860  -6.488  0.00  0.00     0.273 C 
HETATM    4  C   UNK N   1      26.178  25.833  -6.916  0.00  0.00     0.307 C 
HETATM    5  C   UNK N   1      25.866  28.049  -3.939  0.00  0.00     0.154 C 
HETATM    6  C   UNK N   1      26.315  24.785  -5.810  0.00  0.00     0.177 C 
HETATM    7  C   UNK N   1      25.690  26.826  -4.866  0.00  0.00     0.282 C 
HETATM    8  C   UNK N   1      26.589  25.632  -4.583  0.00  0.00     0.184 C 
HETATM    9  N   UNK N   1      25.943  27.144  -6.287  0.00  0.00     0.100 N 
ENDROOT
BRANCH   5  10
HETATM   10  O   UNK N   1      25.719  27.681  -2.601  0.00  0.00    -0.393 OA
HETATM   11  H   UNK N   1      24.845  27.618  -2.185  0.00  0.00     0.210 HD
ENDBRANCH   5  10
BRANCH   8  12
HETATM   12  O   UNK N   1      26.284  24.972  -3.391  0.00  0.00    -0.391 OA
HETATM   13  H   UNK N   1      26.717  24.131  -3.172  0.00  0.00     0.210 HD
ENDBRANCH   8  12
BRANCH   6  14
HETATM   14  O   UNK N   1      25.095  24.113  -5.684  0.00  0.00    -0.391 OA
HETATM   15  H   UNK N   1      24.290  23.866  -6.166  0.00  0.00     0.210 HD
ENDBRANCH   6  14
TORSDOF 3
ENDMDL
MODEL 7
REMARK VINA RESULT:      -4.5      3.941      4.664
REMARK  3 active torsions:
REMARK  status: ('A' for Active; 'I' for Inactive)
REMARK    1  A    between atoms: C_5  and  O_10 
REMARK    2  A    between atoms: C_6  and  O_11 
REMARK    3  A    between atoms: C_8  and  O_12 
ROOT
HETATM    1  C   UNK N   1      28.337  18.082   5.599  0.00  0.00     0.033 C 
HETATM    2  C   UNK N   1      27.855  18.725   6.889  0.00  0.00     0.036 C 
HETATM    3  C   UNK N   1      29.780  17.626   5.778  0.00  0.00     0.273 C 
HETATM    4  C   UNK N   1      31.396  16.645   7.117  0.00  0.00     0.307 C 
HETATM    5  C   UNK N   1      27.932  17.691   7.999  0.00  0.00     0.154 C 
HETATM    6  C   UNK N   1      31.682  17.373   8.432  0.00  0.00     0.177 C 
HETATM    7  C   UNK N   1      29.375  17.161   8.154  0.00  0.00     0.282 C 
HETATM    8  C   UNK N   1      30.406  18.158   8.661  0.00  0.00     0.184 C 
HETATM    9  N   UNK N   1      29.942  16.665   6.883  0.00  0.00     0.100 N 
ENDROOT
BRANCH   5  10
HETATM   10  O   UNK N   1      27.475  18.242   9.197  0.00  0.00    -0.393 OA
HETATM   11  H   UNK N   1      27.912  19.007   9.602  0.00  0.00     0.210 HD
ENDBRANCH   5  10
BRANCH   8  12
HETATM   12  O   UNK N   1      30.225  18.520   9.998  0.00  0.00    -0.391 OA
HETATM   13  H   UNK N   1      30.264  19.453  10.262  0.00  0.00     0.210 HD
ENDBRANCH   8  12
BRANCH   6  14
HETATM   14  O   UNK N   1      31.861  16.417   9.437  0.00  0.00    -0.391 OA
HETATM   15  H   UNK N   1      32.090  16.306  10.374  0.00  0.00     0.210 HD
ENDBRANCH   6  14
TORSDOF 3
ENDMDL
MODEL 8
REMARK VINA RESULT:      -4.5      5.676      7.618
REMARK  3 active torsions:
REMARK  status: ('A' for Active; 'I' for Inactive)
REMARK    1  A    between atoms: C_5  and  O_10 
REMARK    2  A    between atoms: C_6  and  O_11 
REMARK    3  A    between atoms: C_8  and  O_12 
ROOT
HETATM    1  C   UNK N   1      34.899  12.178  16.302  0.00  0.00     0.033 C 
HETATM    2  C   UNK N   1      35.668  13.489  16.331  0.00  0.00     0.036 C 
HETATM    3  C   UNK N   1      34.441  11.900  14.875  0.00  0.00     0.273 C 
HETATM    4  C   UNK N   1      34.908  11.917  12.606  0.00  0.00     0.307 C 
HETATM    5  C   UNK N   1      36.878  13.355  15.421  0.00  0.00     0.154 C 
HETATM    6  C   UNK N   1      35.219  13.295  12.016  0.00  0.00     0.177 C 
HETATM    7  C   UNK N   1      36.443  13.004  13.981  0.00  0.00     0.282 C 
HETATM    8  C   UNK N   1      35.675  14.080  13.229  0.00  0.00     0.184 C 
HETATM    9  N   UNK N   1      35.562  11.819  13.922  0.00  0.00     0.100 N 
ENDROOT
BRANCH   5  10
HETATM   10  O   UNK N   1      37.621  14.535  15.440  0.00  0.00    -0.393 OA
HETATM   11  H   UNK N   1      38.001  14.909  14.630  0.00  0.00     0.210 HD
ENDBRANCH   5  10
BRANCH   8  12
HETATM   12  O   UNK N   1      36.452  15.191  12.893  0.00  0.00    -0.391 OA
HETATM   13  H   UNK N   1      37.152  15.497  13.492  0.00  0.00     0.210 HD
ENDBRANCH   8  12
BRANCH   6  14
HETATM   14  O   UNK N   1      36.263  13.156  11.095  0.00  0.00    -0.391 OA
HETATM   15  H   UNK N   1      37.168  13.443  10.896  0.00  0.00     0.210 HD
ENDBRANCH   6  14
TORSDOF 3
ENDMDL
MODEL 9
REMARK VINA RESULT:      -4.5     10.549     12.232
REMARK  3 active torsions:
REMARK  status: ('A' for Active; 'I' for Inactive)
REMARK    1  A    between atoms: C_5  and  O_10 
REMARK    2  A    between atoms: C_6  and  O_11 
REMARK    3  A    between atoms: C_8  and  O_12 
ROOT
HETATM    1  C   UNK N   1      42.549  19.024   1.807  0.00  0.00     0.033 C 
HETATM    2  C   UNK N   1      41.295  19.843   1.552  0.00  0.00     0.036 C 
HETATM    3  C   UNK N   1      43.693  19.964   2.167  0.00  0.00     0.273 C 
HETATM    4  C   UNK N   1      44.431  21.838   3.312  0.00  0.00     0.307 C 
HETATM    5  C   UNK N   1      40.951  20.604   2.822  0.00  0.00     0.154 C 
HETATM    6  C   UNK N   1      43.753  23.152   2.916  0.00  0.00     0.177 C 
HETATM    7  C   UNK N   1      42.125  21.514   3.248  0.00  0.00     0.282 C 
HETATM    8  C   UNK N   1      42.439  22.682   2.326  0.00  0.00     0.184 C 
HETATM    9  N   UNK N   1      43.405  20.783   3.358  0.00  0.00     0.100 N 
ENDROOT
BRANCH   5  10
HETATM   10  O   UNK N   1      39.789  21.351   2.631  0.00  0.00    -0.393 OA
HETATM   11  H   UNK N   1      39.004  20.969   2.208  0.00  0.00     0.210 HD
ENDBRANCH   5  10
BRANCH   8  12
HETATM   12  O   UNK N   1      41.458  23.677   2.329  0.00  0.00    -0.391 OA
HETATM   13  H   UNK N   1      40.746  23.659   2.988  0.00  0.00     0.210 HD
ENDBRANCH   8  12
BRANCH   6  14
HETATM   14  O   UNK N   1      43.535  23.904   4.076  0.00  0.00    -0.391 OA
HETATM   15  H   UNK N   1      42.963  23.982   4.856  0.00  0.00     0.210 HD
ENDBRANCH   6  14
TORSDOF 3
ENDMDL
