REMARK  13 active torsions:
REMARK  status: ('A' for Active; 'I' for Inactive)
REMARK    1  A    between atoms: C_5  and  C_2 
REMARK    2  A    between atoms: O_28  and  C_2 
REMARK    3  A    between atoms: C_3  and  O_14 
REMARK    4  A    between atoms: C_10  and  C_4 
REMARK    5  A    between atoms: C_6  and  N_13 
REMARK    6  A    between atoms: C_7  and  O_15 
REMARK    7  A    between atoms: C_8  and  O_32 
REMARK    8  A    between atoms: C_9  and  O_31 
REMARK    9  A    between atoms: C_11  and  O_18 
REMARK   10  A    between atoms: C_12  and  O_31 
REMARK   11  A    between atoms: S_33  and  N_13 
REMARK   12  A    between atoms: S_34  and  O_28 
REMARK   13  A    between atoms: S_35  and  O_32 
ROOT
HETATM    1  C   UNK N   1      -1.296  -4.435  -1.173  0.00  0.00     0.181 C 
HETATM    2  C   UNK N   1      -3.638  -5.409   0.340  0.00  0.00     0.181 C 
HETATM    3  C   UNK N   1      -3.498  -3.947  -0.148  0.00  0.00     0.178 C 
HETATM    4  C   UNK N   1      -2.035  -3.456  -0.175  0.00  0.00     0.186 C 
HETATM    5  C   UNK N   1      -2.361  -6.210  -0.001  0.00  0.00     0.283 C 
HETATM    6  O   UNK N   1      -1.778  -5.781  -1.214  0.00  0.00    -0.349 OA
ENDROOT
BRANCH   4   7
HETATM    7  O   UNK N   1      -2.084  -2.120  -0.689  0.00  0.00    -0.347 OA
BRANCH   7   8
HETATM    8  C   UNK N   1      -1.005  -1.239  -0.397  0.00  0.00     0.300 C 
HETATM    9  C   UNK N   1      -1.119  -0.553   0.992  0.00  0.00     0.233 C 
HETATM   10  C   UNK N   1       0.126   0.315   1.270  0.00  0.00     0.179 C 
HETATM   11  C   UNK N   1       1.369  -0.478   0.997  0.00  0.00     0.051 C 
HETATM   12  C   UNK N   1       1.375  -1.483   0.099  0.00  0.00     0.147 C 
HETATM   13  O   UNK N   1       0.237  -1.835  -0.570  0.00  0.00    -0.311 OA
BRANCH   9  14
HETATM   14  O   UNK N   1      -2.328   0.141   1.272  0.00  0.00    -0.244 OA
BRANCH  14  15
HETATM   15  S   UNK N   1      -2.930   1.151  -0.013  0.00  0.00     0.252 S 
HETATM   16  O   UNK N   1      -1.845   1.841  -1.153  0.00  0.00    -0.572 OA
HETATM   17  O   UNK N   1      -4.043   0.408  -0.766  0.00  0.00    -0.572 OA
HETATM   18  O   UNK N   1      -3.682   2.321   0.641  0.00  0.00    -0.572 OA
ENDBRANCH  14  15
ENDBRANCH   9  14
BRANCH  10  19
HETATM   19  O   UNK N   1       0.160   1.451   0.463  0.00  0.00    -0.389 OA
HETATM   20  H   UNK N   1       0.857   1.825  -0.099  0.00  0.00     0.210 HD
ENDBRANCH  10  19
BRANCH  12  21
HETATM   21  C   UNK N   1       2.641  -2.195  -0.174  0.00  0.00     0.233 C 
HETATM   22  O   UNK N   1       2.692  -3.031  -1.065  0.00  0.00    -0.642 OA
HETATM   23  O   UNK N   1       3.750  -1.916   0.533  0.00  0.00    -0.642 OA
ENDBRANCH  12  21
ENDBRANCH   7   8
ENDBRANCH   4   7
BRANCH   1  24
HETATM   24  C   UNK N   1       0.229  -4.450  -1.084  0.00  0.00     0.227 C 
BRANCH  24  25
HETATM   25  O   UNK N   1       0.705  -5.105   0.056  0.00  0.00    -0.254 OA
BRANCH  25  26
HETATM   26  S   UNK N   1       1.754  -6.323  -0.560  0.00  0.00     0.251 S 
HETATM   27  O   UNK N   1       1.487  -6.634   1.108  0.00  0.00    -0.572 OA
HETATM   28  O   UNK N   1       3.162  -6.317   0.053  0.00  0.00    -0.572 OA
HETATM   29  O   UNK N   1       1.192  -7.752  -0.517  0.00  0.00    -0.572 OA
ENDBRANCH  25  26
ENDBRANCH  24  25
ENDBRANCH   1  24
BRANCH   3  30
HETATM   30  O   UNK N   1      -4.315  -3.108   0.614  0.00  0.00    -0.391 OA
HETATM   31  H   UNK N   1      -4.094  -2.325   1.143  0.00  0.00     0.210 HD
ENDBRANCH   3  30
BRANCH   2  32
HETATM   32  N   UNK N   1      -4.838  -5.985  -0.284  0.00  0.00    -0.289 N 
HETATM   33  H   UNK N   1      -5.390  -5.506  -0.995  0.00  0.00     0.175 HD
BRANCH  32  34
HETATM   34  S   UNK N   1      -5.225  -7.610   0.338  0.00  0.00     0.205 S 
HETATM   35  O   UNK N   1      -4.651  -8.888  -0.654  0.00  0.00    -0.578 OA
HETATM   36  O   UNK N   1      -6.750  -7.724   0.475  0.00  0.00    -0.578 OA
HETATM   37  O   UNK N   1      -4.692  -7.775   1.771  0.00  0.00    -0.578 OA
ENDBRANCH  32  34
ENDBRANCH   2  32
BRANCH   5  38
HETATM   38  O   UNK N   1      -1.445  -6.111   1.049  0.00  0.00    -0.369 OA
HETATM   39  H   UNK N   1      -1.067  -6.626   1.779  0.00  0.00     0.212 HD
ENDBRANCH   5  38
TORSDOF 13
