MODEL 1
REMARK VINA RESULT:      -6.6      0.000      0.000
REMARK  13 active torsions:
REMARK  status: ('A' for Active; 'I' for Inactive)
REMARK    1  A    between atoms: C_2  and  N_1 
REMARK    2  A    between atoms: C_10  and  C_13 
REMARK    3  A    between atoms: C_11  and  O_14 
REMARK    4  A    between atoms: C_13  and  O_16 
REMARK    5  A    between atoms: O_16  and  P_17 
REMARK    6  A    between atoms: P_17  and  O_18 
REMARK    7  A    between atoms: P_17  and  O_19 
REMARK    8  A    between atoms: O_18  and  P_21 
REMARK    9  A    between atoms: P_21  and  O_22 
REMARK   10  A    between atoms: P_21  and  O_23 
REMARK   11  A    between atoms: O_22  and  P_25 
REMARK   12  A    between atoms: P_25  and  O_26 
REMARK   13  A    between atoms: P_25  and  O_27 
ROOT
HETATM    1  C   UNK N   1      30.028  16.793   6.875  0.00  0.00     0.215 C 
ENDROOT
BRANCH   1   2
HETATM    2  C   UNK N   1      30.386  16.002   5.606  0.00  0.00     0.177 C 
HETATM    3  O   UNK N   1      31.430  15.100   5.856  0.00  0.00    -0.356 OA
HETATM    4  C   UNK N   1      32.623  15.766   5.499  0.00  0.00     0.235 C 
HETATM    5  C   UNK N   1      32.294  16.834   4.461  0.00  0.00     0.088 C 
HETATM    6  C   UNK N   1      30.799  16.841   4.412  0.00  0.00     0.153 C 
BRANCH   4   7
HETATM    7  N   UNK N   1      33.336  16.238   6.708  0.00  0.00    -0.282 N 
HETATM    8  C   UNK N   1      33.747  15.425   7.762  0.00  0.00     0.331 A 
HETATM    9  N   UNK N   1      34.397  15.971   8.835  0.00  0.00    -0.275 N 
HETATM   10  O   UNK N   1      33.532  14.226   7.758  0.00  0.00    -0.246 OA
HETATM   11  C   UNK N   1      34.656  17.312   8.895  0.00  0.00     0.250 A 
HETATM   12  H   UNK N   1      34.683  15.391   9.576  0.00  0.00     0.173 HD
HETATM   13  O   UNK N   1      35.238  17.777   9.856  0.00  0.00    -0.268 OA
HETATM   14  C   UNK N   1      34.251  18.139   7.857  0.00  0.00     0.092 A 
HETATM   15  C   UNK N   1      33.586  17.578   6.771  0.00  0.00     0.104 A 
ENDBRANCH   4   7
BRANCH   6  16
HETATM   16  O   UNK N   1      30.297  18.144   4.470  0.00  0.00    -0.393 OA
HETATM   17  H   UNK N   1      30.344  19.042   4.833  0.00  0.00     0.210 HD
ENDBRANCH   6  16
ENDBRANCH   1   2
BRANCH   1  18
HETATM   18  O   UNK N   1      28.659  17.108   6.922  0.00  0.00    -0.294 OA
BRANCH  18  19
HETATM   19  P   UNK N   1      28.468  18.484   7.985  0.00  0.00     0.401 P 
HETATM   20  O   UNK N   1      29.869  18.819   8.566  0.00  0.00    -0.631 OA
BRANCH  19  21
HETATM   21  O   UNK N   1      27.851  19.877   7.118  0.00  0.00    -0.195 OA
BRANCH  21  22
HETATM   22  P   UNK N   1      27.098  19.333   5.635  0.00  0.00     0.410 P 
HETATM   23  O   UNK N   1      28.281  20.156   5.059  0.00  0.00    -0.631 OA
BRANCH  22  24
HETATM   24  O   UNK N   1      26.351  20.539   4.620  0.00  0.00    -0.195 OA
BRANCH  24  25
HETATM   25  P   UNK N   1      25.212  19.757   3.547  0.00  0.00     0.399 P 
HETATM   26  O   UNK N   1      23.865  19.477   4.269  0.00  0.00    -0.631 OA
BRANCH  25  27
HETATM   27  O   UNK N   1      24.873  20.748   2.163  0.00  0.00    -0.307 OA
HETATM   28  H   UNK N   1      24.490  21.594   1.883  0.00  0.00     0.222 HD
ENDBRANCH  25  27
BRANCH  25  29
HETATM   29  O   UNK N   1      25.831  18.216   3.041  0.00  0.00    -0.307 OA
HETATM   30  H   UNK N   1      26.158  17.638   2.334  0.00  0.00     0.222 HD
ENDBRANCH  25  29
ENDBRANCH  24  25
ENDBRANCH  22  24
BRANCH  22  31
HETATM   31  O   UNK N   1      26.009  20.347   6.531  0.00  0.00    -0.307 OA
HETATM   32  H   UNK N   1      25.421  21.058   6.233  0.00  0.00     0.222 HD
ENDBRANCH  22  31
ENDBRANCH  21  22
ENDBRANCH  19  21
BRANCH  19  33
HETATM   33  O   UNK N   1      27.429  18.043   9.307  0.00  0.00    -0.307 OA
HETATM   34  H   UNK N   1      26.679  17.879   9.899  0.00  0.00     0.222 HD
ENDBRANCH  19  33
ENDBRANCH  18  19
ENDBRANCH   1  18
TORSDOF 13
ENDMDL
MODEL 2
REMARK VINA RESULT:      -6.6     11.242     14.124
REMARK  13 active torsions:
REMARK  status: ('A' for Active; 'I' for Inactive)
REMARK    1  A    between atoms: C_2  and  N_1 
REMARK    2  A    between atoms: C_10  and  C_13 
REMARK    3  A    between atoms: C_11  and  O_14 
REMARK    4  A    between atoms: C_13  and  O_16 
REMARK    5  A    between atoms: O_16  and  P_17 
REMARK    6  A    between atoms: P_17  and  O_18 
REMARK    7  A    between atoms: P_17  and  O_19 
REMARK    8  A    between atoms: O_18  and  P_21 
REMARK    9  A    between atoms: P_21  and  O_22 
REMARK   10  A    between atoms: P_21  and  O_23 
REMARK   11  A    between atoms: O_22  and  P_25 
REMARK   12  A    between atoms: P_25  and  O_26 
REMARK   13  A    between atoms: P_25  and  O_27 
ROOT
HETATM    1  C   UNK N   1      27.612  22.380  -6.890  0.00  0.00     0.215 C 
ENDROOT
BRANCH   1   2
HETATM    2  C   UNK N   1      27.340  23.818  -7.360  0.00  0.00     0.177 C 
HETATM    3  O   UNK N   1      28.420  24.658  -7.051  0.00  0.00    -0.356 OA
HETATM    4  C   UNK N   1      28.115  25.254  -5.807  0.00  0.00     0.235 C 
HETATM    5  C   UNK N   1      26.600  25.271  -5.632  0.00  0.00     0.088 C 
HETATM    6  C   UNK N   1      26.095  24.465  -6.787  0.00  0.00     0.153 C 
BRANCH   4   7
HETATM    7  N   UNK N   1      28.884  24.606  -4.720  0.00  0.00    -0.282 N 
HETATM    8  C   UNK N   1      30.271  24.496  -4.678  0.00  0.00     0.331 A 
HETATM    9  N   UNK N   1      30.878  23.871  -3.621  0.00  0.00    -0.275 N 
HETATM   10  O   UNK N   1      30.969  24.940  -5.572  0.00  0.00    -0.246 OA
HETATM   11  C   UNK N   1      30.142  23.347  -2.596  0.00  0.00     0.250 A 
HETATM   12  H   UNK N   1      31.859  23.796  -3.600  0.00  0.00     0.173 HD
HETATM   13  O   UNK N   1      30.700  22.798  -1.665  0.00  0.00    -0.268 OA
HETATM   14  C   UNK N   1      28.758  23.442  -2.622  0.00  0.00     0.092 A 
HETATM   15  C   UNK N   1      28.148  24.074  -3.701  0.00  0.00     0.104 A 
ENDBRANCH   4   7
BRANCH   6  16
HETATM   16  O   UNK N   1      25.144  23.529  -6.373  0.00  0.00    -0.393 OA
HETATM   17  H   UNK N   1      24.516  23.215  -5.702  0.00  0.00     0.210 HD
ENDBRANCH   6  16
ENDBRANCH   1   2
BRANCH   1  18
HETATM   18  O   UNK N   1      27.982  21.544  -7.959  0.00  0.00    -0.294 OA
BRANCH  18  19
HETATM   19  P   UNK N   1      29.407  20.657  -7.470  0.00  0.00     0.401 P 
HETATM   20  O   UNK N   1      30.527  20.975  -8.498  0.00  0.00    -0.631 OA
BRANCH  19  21
HETATM   21  O   UNK N   1      29.935  21.136  -5.868  0.00  0.00    -0.195 OA
BRANCH  21  22
HETATM   22  P   UNK N   1      31.573  20.571  -5.618  0.00  0.00     0.410 P 
HETATM   23  O   UNK N   1      31.063  20.600  -4.152  0.00  0.00    -0.631 OA
BRANCH  22  24
HETATM   24  O   UNK N   1      32.674  21.635  -4.784  0.00  0.00    -0.195 OA
BRANCH  24  25
HETATM   25  P   UNK N   1      33.554  20.717  -3.581  0.00  0.00     0.399 P 
HETATM   26  O   UNK N   1      35.073  21.038  -3.634  0.00  0.00    -0.631 OA
BRANCH  25  27
HETATM   27  O   UNK N   1      32.992  21.083  -1.980  0.00  0.00    -0.307 OA
HETATM   28  H   UNK N   1      32.474  20.738  -1.237  0.00  0.00     0.222 HD
ENDBRANCH  25  27
BRANCH  25  29
HETATM   29  O   UNK N   1      33.395  19.017  -3.896  0.00  0.00    -0.307 OA
HETATM   30  H   UNK N   1      33.799  18.174  -4.157  0.00  0.00     0.222 HD
ENDBRANCH  25  29
ENDBRANCH  24  25
ENDBRANCH  22  24
BRANCH  22  31
HETATM   31  O   UNK N   1      31.580  22.165  -6.309  0.00  0.00    -0.307 OA
HETATM   32  H   UNK N   1      31.475  23.034  -5.891  0.00  0.00     0.222 HD
ENDBRANCH  22  31
ENDBRANCH  21  22
ENDBRANCH  19  21
BRANCH  19  33
HETATM   33  O   UNK N   1      29.072  18.954  -7.548  0.00  0.00    -0.307 OA
HETATM   34  H   UNK N   1      28.728  18.056  -7.422  0.00  0.00     0.222 HD
ENDBRANCH  19  33
ENDBRANCH  18  19
ENDBRANCH   1  18
TORSDOF 13
ENDMDL
MODEL 3
REMARK VINA RESULT:      -6.5      5.601      9.289
REMARK  13 active torsions:
REMARK  status: ('A' for Active; 'I' for Inactive)
REMARK    1  A    between atoms: C_2  and  N_1 
REMARK    2  A    between atoms: C_10  and  C_13 
REMARK    3  A    between atoms: C_11  and  O_14 
REMARK    4  A    between atoms: C_13  and  O_16 
REMARK    5  A    between atoms: O_16  and  P_17 
REMARK    6  A    between atoms: P_17  and  O_18 
REMARK    7  A    between atoms: P_17  and  O_19 
REMARK    8  A    between atoms: O_18  and  P_21 
REMARK    9  A    between atoms: P_21  and  O_22 
REMARK   10  A    between atoms: P_21  and  O_23 
REMARK   11  A    between atoms: O_22  and  P_25 
REMARK   12  A    between atoms: P_25  and  O_26 
REMARK   13  A    between atoms: P_25  and  O_27 
ROOT
HETATM    1  C   UNK N   1      34.496  15.316   5.701  0.00  0.00     0.215 C 
ENDROOT
BRANCH   1   2
HETATM    2  C   UNK N   1      33.970  16.733   5.419  0.00  0.00     0.177 C 
HETATM    3  O   UNK N   1      34.354  17.621   6.435  0.00  0.00    -0.356 OA
HETATM    4  C   UNK N   1      33.282  17.656   7.354  0.00  0.00     0.235 C 
HETATM    5  C   UNK N   1      31.997  17.284   6.622  0.00  0.00     0.088 C 
HETATM    6  C   UNK N   1      32.466  16.850   5.269  0.00  0.00     0.153 C 
BRANCH   4   7
HETATM    7  N   UNK N   1      33.600  16.847   8.553  0.00  0.00    -0.282 N 
HETATM    8  C   UNK N   1      34.594  17.149   9.481  0.00  0.00     0.331 A 
HETATM    9  N   UNK N   1      34.804  16.325  10.554  0.00  0.00    -0.275 N 
HETATM   10  O   UNK N   1      35.297  18.137   9.357  0.00  0.00    -0.246 OA
HETATM   11  C   UNK N   1      34.051  15.200  10.736  0.00  0.00     0.250 A 
HETATM   12  H   UNK N   1      35.509  16.545  11.204  0.00  0.00     0.173 HD
HETATM   13  O   UNK N   1      34.251  14.482  11.697  0.00  0.00    -0.268 OA
HETATM   14  C   UNK N   1      33.059  14.878   9.820  0.00  0.00     0.092 A 
HETATM   15  C   UNK N   1      32.854  15.718   8.729  0.00  0.00     0.104 A 
ENDBRANCH   4   7
BRANCH   6  16
HETATM   16  O   UNK N   1      31.867  15.646   4.888  0.00  0.00    -0.393 OA
HETATM   17  H   UNK N   1      31.500  14.782   5.131  0.00  0.00     0.210 HD
ENDBRANCH   6  16
ENDBRANCH   1   2
BRANCH   1  18
HETATM   18  O   UNK N   1      35.877  15.317   5.968  0.00  0.00    -0.294 OA
BRANCH  18  19
HETATM   19  P   UNK N   1      36.191  14.054   7.137  0.00  0.00     0.401 P 
HETATM   20  O   UNK N   1      37.381  13.212   6.600  0.00  0.00    -0.631 OA
BRANCH  19  21
HETATM   21  O   UNK N   1      36.612  14.725   8.700  0.00  0.00    -0.195 OA
BRANCH  21  22
HETATM   22  P   UNK N   1      37.634  13.587   9.550  0.00  0.00     0.410 P 
HETATM   23  O   UNK N   1      36.249  12.912   9.741  0.00  0.00    -0.631 OA
BRANCH  22  24
HETATM   24  O   UNK N   1      37.434  13.458  11.277  0.00  0.00    -0.195 OA
BRANCH  24  25
HETATM   25  P   UNK N   1      37.080  11.794  11.689  0.00  0.00     0.399 P 
HETATM   26  O   UNK N   1      37.786  11.382  13.010  0.00  0.00    -0.631 OA
BRANCH  25  27
HETATM   27  O   UNK N   1      35.375  11.551  11.904  0.00  0.00    -0.307 OA
HETATM   28  H   UNK N   1      34.566  11.958  12.252  0.00  0.00     0.222 HD
ENDBRANCH  25  27
BRANCH  25  29
HETATM   29  O   UNK N   1      37.683  10.734  10.454  0.00  0.00    -0.307 OA
HETATM   30  H   UNK N   1      37.569   9.946   9.900  0.00  0.00     0.222 HD
ENDBRANCH  25  29
ENDBRANCH  24  25
ENDBRANCH  22  24
BRANCH  22  31
HETATM   31  O   UNK N   1      37.684  15.141  10.324  0.00  0.00    -0.307 OA
HETATM   32  H   UNK N   1      38.333  15.859  10.254  0.00  0.00     0.222 HD
ENDBRANCH  22  31
ENDBRANCH  21  22
ENDBRANCH  19  21
BRANCH  19  33
HETATM   33  O   UNK N   1      34.802  13.016   7.241  0.00  0.00    -0.307 OA
HETATM   34  H   UNK N   1      34.139  12.317   7.128  0.00  0.00     0.222 HD
ENDBRANCH  19  33
ENDBRANCH  18  19
ENDBRANCH   1  18
TORSDOF 13
ENDMDL
MODEL 4
REMARK VINA RESULT:      -6.5      4.959      8.874
REMARK  13 active torsions:
REMARK  status: ('A' for Active; 'I' for Inactive)
REMARK    1  A    between atoms: C_2  and  N_1 
REMARK    2  A    between atoms: C_10  and  C_13 
REMARK    3  A    between atoms: C_11  and  O_14 
REMARK    4  A    between atoms: C_13  and  O_16 
REMARK    5  A    between atoms: O_16  and  P_17 
REMARK    6  A    between atoms: P_17  and  O_18 
REMARK    7  A    between atoms: P_17  and  O_19 
REMARK    8  A    between atoms: O_18  and  P_21 
REMARK    9  A    between atoms: P_21  and  O_22 
REMARK   10  A    between atoms: P_21  and  O_23 
REMARK   11  A    between atoms: O_22  and  P_25 
REMARK   12  A    between atoms: P_25  and  O_26 
REMARK   13  A    between atoms: P_25  and  O_27 
ROOT
HETATM    1  C   UNK N   1      33.440  14.425   5.746  0.00  0.00     0.215 C 
ENDROOT
BRANCH   1   2
HETATM    2  C   UNK N   1      34.159  15.515   4.933  0.00  0.00     0.177 C 
HETATM    3  O   UNK N   1      34.413  16.644   5.725  0.00  0.00    -0.356 OA
HETATM    4  C   UNK N   1      33.330  17.527   5.514  0.00  0.00     0.235 C 
HETATM    5  C   UNK N   1      32.722  17.234   4.146  0.00  0.00     0.088 C 
HETATM    6  C   UNK N   1      33.426  15.993   3.696  0.00  0.00     0.153 C 
BRANCH   4   7
HETATM    7  N   UNK N   1      32.394  17.483   6.660  0.00  0.00    -0.282 N 
HETATM    8  C   UNK N   1      32.715  17.836   7.968  0.00  0.00     0.331 A 
HETATM    9  N   UNK N   1      31.768  17.753   8.953  0.00  0.00    -0.275 N 
HETATM   10  O   UNK N   1      33.835  18.214   8.266  0.00  0.00    -0.246 OA
HETATM   11  C   UNK N   1      30.500  17.328   8.677  0.00  0.00     0.250 A 
HETATM   12  H   UNK N   1      32.004  18.004   9.875  0.00  0.00     0.173 HD
HETATM   13  O   UNK N   1      29.672  17.263   9.565  0.00  0.00    -0.268 OA
HETATM   14  C   UNK N   1      30.161  16.966   7.381  0.00  0.00     0.092 A 
HETATM   15  C   UNK N   1      31.130  17.048   6.385  0.00  0.00     0.104 A 
ENDBRANCH   4   7
BRANCH   6  16
HETATM   16  O   UNK N   1      32.521  15.048   3.206  0.00  0.00    -0.393 OA
HETATM   17  H   UNK N   1      32.344  14.152   2.876  0.00  0.00     0.210 HD
ENDBRANCH   6  16
ENDBRANCH   1   2
BRANCH   1  18
HETATM   18  O   UNK N   1      34.344  13.659   6.503  0.00  0.00    -0.294 OA
BRANCH  18  19
HETATM   19  P   UNK N   1      34.184  14.148   8.174  0.00  0.00     0.401 P 
HETATM   20  O   UNK N   1      32.698  14.536   8.404  0.00  0.00    -0.631 OA
BRANCH  19  21
HETATM   21  O   UNK N   1      34.619  12.844   9.262  0.00  0.00    -0.195 OA
BRANCH  21  22
HETATM   22  P   UNK N   1      34.909  13.508  10.855  0.00  0.00     0.410 P 
HETATM   23  O   UNK N   1      36.360  13.467  10.305  0.00  0.00    -0.631 OA
BRANCH  22  24
HETATM   24  O   UNK N   1      35.791  12.522  11.992  0.00  0.00    -0.195 OA
BRANCH  24  25
HETATM   25  P   UNK N   1      36.148  13.472  13.417  0.00  0.00     0.399 P 
HETATM   26  O   UNK N   1      34.936  13.501  14.388  0.00  0.00    -0.631 OA
BRANCH  25  27
HETATM   27  O   UNK N   1      37.503  12.819  14.282  0.00  0.00    -0.307 OA
HETATM   28  H   UNK N   1      38.004  12.006  14.450  0.00  0.00     0.222 HD
ENDBRANCH  25  27
BRANCH  25  29
HETATM   29  O   UNK N   1      36.463  15.120  12.970  0.00  0.00    -0.307 OA
HETATM   30  H   UNK N   1      36.306  15.869  12.373  0.00  0.00     0.222 HD
ENDBRANCH  25  29
ENDBRANCH  24  25
ENDBRANCH  22  24
BRANCH  22  31
HETATM   31  O   UNK N   1      34.241  11.909  10.977  0.00  0.00    -0.307 OA
HETATM   32  H   UNK N   1      34.614  11.049  10.723  0.00  0.00     0.222 HD
ENDBRANCH  22  31
ENDBRANCH  21  22
ENDBRANCH  19  21
BRANCH  19  33
HETATM   33  O   UNK N   1      35.158  15.560   8.450  0.00  0.00    -0.307 OA
HETATM   34  H   UNK N   1      35.505  16.427   8.711  0.00  0.00     0.222 HD
ENDBRANCH  19  33
ENDBRANCH  18  19
ENDBRANCH   1  18
TORSDOF 13
ENDMDL
MODEL 5
REMARK VINA RESULT:      -6.5      3.816      8.304
REMARK  13 active torsions:
REMARK  status: ('A' for Active; 'I' for Inactive)
REMARK    1  A    between atoms: C_2  and  N_1 
REMARK    2  A    between atoms: C_10  and  C_13 
REMARK    3  A    between atoms: C_11  and  O_14 
REMARK    4  A    between atoms: C_13  and  O_16 
REMARK    5  A    between atoms: O_16  and  P_17 
REMARK    6  A    between atoms: P_17  and  O_18 
REMARK    7  A    between atoms: P_17  and  O_19 
REMARK    8  A    between atoms: O_18  and  P_21 
REMARK    9  A    between atoms: P_21  and  O_22 
REMARK   10  A    between atoms: P_21  and  O_23 
REMARK   11  A    between atoms: O_22  and  P_25 
REMARK   12  A    between atoms: P_25  and  O_26 
REMARK   13  A    between atoms: P_25  and  O_27 
ROOT
HETATM    1  C   UNK N   1      31.153  18.386   8.099  0.00  0.00     0.215 C 
ENDROOT
BRANCH   1   2
HETATM    2  C   UNK N   1      30.363  17.243   8.757  0.00  0.00     0.177 C 
HETATM    3  O   UNK N   1      29.611  16.540   7.804  0.00  0.00    -0.356 OA
HETATM    4  C   UNK N   1      28.324  17.122   7.808  0.00  0.00     0.235 C 
HETATM    5  C   UNK N   1      28.082  17.763   9.171  0.00  0.00     0.088 C 
HETATM    6  C   UNK N   1      29.408  17.662   9.857  0.00  0.00     0.153 C 
BRANCH   4   7
HETATM    7  N   UNK N   1      28.153  18.011   6.636  0.00  0.00    -0.282 N 
HETATM    8  C   UNK N   1      28.374  17.640   5.312  0.00  0.00     0.331 A 
HETATM    9  N   UNK N   1      28.187  18.548   4.305  0.00  0.00    -0.275 N 
HETATM   10  O   UNK N   1      28.741  16.515   5.023  0.00  0.00    -0.246 OA
HETATM   11  C   UNK N   1      27.784  19.825   4.574  0.00  0.00     0.250 A 
HETATM   12  H   UNK N   1      28.346  18.278   3.372  0.00  0.00     0.173 HD
HETATM   13  O   UNK N   1      27.621  20.617   3.665  0.00  0.00    -0.268 OA
HETATM   14  C   UNK N   1      27.564  20.217   5.887  0.00  0.00     0.092 A 
HETATM   15  C   UNK N   1      27.760  19.290   6.906  0.00  0.00     0.104 A 
ENDBRANCH   4   7
BRANCH   6  16
HETATM   16  O   UNK N   1      29.766  18.877  10.447  0.00  0.00    -0.393 OA
HETATM   17  H   UNK N   1      30.266  19.363  11.122  0.00  0.00     0.210 HD
ENDBRANCH   6  16
ENDBRANCH   1   2
BRANCH   1  18
HETATM   18  O   UNK N   1      32.541  18.171   8.175  0.00  0.00    -0.294 OA
BRANCH  18  19
HETATM   19  P   UNK N   1      33.011  17.241   6.770  0.00  0.00     0.401 P 
HETATM   20  O   UNK N   1      34.201  17.981   6.102  0.00  0.00    -0.631 OA
BRANCH  19  21
HETATM   21  O   UNK N   1      33.510  15.622   7.218  0.00  0.00    -0.195 OA
BRANCH  21  22
HETATM   22  P   UNK N   1      34.916  15.728   8.255  0.00  0.00     0.410 P 
HETATM   23  O   UNK N   1      35.295  14.487   7.401  0.00  0.00    -0.631 OA
BRANCH  22  24
HETATM   24  O   UNK N   1      35.163  14.448   9.413  0.00  0.00    -0.195 OA
BRANCH  24  25
HETATM   25  P   UNK N   1      35.316  15.144  11.011  0.00  0.00     0.399 P 
HETATM   26  O   UNK N   1      34.270  14.539  11.987  0.00  0.00    -0.631 OA
BRANCH  25  27
HETATM   27  O   UNK N   1      36.892  14.848  11.675  0.00  0.00    -0.307 OA
HETATM   28  H   UNK N   1      37.416  14.215  12.190  0.00  0.00     0.222 HD
ENDBRANCH  25  27
BRANCH  25  29
HETATM   29  O   UNK N   1      35.006  16.851  10.948  0.00  0.00    -0.307 OA
HETATM   30  H   UNK N   1      35.169  17.743  11.292  0.00  0.00     0.222 HD
ENDBRANCH  25  29
ENDBRANCH  24  25
ENDBRANCH  22  24
BRANCH  22  31
HETATM   31  O   UNK N   1      33.489  15.426   9.198  0.00  0.00    -0.307 OA
HETATM   32  H   UNK N   1      33.354  15.442  10.158  0.00  0.00     0.222 HD
ENDBRANCH  22  31
ENDBRANCH  21  22
ENDBRANCH  19  21
BRANCH  19  33
HETATM   33  O   UNK N   1      31.692  17.212   5.639  0.00  0.00    -0.307 OA
HETATM   34  H   UNK N   1      31.041  17.410   4.948  0.00  0.00     0.222 HD
ENDBRANCH  19  33
ENDBRANCH  18  19
ENDBRANCH   1  18
TORSDOF 13
ENDMDL
MODEL 6
REMARK VINA RESULT:      -6.4      8.922     11.546
REMARK  13 active torsions:
REMARK  status: ('A' for Active; 'I' for Inactive)
REMARK    1  A    between atoms: C_2  and  N_1 
REMARK    2  A    between atoms: C_10  and  C_13 
REMARK    3  A    between atoms: C_11  and  O_14 
REMARK    4  A    between atoms: C_13  and  O_16 
REMARK    5  A    between atoms: O_16  and  P_17 
REMARK    6  A    between atoms: P_17  and  O_18 
REMARK    7  A    between atoms: P_17  and  O_19 
REMARK    8  A    between atoms: O_18  and  P_21 
REMARK    9  A    between atoms: P_21  and  O_22 
REMARK   10  A    between atoms: P_21  and  O_23 
REMARK   11  A    between atoms: O_22  and  P_25 
REMARK   12  A    between atoms: P_25  and  O_26 
REMARK   13  A    between atoms: P_25  and  O_27 
ROOT
HETATM    1  C   UNK N   1      19.413  15.421   5.039  0.00  0.00     0.215 C 
ENDROOT
BRANCH   1   2
HETATM    2  C   UNK N   1      20.423  14.483   4.356  0.00  0.00     0.177 C 
HETATM    3  O   UNK N   1      21.682  15.092   4.255  0.00  0.00    -0.356 OA
HETATM    4  C   UNK N   1      21.729  15.694   2.978  0.00  0.00     0.235 C 
HETATM    5  C   UNK N   1      20.767  14.954   2.053  0.00  0.00     0.088 C 
HETATM    6  C   UNK N   1      20.039  14.018   2.965  0.00  0.00     0.153 C 
BRANCH   4   7
HETATM    7  N   UNK N   1      21.524  17.156   3.087  0.00  0.00    -0.282 N 
HETATM    8  C   UNK N   1      22.372  18.035   3.756  0.00  0.00     0.331 A 
HETATM    9  N   UNK N   1      22.082  19.372   3.796  0.00  0.00    -0.275 N 
HETATM   10  O   UNK N   1      23.375  17.638   4.323  0.00  0.00    -0.246 OA
HETATM   11  C   UNK N   1      20.965  19.869   3.185  0.00  0.00     0.250 A 
HETATM   12  H   UNK N   1      22.686  19.986   4.272  0.00  0.00     0.173 HD
HETATM   13  O   UNK N   1      20.726  21.061   3.229  0.00  0.00    -0.268 OA
HETATM   14  C   UNK N   1      20.104  19.010   2.517  0.00  0.00     0.092 A 
HETATM   15  C   UNK N   1      20.403  17.651   2.485  0.00  0.00     0.104 A 
ENDBRANCH   4   7
BRANCH   6  16
HETATM   16  O   UNK N   1      18.661  14.065   2.742  0.00  0.00    -0.393 OA
HETATM   17  H   UNK N   1      17.799  14.478   2.914  0.00  0.00     0.210 HD
ENDBRANCH   6  16
ENDBRANCH   1   2
BRANCH   1  18
HETATM   18  O   UNK N   1      20.055  16.370   5.854  0.00  0.00    -0.294 OA
BRANCH  18  19
HETATM   19  P   UNK N   1      19.694  15.970   7.518  0.00  0.00     0.401 P 
HETATM   20  O   UNK N   1      18.198  16.306   7.762  0.00  0.00    -0.631 OA
BRANCH  19  21
HETATM   21  O   UNK N   1      19.968  14.268   7.836  0.00  0.00    -0.195 OA
BRANCH  21  22
HETATM   22  P   UNK N   1      21.177  14.113   9.091  0.00  0.00     0.410 P 
HETATM   23  O   UNK N   1      21.358  12.754   8.363  0.00  0.00    -0.631 OA
BRANCH  22  24
HETATM   24  O   UNK N   1      20.911  12.908  10.323  0.00  0.00    -0.195 OA
BRANCH  24  25
HETATM   25  P   UNK N   1      22.452  12.241  10.814  0.00  0.00     0.399 P 
HETATM   26  O   UNK N   1      22.504  12.025  12.352  0.00  0.00    -0.631 OA
BRANCH  25  27
HETATM   27  O   UNK N   1      22.743  10.708  10.055  0.00  0.00    -0.307 OA
HETATM   28  H   UNK N   1      23.024   9.795  10.222  0.00  0.00     0.222 HD
ENDBRANCH  25  27
BRANCH  25  29
HETATM   29  O   UNK N   1      23.731  13.351  10.428  0.00  0.00    -0.307 OA
HETATM   30  H   UNK N   1      24.056  14.103   9.909  0.00  0.00     0.222 HD
ENDBRANCH  25  29
ENDBRANCH  24  25
ENDBRANCH  22  24
BRANCH  22  31
HETATM   31  O   UNK N   1      19.592  14.242   9.789  0.00  0.00    -0.307 OA
HETATM   32  H   UNK N   1      19.193  13.774  10.539  0.00  0.00     0.222 HD
ENDBRANCH  22  31
ENDBRANCH  21  22
ENDBRANCH  19  21
BRANCH  19  33
HETATM   33  O   UNK N   1      20.649  16.976   8.565  0.00  0.00    -0.307 OA
HETATM   34  H   UNK N   1      21.127  17.705   8.990  0.00  0.00     0.222 HD
ENDBRANCH  19  33
ENDBRANCH  18  19
ENDBRANCH   1  18
TORSDOF 13
ENDMDL
MODEL 7
REMARK VINA RESULT:      -6.4      5.715      7.744
REMARK  13 active torsions:
REMARK  status: ('A' for Active; 'I' for Inactive)
REMARK    1  A    between atoms: C_2  and  N_1 
REMARK    2  A    between atoms: C_10  and  C_13 
REMARK    3  A    between atoms: C_11  and  O_14 
REMARK    4  A    between atoms: C_13  and  O_16 
REMARK    5  A    between atoms: O_16  and  P_17 
REMARK    6  A    between atoms: P_17  and  O_18 
REMARK    7  A    between atoms: P_17  and  O_19 
REMARK    8  A    between atoms: O_18  and  P_21 
REMARK    9  A    between atoms: P_21  and  O_22 
REMARK   10  A    between atoms: P_21  and  O_23 
REMARK   11  A    between atoms: O_22  and  P_25 
REMARK   12  A    between atoms: P_25  and  O_26 
REMARK   13  A    between atoms: P_25  and  O_27 
ROOT
HETATM    1  C   UNK N   1      35.368  14.870  10.393  0.00  0.00     0.215 C 
ENDROOT
BRANCH   1   2
HETATM    2  C   UNK N   1      36.172  13.747   9.717  0.00  0.00     0.177 C 
HETATM    3  O   UNK N   1      35.759  12.489  10.178  0.00  0.00    -0.356 OA
HETATM    4  C   UNK N   1      36.625  12.153  11.242  0.00  0.00     0.235 C 
HETATM    5  C   UNK N   1      37.944  12.895  11.051  0.00  0.00     0.088 C 
HETATM    6  C   UNK N   1      37.674  13.819   9.905  0.00  0.00     0.153 C 
BRANCH   4   7
HETATM    7  N   UNK N   1      35.951  12.358  12.544  0.00  0.00    -0.282 N 
HETATM    8  C   UNK N   1      34.829  11.658  12.982  0.00  0.00     0.331 A 
HETATM    9  N   UNK N   1      34.285  11.934  14.208  0.00  0.00    -0.275 N 
HETATM   10  O   UNK N   1      34.307  10.801  12.291  0.00  0.00    -0.246 OA
HETATM   11  C   UNK N   1      34.825  12.891  15.020  0.00  0.00     0.250 A 
HETATM   12  H   UNK N   1      33.492  11.436  14.510  0.00  0.00     0.173 HD
HETATM   13  O   UNK N   1      34.329  13.119  16.106  0.00  0.00    -0.268 OA
HETATM   14  C   UNK N   1      35.939  13.603  14.599  0.00  0.00     0.092 A 
HETATM   15  C   UNK N   1      36.485  13.321  13.350  0.00  0.00     0.104 A 
ENDBRANCH   4   7
BRANCH   6  16
HETATM   16  O   UNK N   1      38.121  15.114  10.183  0.00  0.00    -0.393 OA
HETATM   17  H   UNK N   1      38.276  15.825  10.825  0.00  0.00     0.210 HD
ENDBRANCH   6  16
ENDBRANCH   1   2
BRANCH   1  18
HETATM   18  O   UNK N   1      34.159  15.122   9.720  0.00  0.00    -0.294 OA
BRANCH  18  19
HETATM   19  P   UNK N   1      34.303  16.679   8.936  0.00  0.00     0.401 P 
HETATM   20  O   UNK N   1      35.294  17.531   9.776  0.00  0.00    -0.631 OA
BRANCH  19  21
HETATM   21  O   UNK N   1      34.919  16.513   7.303  0.00  0.00    -0.195 OA
BRANCH  21  22
HETATM   22  P   UNK N   1      33.568  16.413   6.195  0.00  0.00     0.410 P 
HETATM   23  O   UNK N   1      34.609  15.546   5.439  0.00  0.00    -0.631 OA
BRANCH  22  24
HETATM   24  O   UNK N   1      33.742  17.180   4.639  0.00  0.00    -0.195 OA
BRANCH  24  25
HETATM   25  P   UNK N   1      32.793  16.303   3.459  0.00  0.00     0.399 P 
HETATM   26  O   UNK N   1      33.681  15.802   2.288  0.00  0.00    -0.631 OA
BRANCH  25  27
HETATM   27  O   UNK N   1      32.030  14.918   4.174  0.00  0.00    -0.307 OA
HETATM   28  H   UNK N   1      31.207  14.601   4.579  0.00  0.00     0.222 HD
ENDBRANCH  25  27
BRANCH  25  29
HETATM   29  O   UNK N   1      31.596  17.350   2.761  0.00  0.00    -0.307 OA
HETATM   30  H   UNK N   1      30.666  17.543   2.567  0.00  0.00     0.222 HD
ENDBRANCH  25  29
ENDBRANCH  24  25
ENDBRANCH  22  24
BRANCH  22  31
HETATM   31  O   UNK N   1      34.111  18.056   6.343  0.00  0.00    -0.307 OA
HETATM   32  H   UNK N   1      34.974  18.455   6.148  0.00  0.00     0.222 HD
ENDBRANCH  22  31
ENDBRANCH  21  22
ENDBRANCH  19  21
BRANCH  19  33
HETATM   33  O   UNK N   1      32.758  17.473   8.958  0.00  0.00    -0.307 OA
HETATM   34  H   UNK N   1      32.010  18.079   8.840  0.00  0.00     0.222 HD
ENDBRANCH  19  33
ENDBRANCH  18  19
ENDBRANCH   1  18
TORSDOF 13
ENDMDL
MODEL 8
REMARK VINA RESULT:      -6.3      7.107     10.040
REMARK  13 active torsions:
REMARK  status: ('A' for Active; 'I' for Inactive)
REMARK    1  A    between atoms: C_2  and  N_1 
REMARK    2  A    between atoms: C_10  and  C_13 
REMARK    3  A    between atoms: C_11  and  O_14 
REMARK    4  A    between atoms: C_13  and  O_16 
REMARK    5  A    between atoms: O_16  and  P_17 
REMARK    6  A    between atoms: P_17  and  O_18 
REMARK    7  A    between atoms: P_17  and  O_19 
REMARK    8  A    between atoms: O_18  and  P_21 
REMARK    9  A    between atoms: P_21  and  O_22 
REMARK   10  A    between atoms: P_21  and  O_23 
REMARK   11  A    between atoms: O_22  and  P_25 
REMARK   12  A    between atoms: P_25  and  O_26 
REMARK   13  A    between atoms: P_25  and  O_27 
ROOT
HETATM    1  C   UNK N   1      23.429  16.140   3.392  0.00  0.00     0.215 C 
ENDROOT
BRANCH   1   2
HETATM    2  C   UNK N   1      22.388  15.770   4.462  0.00  0.00     0.177 C 
HETATM    3  O   UNK N   1      21.085  15.975   3.984  0.00  0.00    -0.356 OA
HETATM    4  C   UNK N   1      20.711  17.272   4.399  0.00  0.00     0.235 C 
HETATM    5  C   UNK N   1      21.516  17.638   5.642  0.00  0.00     0.088 C 
HETATM    6  C   UNK N   1      22.506  16.523   5.772  0.00  0.00     0.153 C 
BRANCH   4   7
HETATM    7  N   UNK N   1      20.799  18.224   3.269  0.00  0.00    -0.282 N 
HETATM    8  C   UNK N   1      20.241  18.024   2.009  0.00  0.00     0.331 A 
HETATM    9  N   UNK N   1      20.388  18.973   1.034  0.00  0.00    -0.275 N 
HETATM   10  O   UNK N   1      19.623  17.007   1.745  0.00  0.00    -0.246 OA
HETATM   11  C   UNK N   1      21.078  20.128   1.274  0.00  0.00     0.250 A 
HETATM   12  H   UNK N   1      19.991  18.823   0.147  0.00  0.00     0.173 HD
HETATM   13  O   UNK N   1      21.196  20.961   0.396  0.00  0.00    -0.268 OA
HETATM   14  C   UNK N   1      21.647  20.345   2.521  0.00  0.00     0.092 A 
HETATM   15  C   UNK N   1      21.497  19.373   3.506  0.00  0.00     0.104 A 
ENDBRANCH   4   7
BRANCH   6  16
HETATM   16  O   UNK N   1      23.795  17.014   5.997  0.00  0.00    -0.393 OA
HETATM   17  H   UNK N   1      24.461  17.706   5.860  0.00  0.00     0.210 HD
ENDBRANCH   6  16
ENDBRANCH   1   2
BRANCH   1  18
HETATM   18  O   UNK N   1      24.460  15.186   3.318  0.00  0.00    -0.294 OA
BRANCH  18  19
HETATM   19  P   UNK N   1      25.973  16.017   3.602  0.00  0.00     0.401 P 
HETATM   20  O   UNK N   1      25.762  17.507   3.219  0.00  0.00    -0.631 OA
BRANCH  19  21
HETATM   21  O   UNK N   1      26.450  15.910   5.285  0.00  0.00    -0.195 OA
BRANCH  21  22
HETATM   22  P   UNK N   1      27.572  17.206   5.639  0.00  0.00     0.410 P 
HETATM   23  O   UNK N   1      28.565  16.080   5.244  0.00  0.00    -0.631 OA
BRANCH  22  24
HETATM   24  O   UNK N   1      28.609  17.017   7.028  0.00  0.00    -0.195 OA
BRANCH  24  25
HETATM   25  P   UNK N   1      28.330  18.343   8.135  0.00  0.00     0.399 P 
HETATM   26  O   UNK N   1      29.672  18.935   8.648  0.00  0.00    -0.631 OA
BRANCH  25  27
HETATM   27  O   UNK N   1      27.446  19.624   7.368  0.00  0.00    -0.307 OA
HETATM   28  H   UNK N   1      26.683  20.215   7.467  0.00  0.00     0.222 HD
ENDBRANCH  25  27
BRANCH  25  29
HETATM   29  O   UNK N   1      27.471  17.779   9.535  0.00  0.00    -0.307 OA
HETATM   30  H   UNK N   1      27.430  17.652  10.495  0.00  0.00     0.222 HD
ENDBRANCH  25  29
ENDBRANCH  24  25
ENDBRANCH  22  24
BRANCH  22  31
HETATM   31  O   UNK N   1      26.674  16.775   7.062  0.00  0.00    -0.307 OA
HETATM   32  H   UNK N   1      26.864  16.936   8.000  0.00  0.00     0.222 HD
ENDBRANCH  22  31
ENDBRANCH  21  22
ENDBRANCH  19  21
BRANCH  19  33
HETATM   33  O   UNK N   1      27.190  15.358   2.551  0.00  0.00    -0.307 OA
HETATM   34  H   UNK N   1      27.680  14.922   1.837  0.00  0.00     0.222 HD
ENDBRANCH  19  33
ENDBRANCH  18  19
ENDBRANCH   1  18
TORSDOF 13
ENDMDL
MODEL 9
REMARK VINA RESULT:      -6.2     12.290     14.768
REMARK  13 active torsions:
REMARK  status: ('A' for Active; 'I' for Inactive)
REMARK    1  A    between atoms: C_2  and  N_1 
REMARK    2  A    between atoms: C_10  and  C_13 
REMARK    3  A    between atoms: C_11  and  O_14 
REMARK    4  A    between atoms: C_13  and  O_16 
REMARK    5  A    between atoms: O_16  and  P_17 
REMARK    6  A    between atoms: P_17  and  O_18 
REMARK    7  A    between atoms: P_17  and  O_19 
REMARK    8  A    between atoms: O_18  and  P_21 
REMARK    9  A    between atoms: P_21  and  O_22 
REMARK   10  A    between atoms: P_21  and  O_23 
REMARK   11  A    between atoms: O_22  and  P_25 
REMARK   12  A    between atoms: P_25  and  O_26 
REMARK   13  A    between atoms: P_25  and  O_27 
ROOT
HETATM    1  C   UNK N   1      28.758  27.742  -4.258  0.00  0.00     0.215 C 
ENDROOT
BRANCH   1   2
HETATM    2  C   UNK N   1      27.632  28.327  -3.390  0.00  0.00     0.177 C 
HETATM    3  O   UNK N   1      26.851  27.307  -2.829  0.00  0.00    -0.356 OA
HETATM    4  C   UNK N   1      25.761  27.115  -3.705  0.00  0.00     0.235 C 
HETATM    5  C   UNK N   1      25.522  28.407  -4.479  0.00  0.00     0.088 C 
HETATM    6  C   UNK N   1      26.685  29.271  -4.105  0.00  0.00     0.153 C 
BRANCH   4   7
HETATM    7  N   UNK N   1      25.963  25.899  -4.526  0.00  0.00    -0.282 N 
HETATM    8  C   UNK N   1      26.331  24.651  -4.029  0.00  0.00     0.331 A 
HETATM    9  N   UNK N   1      26.494  23.594  -4.883  0.00  0.00    -0.275 N 
HETATM   10  O   UNK N   1      26.522  24.475  -2.839  0.00  0.00    -0.246 OA
HETATM   11  C   UNK N   1      26.301  23.738  -6.228  0.00  0.00     0.250 A 
HETATM   12  H   UNK N   1      26.755  22.716  -4.524  0.00  0.00     0.173 HD
HETATM   13  O   UNK N   1      26.449  22.786  -6.970  0.00  0.00    -0.268 OA
HETATM   14  C   UNK N   1      25.940  24.974  -6.744  0.00  0.00     0.092 A 
HETATM   15  C   UNK N   1      25.780  26.046  -5.870  0.00  0.00     0.104 A 
ENDBRANCH   4   7
BRANCH   6  16
HETATM   16  O   UNK N   1      27.261  29.860  -5.233  0.00  0.00    -0.393 OA
HETATM   17  H   UNK N   1      27.184  30.150  -6.157  0.00  0.00     0.210 HD
ENDBRANCH   6  16
ENDBRANCH   1   2
BRANCH   1  18
HETATM   18  O   UNK N   1      29.898  27.436  -3.494  0.00  0.00    -0.294 OA
BRANCH  18  19
HETATM   19  P   UNK N   1      30.495  25.882  -4.031  0.00  0.00     0.401 P 
HETATM   20  O   UNK N   1      31.806  26.137  -4.822  0.00  0.00    -0.631 OA
BRANCH  19  21
HETATM   21  O   UNK N   1      30.831  24.826  -2.673  0.00  0.00    -0.195 OA
BRANCH  21  22
HETATM   22  P   UNK N   1      30.294  23.208  -3.066  0.00  0.00     0.410 P 
HETATM   23  O   UNK N   1      30.567  23.047  -1.546  0.00  0.00    -0.631 OA
BRANCH  22  24
HETATM   24  O   UNK N   1      31.466  21.921  -2.956  0.00  0.00    -0.195 OA
BRANCH  24  25
HETATM   25  P   UNK N   1      31.522  21.067  -4.483  0.00  0.00     0.399 P 
HETATM   26  O   UNK N   1      30.198  21.249  -5.274  0.00  0.00    -0.631 OA
BRANCH  25  27
HETATM   27  O   UNK N   1      32.817  21.649  -5.479  0.00  0.00    -0.307 OA
HETATM   28  H   UNK N   1      33.023  22.211  -6.243  0.00  0.00     0.222 HD
ENDBRANCH  25  27
BRANCH  25  29
HETATM   29  O   UNK N   1      31.702  19.363  -4.205  0.00  0.00    -0.307 OA
HETATM   30  H   UNK N   1      32.278  18.594  -4.070  0.00  0.00     0.222 HD
ENDBRANCH  25  29
ENDBRANCH  24  25
ENDBRANCH  22  24
BRANCH  22  31
HETATM   31  O   UNK N   1      31.754  23.588  -3.927  0.00  0.00    -0.307 OA
HETATM   32  H   UNK N   1      31.936  23.610  -4.879  0.00  0.00     0.222 HD
ENDBRANCH  22  31
ENDBRANCH  21  22
ENDBRANCH  19  21
BRANCH  19  33
HETATM   33  O   UNK N   1      29.339  25.173  -5.119  0.00  0.00    -0.307 OA
HETATM   34  H   UNK N   1      28.772  24.575  -5.629  0.00  0.00     0.222 HD
ENDBRANCH  19  33
ENDBRANCH  18  19
ENDBRANCH   1  18
TORSDOF 13
ENDMDL
