MODEL 1
REMARK VINA RESULT:      -7.4      0.000      0.000
REMARK  11 active torsions:
REMARK  status: ('A' for Active; 'I' for Inactive)
REMARK    1  A    between atoms: C_21  and  C_7 
REMARK    2  A    between atoms: C_22  and  C_8 
REMARK    3  A    between atoms: C_24  and  C_10 
REMARK    4  A    between atoms: C_13  and  C_11 
REMARK    5  A    between atoms: C_25  and  C_11 
REMARK    6  A    between atoms: C_14  and  C_12 
REMARK    7  A    between atoms: C_26  and  C_12 
REMARK    8  A    between atoms: C_35  and  C_13 
REMARK    9  A    between atoms: C_36  and  C_14 
REMARK   10  A    between atoms: O_42  and  C_35 
REMARK   11  A    between atoms: O_44  and  C_36 
ROOT
HETATM    1  C   UNK N   1      26.056  13.991   5.525  0.00  0.00     0.007 C 
HETATM    2  C   UNK N   1      20.564  12.775   3.097  0.00  0.00     0.051 C 
HETATM    3  C   UNK N   1      27.046  20.107   3.851  0.00  0.00     0.051 C 
HETATM    4  C   UNK N   1      26.821  13.471   4.546  0.00  0.00    -0.026 A 
HETATM    5  C   UNK N   1      23.605  12.089   3.295  0.00  0.00     0.031 C 
HETATM    6  C   UNK N   1      28.036  17.351   3.495  0.00  0.00     0.064 A 
HETATM    7  C   UNK N   1      28.397  12.345   2.960  0.00  0.00     0.027 C 
HETATM    8  C   UNK N   1      23.289  16.962   3.830  0.00  0.00     0.064 C 
HETATM    9  C   UNK N   1      21.664  13.711   3.473  0.00  0.00    -0.025 A 
HETATM   10  C   UNK N   1      26.242  18.844   3.818  0.00  0.00    -0.025 A 
HETATM   11  C   UNK N   1      25.229  13.158   1.995  0.00  0.00    -0.048 C 
HETATM   12  C   UNK N   1      30.068  15.821   3.182  0.00  0.00     0.004 A 
HETATM   13  C   UNK N   1      26.590  13.256   2.582  0.00  0.00     0.061 A 
HETATM   14  C   UNK N   1      30.218  14.425   3.101  0.00  0.00     0.004 A 
HETATM   15  C   UNK N   1      21.596  15.091   3.555  0.00  0.00    -0.021 A 
HETATM   16  C   UNK N   1      24.883  18.742   3.869  0.00  0.00    -0.021 A 
HETATM   17  C   UNK N   1      22.985  13.395   3.582  0.00  0.00     0.062 A 
HETATM   18  C   UNK N   1      26.714  17.567   3.658  0.00  0.00     0.066 A 
HETATM   19  C   UNK N   1      24.772  12.115   2.641  0.00  0.00     0.130 C 
HETATM   20  C   UNK N   1      28.702  16.079   3.273  0.00  0.00     0.070 A 
HETATM   21  C   UNK N   1      27.019  12.201   2.622  0.00  0.00     0.112 C 
HETATM   22  C   UNK N   1      28.947  13.889   3.066  0.00  0.00     0.066 A 
HETATM   23  C   UNK N   1      22.878  15.555   3.773  0.00  0.00     0.066 A 
HETATM   24  C   UNK N   1      24.549  17.412   3.804  0.00  0.00     0.066 A 
HETATM   25 Fe   UNK N   1      25.736  14.662   3.484  0.00  0.00     0.000 Fe
HETATM   26  N   UNK N   1      23.723  14.532   3.722  0.00  0.00    -0.248 N 
HETATM   27  N   UNK N   1      25.671  16.671   3.662  0.00  0.00    -0.248 N 
HETATM   28  N   UNK N   1      25.871  11.935   3.241  0.00  0.00    -0.227 NA
HETATM   29  N   UNK N   1      28.040  14.956   3.222  0.00  0.00    -0.248 N 
ENDROOT
BRANCH  15  30
HETATM   30  C   UNK N   1      20.422  15.916   3.234  0.00  0.00     0.052 C 
BRANCH  30  31
HETATM   31  C   UNK N   1      20.333  16.123   1.760  0.00  0.00     0.115 C 
BRANCH  31  32
HETATM   32  C   UNK N   1      20.081  17.562   1.577  0.00  0.00     0.139 C 
HETATM   33  O   UNK N   1      19.616  18.214   2.492  0.00  0.00    -0.650 OA
BRANCH  32  34
HETATM   34  O   UNK N   1      20.315  18.136   0.381  0.00  0.00    -0.776 OA
HETATM   35  H   UNK N   1      20.734  18.958   0.213  0.00  0.00     0.167 HD
ENDBRANCH  32  34
ENDBRANCH  31  32
ENDBRANCH  30  31
ENDBRANCH  15  30
BRANCH  16  36
HETATM   36  C   UNK N   1      23.928  19.845   3.853  0.00  0.00     0.052 C 
BRANCH  36  37
HETATM   37  C   UNK N   1      23.793  20.554   2.550  0.00  0.00     0.115 C 
BRANCH  37  38
HETATM   38  C   UNK N   1      22.341  20.418   2.332  0.00  0.00     0.139 C 
HETATM   39  O   UNK N   1      21.890  20.568   1.209  0.00  0.00    -0.650 OA
BRANCH  38  40
HETATM   40  O   UNK N   1      21.517  20.448   3.395  0.00  0.00    -0.776 OA
HETATM   41  H   UNK N   1      21.601  20.175   4.287  0.00  0.00     0.167 HD
ENDBRANCH  38  40
ENDBRANCH  37  38
ENDBRANCH  36  37
ENDBRANCH  16  36
BRANCH  11  42
HETATM   42  C   UNK N   1      24.426  14.131   1.196  0.00  0.00    -0.005 C 
HETATM   43  C   UNK N   1      23.674  13.774   0.162  0.00  0.00     0.011 C 
ENDBRANCH  11  42
BRANCH  12  44
HETATM   44  C   UNK N   1      31.162  16.813   3.239  0.00  0.00     0.004 C 
HETATM   45  C   UNK N   1      31.676  17.225   4.399  0.00  0.00     0.012 C 
ENDBRANCH  12  44
BRANCH  14  46
HETATM   46  C   UNK N   1      31.485  13.695   3.145  0.00  0.00     0.004 C 
HETATM   47  C   UNK N   1      31.997  13.304   4.309  0.00  0.00     0.012 C 
ENDBRANCH  14  46
TORSDOF 11
ENDMDL
MODEL 2
REMARK VINA RESULT:      -7.2      4.244      8.168
REMARK  11 active torsions:
REMARK  status: ('A' for Active; 'I' for Inactive)
REMARK    1  A    between atoms: C_21  and  C_7 
REMARK    2  A    between atoms: C_22  and  C_8 
REMARK    3  A    between atoms: C_24  and  C_10 
REMARK    4  A    between atoms: C_13  and  C_11 
REMARK    5  A    between atoms: C_25  and  C_11 
REMARK    6  A    between atoms: C_14  and  C_12 
REMARK    7  A    between atoms: C_26  and  C_12 
REMARK    8  A    between atoms: C_35  and  C_13 
REMARK    9  A    between atoms: C_36  and  C_14 
REMARK   10  A    between atoms: O_42  and  C_35 
REMARK   11  A    between atoms: O_44  and  C_36 
ROOT
HETATM    1  C   UNK N   1      32.813  16.493   2.913  0.00  0.00     0.007 C 
HETATM    2  C   UNK N   1      33.931  17.780   8.798  0.00  0.00     0.051 C 
HETATM    3  C   UNK N   1      26.551  15.091   2.912  0.00  0.00     0.051 C 
HETATM    4  C   UNK N   1      33.226  15.211   2.913  0.00  0.00    -0.026 A 
HETATM    5  C   UNK N   1      34.563  16.043   6.280  0.00  0.00     0.031 C 
HETATM    6  C   UNK N   1      29.240  13.975   2.438  0.00  0.00     0.064 A 
HETATM    7  C   UNK N   1      34.169  12.907   2.654  0.00  0.00     0.027 C 
HETATM    8  C   UNK N   1      29.766  17.074   6.033  0.00  0.00     0.064 C 
HETATM    9  C   UNK N   1      33.008  17.494   7.661  0.00  0.00    -0.025 A 
HETATM   10  C   UNK N   1      27.823  15.442   3.618  0.00  0.00    -0.025 A 
HETATM   11  C   UNK N   1      33.345  14.124   5.730  0.00  0.00    -0.048 C 
HETATM   12  C   UNK N   1      30.689  12.371   1.062  0.00  0.00     0.004 A 
HETATM   13  C   UNK N   1      33.269  13.775   4.288  0.00  0.00     0.061 A 
HETATM   14  C   UNK N   1      32.068  12.097   1.041  0.00  0.00     0.004 A 
HETATM   15  C   UNK N   1      31.643  17.717   7.616  0.00  0.00    -0.021 A 
HETATM   16  C   UNK N   1      27.961  16.294   4.675  0.00  0.00    -0.021 A 
HETATM   17  C   UNK N   1      33.302  16.756   6.553  0.00  0.00     0.062 A 
HETATM   18  C   UNK N   1      29.070  14.921   3.385  0.00  0.00     0.066 A 
HETATM   19  C   UNK N   1      34.452  14.822   5.742  0.00  0.00     0.130 C 
HETATM   20  C   UNK N   1      30.472  13.290   2.087  0.00  0.00     0.070 A 
HETATM   21  C   UNK N   1      34.313  13.458   3.960  0.00  0.00     0.112 C 
HETATM   22  C   UNK N   1      32.628  12.790   2.095  0.00  0.00     0.066 A 
HETATM   23  C   UNK N   1      31.171  17.157   6.446  0.00  0.00     0.066 A 
HETATM   24  C   UNK N   1      29.287  16.331   5.028  0.00  0.00     0.066 A 
HETATM   25 Fe   UNK N   1      31.969  15.126   4.375  0.00  0.00     0.000 Fe
HETATM   26  N   UNK N   1      32.166  16.518   5.840  0.00  0.00    -0.248 N 
HETATM   27  N   UNK N   1      29.986  15.478   4.246  0.00  0.00    -0.248 N 
HETATM   28  N   UNK N   1      34.659  14.619   4.512  0.00  0.00    -0.227 NA
HETATM   29  N   UNK N   1      31.600  13.552   2.686  0.00  0.00    -0.248 N 
ENDROOT
BRANCH  15  30
HETATM   30  C   UNK N   1      30.819  18.243   8.715  0.00  0.00     0.052 C 
BRANCH  30  31
HETATM   31  C   UNK N   1      30.063  17.130   9.359  0.00  0.00     0.115 C 
BRANCH  31  32
HETATM   32  C   UNK N   1      28.677  17.612   9.478  0.00  0.00     0.139 C 
HETATM   33  O   UNK N   1      27.800  16.845   9.829  0.00  0.00    -0.650 OA
BRANCH  32  34
HETATM   34  O   UNK N   1      28.377  18.883   9.146  0.00  0.00    -0.776 OA
HETATM   35  H   UNK N   1      28.927  19.638   9.220  0.00  0.00     0.167 HD
ENDBRANCH  32  34
ENDBRANCH  31  32
ENDBRANCH  30  31
ENDBRANCH  15  30
BRANCH  16  36
HETATM   36  C   UNK N   1      26.883  16.952   5.406  0.00  0.00     0.052 C 
BRANCH  36  37
HETATM   37  C   UNK N   1      26.255  18.110   4.711  0.00  0.00     0.115 C 
BRANCH  37  38
HETATM   38  C   UNK N   1      26.953  19.222   5.383  0.00  0.00     0.139 C 
HETATM   39  O   UNK N   1      27.716  19.924   4.740  0.00  0.00    -0.650 OA
BRANCH  38  40
HETATM   40  O   UNK N   1      26.987  19.253   6.727  0.00  0.00    -0.776 OA
HETATM   41  H   UNK N   1      26.409  19.591   7.382  0.00  0.00     0.167 HD
ENDBRANCH  38  40
ENDBRANCH  37  38
ENDBRANCH  36  37
ENDBRANCH  16  36
BRANCH  11  42
HETATM   42  C   UNK N   1      32.322  14.057   6.817  0.00  0.00    -0.005 C 
HETATM   43  C   UNK N   1      32.609  13.694   8.061  0.00  0.00     0.011 C 
ENDBRANCH  11  42
BRANCH  12  44
HETATM   44  C   UNK N   1      29.682  11.841   0.120  0.00  0.00     0.004 C 
HETATM   45  C   UNK N   1      28.921  10.787   0.426  0.00  0.00     0.012 C 
ENDBRANCH  12  44
BRANCH  14  46
HETATM   46  C   UNK N   1      32.771  11.305   0.032  0.00  0.00     0.004 C 
HETATM   47  C   UNK N   1      33.273  11.889  -1.053  0.00  0.00     0.012 C 
ENDBRANCH  14  46
TORSDOF 11
ENDMDL
MODEL 3
REMARK VINA RESULT:      -7.1      4.131      6.771
REMARK  11 active torsions:
REMARK  status: ('A' for Active; 'I' for Inactive)
REMARK    1  A    between atoms: C_21  and  C_7 
REMARK    2  A    between atoms: C_22  and  C_8 
REMARK    3  A    between atoms: C_24  and  C_10 
REMARK    4  A    between atoms: C_13  and  C_11 
REMARK    5  A    between atoms: C_25  and  C_11 
REMARK    6  A    between atoms: C_14  and  C_12 
REMARK    7  A    between atoms: C_26  and  C_12 
REMARK    8  A    between atoms: C_35  and  C_13 
REMARK    9  A    between atoms: C_36  and  C_14 
REMARK   10  A    between atoms: O_42  and  C_35 
REMARK   11  A    between atoms: O_44  and  C_36 
ROOT
HETATM    1  C   UNK N   1      19.258  12.414   3.277  0.00  0.00     0.007 C 
HETATM    2  C   UNK N   1      20.184  17.836   0.579  0.00  0.00     0.051 C 
HETATM    3  C   UNK N   1      21.645  13.312   9.166  0.00  0.00     0.051 C 
HETATM    4  C   UNK N   1      20.343  11.773   2.801  0.00  0.00    -0.026 A 
HETATM    5  C   UNK N   1      20.662  14.750   0.598  0.00  0.00     0.031 C 
HETATM    6  C   UNK N   1      21.988  11.784   6.666  0.00  0.00     0.064 A 
HETATM    7  C   UNK N   1      22.157  10.347   1.830  0.00  0.00     0.027 C 
HETATM    8  C   UNK N   1      20.492  16.113   5.315  0.00  0.00     0.064 C 
HETATM    9  C   UNK N   1      20.165  16.941   1.772  0.00  0.00    -0.025 A 
HETATM   10  C   UNK N   1      21.375  13.775   7.768  0.00  0.00    -0.025 A 
HETATM   11  C   UNK N   1      22.401  13.747   1.799  0.00  0.00    -0.048 C 
HETATM   12  C   UNK N   1      22.645   9.558   5.581  0.00  0.00     0.004 A 
HETATM   13  C   UNK N   1      22.169  12.357   2.269  0.00  0.00     0.061 A 
HETATM   14  C   UNK N   1      22.638   9.095   4.253  0.00  0.00     0.004 A 
HETATM   15  C   UNK N   1      20.190  17.322   3.104  0.00  0.00    -0.021 A 
HETATM   16  C   UNK N   1      20.991  15.026   7.383  0.00  0.00    -0.021 A 
HETATM   17  C   UNK N   1      20.349  15.591   1.767  0.00  0.00     0.062 A 
HETATM   18  C   UNK N   1      21.532  13.054   6.613  0.00  0.00     0.066 A 
HETATM   19  C   UNK N   1      21.576  13.790   0.783  0.00  0.00     0.130 C 
HETATM   20  C   UNK N   1      22.251  10.894   5.549  0.00  0.00     0.070 A 
HETATM   21  C   UNK N   1      22.141  11.688   1.347  0.00  0.00     0.112 C 
HETATM   22  C   UNK N   1      22.321  10.176   3.456  0.00  0.00     0.066 A 
HETATM   23  C   UNK N   1      20.326  16.174   3.859  0.00  0.00     0.066 A 
HETATM   24  C   UNK N   1      20.858  15.035   6.018  0.00  0.00     0.066 A 
HETATM   25 Fe   UNK N   1      21.214  13.314   3.570  0.00  0.00     0.000 Fe
HETATM   26  N   UNK N   1      20.490  15.137   3.044  0.00  0.00    -0.248 N 
HETATM   27  N   UNK N   1      21.200  13.823   5.523  0.00  0.00    -0.248 N 
HETATM   28  N   UNK N   1      21.244  12.579   0.930  0.00  0.00    -0.227 NA
HETATM   29  N   UNK N   1      22.045  11.260   4.314  0.00  0.00    -0.248 N 
ENDROOT
BRANCH  15  30
HETATM   30  C   UNK N   1      20.290  18.701   3.603  0.00  0.00     0.052 C 
BRANCH  30  31
HETATM   31  C   UNK N   1      21.722  19.111   3.682  0.00  0.00     0.115 C 
BRANCH  31  32
HETATM   32  C   UNK N   1      21.779  20.463   3.103  0.00  0.00     0.139 C 
HETATM   33  O   UNK N   1      22.837  20.898   2.691  0.00  0.00    -0.650 OA
BRANCH  32  34
HETATM   34  O   UNK N   1      20.672  21.231   3.081  0.00  0.00    -0.776 OA
HETATM   35  H   UNK N   1      19.884  21.086   2.594  0.00  0.00     0.167 HD
ENDBRANCH  32  34
ENDBRANCH  31  32
ENDBRANCH  30  31
ENDBRANCH  15  30
BRANCH  16  36
HETATM   36  C   UNK N   1      20.873  16.200   8.242  0.00  0.00     0.052 C 
BRANCH  36  37
HETATM   37  C   UNK N   1      19.517  16.442   8.810  0.00  0.00     0.115 C 
BRANCH  37  38
HETATM   38  C   UNK N   1      19.487  17.916   8.786  0.00  0.00     0.139 C 
HETATM   39  O   UNK N   1      20.293  18.518   8.096  0.00  0.00    -0.650 OA
BRANCH  38  40
HETATM   40  O   UNK N   1      18.804  18.569   9.743  0.00  0.00    -0.776 OA
HETATM   41  H   UNK N   1      17.934  18.495  10.083  0.00  0.00     0.167 HD
ENDBRANCH  38  40
ENDBRANCH  37  38
ENDBRANCH  36  37
ENDBRANCH  16  36
BRANCH  11  42
HETATM   42  C   UNK N   1      23.066  14.913   2.455  0.00  0.00    -0.005 C 
HETATM   43  C   UNK N   1      23.970  14.784   3.418  0.00  0.00     0.011 C 
ENDBRANCH  11  42
BRANCH  12  44
HETATM   44  C   UNK N   1      22.938   8.750   6.783  0.00  0.00     0.004 C 
HETATM   45  C   UNK N   1      24.189   8.476   7.156  0.00  0.00     0.012 C 
ENDBRANCH  12  44
BRANCH  14  46
HETATM   46  C   UNK N   1      22.836   7.710   3.826  0.00  0.00     0.004 C 
HETATM   47  C   UNK N   1      21.799   6.882   3.725  0.00  0.00     0.012 C 
ENDBRANCH  14  46
TORSDOF 11
ENDMDL
MODEL 4
REMARK VINA RESULT:      -7.1      1.990      3.450
REMARK  11 active torsions:
REMARK  status: ('A' for Active; 'I' for Inactive)
REMARK    1  A    between atoms: C_21  and  C_7 
REMARK    2  A    between atoms: C_22  and  C_8 
REMARK    3  A    between atoms: C_24  and  C_10 
REMARK    4  A    between atoms: C_13  and  C_11 
REMARK    5  A    between atoms: C_25  and  C_11 
REMARK    6  A    between atoms: C_14  and  C_12 
REMARK    7  A    between atoms: C_26  and  C_12 
REMARK    8  A    between atoms: C_35  and  C_13 
REMARK    9  A    between atoms: C_36  and  C_14 
REMARK   10  A    between atoms: O_42  and  C_35 
REMARK   11  A    between atoms: O_44  and  C_36 
ROOT
HETATM    1  C   UNK N   1      24.720  14.928   6.736  0.00  0.00     0.007 C 
HETATM    2  C   UNK N   1      21.995  10.151   4.035  0.00  0.00     0.051 C 
HETATM    3  C   UNK N   1      22.608  19.919   3.299  0.00  0.00     0.051 C 
HETATM    4  C   UNK N   1      25.912  14.848   6.115  0.00  0.00    -0.026 A 
HETATM    5  C   UNK N   1      24.635  11.570   4.915  0.00  0.00     0.031 C 
HETATM    6  C   UNK N   1      25.018  18.385   4.035  0.00  0.00     0.064 A 
HETATM    7  C   UNK N   1      28.260  14.714   5.256  0.00  0.00     0.027 C 
HETATM    8  C   UNK N   1      21.501  15.167   3.745  0.00  0.00     0.064 C 
HETATM    9  C   UNK N   1      22.191  11.615   4.243  0.00  0.00    -0.025 A 
HETATM   10  C   UNK N   1      22.710  18.449   3.564  0.00  0.00    -0.025 A 
HETATM   11  C   UNK N   1      25.702  13.183   3.601  0.00  0.00    -0.048 C 
HETATM   12  C   UNK N   1      27.524  18.443   4.565  0.00  0.00     0.004 A 
HETATM   13  C   UNK N   1      26.495  14.210   4.323  0.00  0.00     0.061 A 
HETATM   14  C   UNK N   1      28.444  17.463   4.977  0.00  0.00     0.004 A 
HETATM   15  C   UNK N   1      21.342  12.636   3.850  0.00  0.00    -0.021 A 
HETATM   16  C   UNK N   1      21.713  17.527   3.436  0.00  0.00    -0.021 A 
HETATM   17  C   UNK N   1      23.340  12.222   4.653  0.00  0.00     0.062 A 
HETATM   18  C   UNK N   1      23.834  17.747   3.911  0.00  0.00     0.066 A 
HETATM   19  C   UNK N   1      25.725  12.212   4.478  0.00  0.00     0.130 C 
HETATM   20  C   UNK N   1      26.307  17.798   4.354  0.00  0.00     0.070 A 
HETATM   21  C   UNK N   1      27.398  13.683   4.777  0.00  0.00     0.112 C 
HETATM   22  C   UNK N   1      27.784  16.251   4.926  0.00  0.00     0.066 A 
HETATM   23  C   UNK N   1      21.991  13.830   4.097  0.00  0.00     0.066 A 
HETATM   24  C   UNK N   1      22.220  16.296   3.766  0.00  0.00     0.066 A 
HETATM   25 Fe   UNK N   1      24.765  14.895   4.564  0.00  0.00     0.000 Fe
HETATM   26  N   UNK N   1      23.224  13.573   4.519  0.00  0.00    -0.248 N 
HETATM   27  N   UNK N   1      23.537  16.412   4.053  0.00  0.00    -0.248 N 
HETATM   28  N   UNK N   1      26.468  12.865   5.265  0.00  0.00    -0.227 NA
HETATM   29  N   UNK N   1      26.445  16.520   4.577  0.00  0.00    -0.248 N 
ENDROOT
BRANCH  15  30
HETATM   30  C   UNK N   1      20.090  12.473   3.097  0.00  0.00     0.052 C 
BRANCH  30  31
HETATM   31  C   UNK N   1      20.368  12.514   1.633  0.00  0.00     0.115 C 
BRANCH  31  32
HETATM   32  C   UNK N   1      19.141  13.039   1.011  0.00  0.00     0.139 C 
HETATM   33  O   UNK N   1      18.726  12.540  -0.017  0.00  0.00    -0.650 OA
BRANCH  32  34
HETATM   34  O   UNK N   1      18.517  14.103   1.554  0.00  0.00    -0.776 OA
HETATM   35  H   UNK N   1      18.505  14.984   1.234  0.00  0.00     0.167 HD
ENDBRANCH  32  34
ENDBRANCH  31  32
ENDBRANCH  30  31
ENDBRANCH  15  30
BRANCH  16  36
HETATM   36  C   UNK N   1      20.373  17.764   2.908  0.00  0.00     0.052 C 
BRANCH  36  37
HETATM   37  C   UNK N   1      20.317  18.214   1.489  0.00  0.00     0.115 C 
BRANCH  37  38
HETATM   38  C   UNK N   1      19.875  16.965   0.841  0.00  0.00     0.139 C 
HETATM   39  O   UNK N   1      20.709  16.146   0.491  0.00  0.00    -0.650 OA
BRANCH  38  40
HETATM   40  O   UNK N   1      18.619  16.887   0.366  0.00  0.00    -0.776 OA
HETATM   41  H   UNK N   1      18.257  16.724  -0.483  0.00  0.00     0.167 HD
ENDBRANCH  38  40
ENDBRANCH  37  38
ENDBRANCH  36  37
ENDBRANCH  16  36
BRANCH  11  42
HETATM   42  C   UNK N   1      24.806  13.286   2.410  0.00  0.00    -0.005 C 
HETATM   43  C   UNK N   1      24.887  14.271   1.524  0.00  0.00     0.011 C 
ENDBRANCH  11  42
BRANCH  12  44
HETATM   44  C   UNK N   1      27.787  19.893   4.457  0.00  0.00     0.004 C 
HETATM   45  C   UNK N   1      27.539  20.729   5.467  0.00  0.00     0.012 C 
ENDBRANCH  12  44
BRANCH  14  46
HETATM   46  C   UNK N   1      29.804  17.709   5.455  0.00  0.00     0.004 C 
HETATM   47  C   UNK N   1      30.851  17.418   4.686  0.00  0.00     0.012 C 
ENDBRANCH  14  46
TORSDOF 11
ENDMDL
MODEL 5
REMARK VINA RESULT:      -6.9      8.382     13.219
REMARK  11 active torsions:
REMARK  status: ('A' for Active; 'I' for Inactive)
REMARK    1  A    between atoms: C_21  and  C_7 
REMARK    2  A    between atoms: C_22  and  C_8 
REMARK    3  A    between atoms: C_24  and  C_10 
REMARK    4  A    between atoms: C_13  and  C_11 
REMARK    5  A    between atoms: C_25  and  C_11 
REMARK    6  A    between atoms: C_14  and  C_12 
REMARK    7  A    between atoms: C_26  and  C_12 
REMARK    8  A    between atoms: C_35  and  C_13 
REMARK    9  A    between atoms: C_36  and  C_14 
REMARK   10  A    between atoms: O_42  and  C_35 
REMARK   11  A    between atoms: O_44  and  C_36 
ROOT
HETATM    1  C   UNK N   1      32.189  15.016   9.523  0.00  0.00     0.007 C 
HETATM    2  C   UNK N   1      36.247  14.013  14.002  0.00  0.00     0.051 C 
HETATM    3  C   UNK N   1      32.878   9.854   5.774  0.00  0.00     0.051 C 
HETATM    4  C   UNK N   1      32.943  15.827   8.755  0.00  0.00    -0.026 A 
HETATM    5  C   UNK N   1      35.224  15.848  11.691  0.00  0.00     0.031 C 
HETATM    6  C   UNK N   1      33.195  12.785   5.871  0.00  0.00     0.064 A 
HETATM    7  C   UNK N   1      34.092  17.533   7.330  0.00  0.00     0.027 C 
HETATM    8  C   UNK N   1      34.326  11.239  10.245  0.00  0.00     0.064 C 
HETATM    9  C   UNK N   1      35.471  13.583  12.802  0.00  0.00    -0.025 A 
HETATM   10  C   UNK N   1      33.273  10.691   6.950  0.00  0.00    -0.025 A 
HETATM   11  C   UNK N   1      35.869  15.553   9.462  0.00  0.00    -0.048 C 
HETATM   12  C   UNK N   1      33.040  15.006   4.603  0.00  0.00     0.004 A 
HETATM   13  C   UNK N   1      34.898  15.989   8.426  0.00  0.00     0.061 A 
HETATM   14  C   UNK N   1      33.210  16.348   4.988  0.00  0.00     0.004 A 
HETATM   15  C   UNK N   1      35.277  12.288  12.352  0.00  0.00    -0.021 A 
HETATM   16  C   UNK N   1      33.639  10.242   8.185  0.00  0.00    -0.021 A 
HETATM   17  C   UNK N   1      35.005  14.395  11.812  0.00  0.00     0.062 A 
HETATM   18  C   UNK N   1      33.412  12.055   6.985  0.00  0.00     0.066 A 
HETATM   19  C   UNK N   1      35.495  16.309  10.464  0.00  0.00     0.130 C 
HETATM   20  C   UNK N   1      33.334  14.223   5.717  0.00  0.00     0.070 A 
HETATM   21  C   UNK N   1      34.837  17.126   8.475  0.00  0.00     0.112 C 
HETATM   22  C   UNK N   1      33.675  16.334   6.287  0.00  0.00     0.066 A 
HETATM   23  C   UNK N   1      34.642  12.367  11.128  0.00  0.00     0.066 A 
HETATM   24  C   UNK N   1      33.932  11.330   8.969  0.00  0.00     0.066 A 
HETATM   25 Fe   UNK N   1      34.156  14.333   8.904  0.00  0.00     0.000 Fe
HETATM   26  N   UNK N   1      34.541  13.643  10.775  0.00  0.00    -0.248 N 
HETATM   27  N   UNK N   1      33.807  12.460   8.238  0.00  0.00    -0.248 N 
HETATM   28  N   UNK N   1      34.616  16.893   9.767  0.00  0.00    -0.227 NA
HETATM   29  N   UNK N   1      33.691  14.990   6.710  0.00  0.00    -0.248 N 
ENDROOT
BRANCH  15  30
HETATM   30  C   UNK N   1      35.848  11.073  12.952  0.00  0.00     0.052 C 
BRANCH  30  31
HETATM   31  C   UNK N   1      34.756  10.125  13.316  0.00  0.00     0.115 C 
BRANCH  31  32
HETATM   32  C   UNK N   1      34.208  10.623  14.588  0.00  0.00     0.139 C 
HETATM   33  O   UNK N   1      33.016  10.840  14.687  0.00  0.00    -0.650 OA
BRANCH  32  34
HETATM   34  O   UNK N   1      35.037  10.887  15.618  0.00  0.00    -0.776 OA
HETATM   35  H   UNK N   1      34.872  10.762  16.532  0.00  0.00     0.167 HD
ENDBRANCH  32  34
ENDBRANCH  31  32
ENDBRANCH  30  31
ENDBRANCH  15  30
BRANCH  16  36
HETATM   36  C   UNK N   1      33.829   8.851   8.582  0.00  0.00     0.052 C 
BRANCH  36  37
HETATM   37  C   UNK N   1      32.882   8.348   9.616  0.00  0.00     0.115 C 
BRANCH  37  38
HETATM   38  C   UNK N   1      31.715   8.042   8.768  0.00  0.00     0.139 C 
HETATM   39  O   UNK N   1      31.816   7.192   7.898  0.00  0.00    -0.650 OA
BRANCH  38  40
HETATM   40  O   UNK N   1      30.680   8.901   8.748  0.00  0.00    -0.776 OA
HETATM   41  H   UNK N   1      29.894   8.956   8.242  0.00  0.00     0.167 HD
ENDBRANCH  38  40
ENDBRANCH  37  38
ENDBRANCH  36  37
ENDBRANCH  16  36
BRANCH  11  42
HETATM   42  C   UNK N   1      36.770  14.365   9.532  0.00  0.00    -0.005 C 
HETATM   43  C   UNK N   1      37.208  13.722   8.457  0.00  0.00     0.011 C 
ENDBRANCH  11  42
BRANCH  12  44
HETATM   44  C   UNK N   1      32.562  14.531   3.288  0.00  0.00     0.004 C 
HETATM   45  C   UNK N   1      31.272  14.280   3.058  0.00  0.00     0.012 C 
ENDBRANCH  12  44
BRANCH  14  46
HETATM   46  C   UNK N   1      32.864  17.522   4.185  0.00  0.00     0.004 C 
HETATM   47  C   UNK N   1      31.597  17.910   4.072  0.00  0.00     0.012 C 
ENDBRANCH  14  46
TORSDOF 11
ENDMDL
MODEL 6
REMARK VINA RESULT:      -6.9      8.632     12.337
REMARK  11 active torsions:
REMARK  status: ('A' for Active; 'I' for Inactive)
REMARK    1  A    between atoms: C_21  and  C_7 
REMARK    2  A    between atoms: C_22  and  C_8 
REMARK    3  A    between atoms: C_24  and  C_10 
REMARK    4  A    between atoms: C_13  and  C_11 
REMARK    5  A    between atoms: C_25  and  C_11 
REMARK    6  A    between atoms: C_14  and  C_12 
REMARK    7  A    between atoms: C_26  and  C_12 
REMARK    8  A    between atoms: C_35  and  C_13 
REMARK    9  A    between atoms: C_36  and  C_14 
REMARK   10  A    between atoms: O_42  and  C_35 
REMARK   11  A    between atoms: O_44  and  C_36 
ROOT
HETATM    1  C   UNK N   1      36.701  14.184   8.567  0.00  0.00     0.007 C 
HETATM    2  C   UNK N   1      33.234  17.643   4.886  0.00  0.00     0.051 C 
HETATM    3  C   UNK N   1      33.381   8.704   8.936  0.00  0.00     0.051 C 
HETATM    4  C   UNK N   1      36.271  14.667   9.749  0.00  0.00    -0.026 A 
HETATM    5  C   UNK N   1      34.629  17.262   7.654  0.00  0.00     0.031 C 
HETATM    6  C   UNK N   1      34.364  11.002  10.503  0.00  0.00     0.064 A 
HETATM    7  C   UNK N   1      35.785  15.602  12.019  0.00  0.00     0.027 C 
HETATM    8  C   UNK N   1      33.269  12.769   6.204  0.00  0.00     0.064 C 
HETATM    9  C   UNK N   1      33.586  16.346   5.533  0.00  0.00    -0.025 A 
HETATM   10  C   UNK N   1      33.541  10.120   8.479  0.00  0.00    -0.025 A 
HETATM   11  C   UNK N   1      33.631  16.102   9.423  0.00  0.00    -0.048 C 
HETATM   12  C   UNK N   1      35.285  11.840  12.743  0.00  0.00     0.004 A 
HETATM   13  C   UNK N   1      34.549  15.434  10.382  0.00  0.00     0.061 A 
HETATM   14  C   UNK N   1      35.757  13.089  13.182  0.00  0.00     0.004 A 
HETATM   15  C   UNK N   1      33.146  15.084   5.170  0.00  0.00    -0.021 A 
HETATM   16  C   UNK N   1      33.185  10.630   7.264  0.00  0.00    -0.021 A 
HETATM   17  C   UNK N   1      34.219  16.190   6.730  0.00  0.00     0.062 A 
HETATM   18  C   UNK N   1      34.005  11.180   9.214  0.00  0.00     0.066 A 
HETATM   19  C   UNK N   1      34.421  17.036   8.957  0.00  0.00     0.130 C 
HETATM   20  C   UNK N   1      34.834  12.012  11.435  0.00  0.00     0.070 A 
HETATM   21  C   UNK N   1      35.096  16.254  10.954  0.00  0.00     0.112 C 
HETATM   22  C   UNK N   1      35.507  13.989  12.166  0.00  0.00     0.066 A 
HETATM   23  C   UNK N   1      33.586  14.200   6.135  0.00  0.00     0.066 A 
HETATM   24  C   UNK N   1      33.492  11.967   7.252  0.00  0.00     0.066 A 
HETATM   25 Fe   UNK N   1      34.568  14.189   8.979  0.00  0.00     0.000 Fe
HETATM   26  N   UNK N   1      34.175  14.882   7.110  0.00  0.00    -0.248 N 
HETATM   27  N   UNK N   1      33.991  12.327   8.456  0.00  0.00    -0.248 N 
HETATM   28  N   UNK N   1      35.364  16.702   9.730  0.00  0.00    -0.227 NA
HETATM   29  N   UNK N   1      34.974  13.261  11.085  0.00  0.00    -0.248 N 
ENDROOT
BRANCH  15  30
HETATM   30  C   UNK N   1      32.195  14.781   4.090  0.00  0.00     0.052 C 
BRANCH  30  31
HETATM   31  C   UNK N   1      32.932  14.552   2.814  0.00  0.00     0.115 C 
BRANCH  31  32
HETATM   32  C   UNK N   1      32.574  13.188   2.390  0.00  0.00     0.139 C 
HETATM   33  O   UNK N   1      31.450  12.771   2.588  0.00  0.00    -0.650 OA
BRANCH  32  34
HETATM   34  O   UNK N   1      33.509  12.392   1.835  0.00  0.00    -0.776 OA
HETATM   35  H   UNK N   1      34.311  12.097   2.220  0.00  0.00     0.167 HD
ENDBRANCH  32  34
ENDBRANCH  31  32
ENDBRANCH  30  31
ENDBRANCH  15  30
BRANCH  16  36
HETATM   36  C   UNK N   1      32.473   9.926   6.202  0.00  0.00     0.052 C 
BRANCH  36  37
HETATM   37  C   UNK N   1      33.305   9.005   5.378  0.00  0.00     0.115 C 
BRANCH  37  38
HETATM   38  C   UNK N   1      33.333   9.753   4.107  0.00  0.00     0.139 C 
HETATM   39  O   UNK N   1      34.348  10.352   3.790  0.00  0.00    -0.650 OA
BRANCH  38  40
HETATM   40  O   UNK N   1      32.172  10.025   3.485  0.00  0.00    -0.776 OA
HETATM   41  H   UNK N   1      31.904  10.032   2.588  0.00  0.00     0.167 HD
ENDBRANCH  38  40
ENDBRANCH  37  38
ENDBRANCH  36  37
ENDBRANCH  16  36
BRANCH  11  42
HETATM   42  C   UNK N   1      32.326  15.668   8.841  0.00  0.00    -0.005 C 
HETATM   43  C   UNK N   1      31.278  16.474   8.731  0.00  0.00     0.011 C 
ENDBRANCH  11  42
BRANCH  12  44
HETATM   44  C   UNK N   1      35.335  10.574  13.502  0.00  0.00     0.004 C 
HETATM   45  C   UNK N   1      34.331  10.190  14.293  0.00  0.00     0.012 C 
ENDBRANCH  12  44
BRANCH  14  46
HETATM   46  C   UNK N   1      36.462  13.347  14.438  0.00  0.00     0.004 C 
HETATM   47  C   UNK N   1      35.790  13.421  15.584  0.00  0.00     0.012 C 
ENDBRANCH  14  46
TORSDOF 11
ENDMDL
MODEL 7
REMARK VINA RESULT:      -6.8      1.831      2.842
REMARK  11 active torsions:
REMARK  status: ('A' for Active; 'I' for Inactive)
REMARK    1  A    between atoms: C_21  and  C_7 
REMARK    2  A    between atoms: C_22  and  C_8 
REMARK    3  A    between atoms: C_24  and  C_10 
REMARK    4  A    between atoms: C_13  and  C_11 
REMARK    5  A    between atoms: C_25  and  C_11 
REMARK    6  A    between atoms: C_14  and  C_12 
REMARK    7  A    between atoms: C_26  and  C_12 
REMARK    8  A    between atoms: C_35  and  C_13 
REMARK    9  A    between atoms: C_36  and  C_14 
REMARK   10  A    between atoms: O_42  and  C_35 
REMARK   11  A    between atoms: O_44  and  C_36 
ROOT
HETATM    1  C   UNK N   1      24.620  13.987   6.983  0.00  0.00     0.007 C 
HETATM    2  C   UNK N   1      19.321  15.918   4.590  0.00  0.00     0.051 C 
HETATM    3  C   UNK N   1      28.854  18.251   4.730  0.00  0.00     0.051 C 
HETATM    4  C   UNK N   1      24.909  13.036   6.073  0.00  0.00    -0.026 A 
HETATM    5  C   UNK N   1      21.431  13.637   4.908  0.00  0.00     0.031 C 
HETATM    6  C   UNK N   1      28.077  15.406   4.666  0.00  0.00     0.064 A 
HETATM    7  C   UNK N   1      25.491  11.072   4.635  0.00  0.00     0.027 C 
HETATM    8  C   UNK N   1      23.977  17.838   4.954  0.00  0.00     0.064 C 
HETATM    9  C   UNK N   1      20.773  16.086   4.891  0.00  0.00    -0.025 A 
HETATM   10  C   UNK N   1      27.473  17.680   4.808  0.00  0.00    -0.025 A 
HETATM   11  C   UNK N   1      23.318  13.460   3.539  0.00  0.00    -0.048 C 
HETATM   12  C   UNK N   1      28.856  12.968   4.542  0.00  0.00     0.004 A 
HETATM   13  C   UNK N   1      24.515  12.814   4.136  0.00  0.00     0.061 A 
HETATM   14  C   UNK N   1      28.178  11.737   4.602  0.00  0.00     0.004 A 
HETATM   15  C   UNK N   1      21.509  17.257   4.835  0.00  0.00    -0.021 A 
HETATM   16  C   UNK N   1      26.302  18.379   4.845  0.00  0.00    -0.021 A 
HETATM   17  C   UNK N   1      21.681  15.082   5.054  0.00  0.00     0.062 A 
HETATM   18  C   UNK N   1      27.124  16.354   4.783  0.00  0.00     0.066 A 
HETATM   19  C   UNK N   1      22.375  12.930   4.276  0.00  0.00     0.130 C 
HETATM   20  C   UNK N   1      27.887  13.969   4.583  0.00  0.00     0.070 A 
HETATM   21  C   UNK N   1      24.265  11.712   4.288  0.00  0.00     0.112 C 
HETATM   22  C   UNK N   1      26.829  12.025   4.597  0.00  0.00     0.066 A 
HETATM   23  C   UNK N   1      22.835  16.921   5.029  0.00  0.00     0.066 A 
HETATM   24  C   UNK N   1      25.266  17.481   4.906  0.00  0.00     0.066 A 
HETATM   25 Fe   UNK N   1      24.655  14.531   4.880  0.00  0.00     0.000 Fe
HETATM   26  N   UNK N   1      22.941  15.599   5.094  0.00  0.00    -0.248 N 
HETATM   27  N   UNK N   1      25.757  16.222   4.858  0.00  0.00    -0.248 N 
HETATM   28  N   UNK N   1      23.198  12.210   4.910  0.00  0.00    -0.227 NA
HETATM   29  N   UNK N   1      26.701  13.428   4.631  0.00  0.00    -0.248 N 
ENDROOT
BRANCH  15  30
HETATM   30  C   UNK N   1      21.004  18.572   4.414  0.00  0.00     0.052 C 
BRANCH  30  31
HETATM   31  C   UNK N   1      21.117  18.709   2.933  0.00  0.00     0.115 C 
BRANCH  31  32
HETATM   32  C   UNK N   1      21.161  20.157   2.672  0.00  0.00     0.139 C 
HETATM   33  O   UNK N   1      20.563  20.921   3.406  0.00  0.00    -0.650 OA
BRANCH  32  34
HETATM   34  O   UNK N   1      21.817  20.624   1.591  0.00  0.00    -0.776 OA
HETATM   35  H   UNK N   1      22.160  21.486   1.458  0.00  0.00     0.167 HD
ENDBRANCH  32  34
ENDBRANCH  31  32
ENDBRANCH  30  31
ENDBRANCH  15  30
BRANCH  16  36
HETATM   36  C   UNK N   1      26.148  19.823   4.703  0.00  0.00     0.052 C 
BRANCH  36  37
HETATM   37  C   UNK N   1      26.479  20.371   3.358  0.00  0.00     0.115 C 
BRANCH  37  38
HETATM   38  C   UNK N   1      25.121  20.543   2.810  0.00  0.00     0.139 C 
HETATM   39  O   UNK N   1      24.965  20.569   1.600  0.00  0.00    -0.650 OA
BRANCH  38  40
HETATM   40  O   UNK N   1      24.141  20.980   3.621  0.00  0.00    -0.776 OA
HETATM   41  H   UNK N   1      23.958  21.803   4.030  0.00  0.00     0.167 HD
ENDBRANCH  38  40
ENDBRANCH  37  38
ENDBRANCH  36  37
ENDBRANCH  16  36
BRANCH  11  42
HETATM   42  C   UNK N   1      23.182  14.639   2.633  0.00  0.00    -0.005 C 
HETATM   43  C   UNK N   1      23.019  14.531   1.320  0.00  0.00     0.011 C 
ENDBRANCH  11  42
BRANCH  12  44
HETATM   44  C   UNK N   1      30.321  13.155   4.520  0.00  0.00     0.004 C 
HETATM   45  C   UNK N   1      30.991  13.316   3.377  0.00  0.00     0.012 C 
ENDBRANCH  12  44
BRANCH  14  46
HETATM   46  C   UNK N   1      28.801  10.421   4.740  0.00  0.00     0.004 C 
HETATM   47  C   UNK N   1      29.006   9.658   3.669  0.00  0.00     0.012 C 
ENDBRANCH  14  46
TORSDOF 11
ENDMDL
MODEL 8
REMARK VINA RESULT:      -6.8      1.918      5.445
REMARK  11 active torsions:
REMARK  status: ('A' for Active; 'I' for Inactive)
REMARK    1  A    between atoms: C_21  and  C_7 
REMARK    2  A    between atoms: C_22  and  C_8 
REMARK    3  A    between atoms: C_24  and  C_10 
REMARK    4  A    between atoms: C_13  and  C_11 
REMARK    5  A    between atoms: C_25  and  C_11 
REMARK    6  A    between atoms: C_14  and  C_12 
REMARK    7  A    between atoms: C_26  and  C_12 
REMARK    8  A    between atoms: C_35  and  C_13 
REMARK    9  A    between atoms: C_36  and  C_14 
REMARK   10  A    between atoms: O_42  and  C_35 
REMARK   11  A    between atoms: O_44  and  C_36 
ROOT
HETATM    1  C   UNK N   1      29.681  16.403   2.731  0.00  0.00     0.007 C 
HETATM    2  C   UNK N   1      26.324  20.662   5.582  0.00  0.00     0.051 C 
HETATM    3  C   UNK N   1      25.338  11.929   1.210  0.00  0.00     0.051 C 
HETATM    4  C   UNK N   1      30.143  15.759   3.820  0.00  0.00    -0.026 A 
HETATM    5  C   UNK N   1      28.714  18.653   5.664  0.00  0.00     0.031 C 
HETATM    6  C   UNK N   1      27.746  12.456   2.831  0.00  0.00     0.064 A 
HETATM    7  C   UNK N   1      31.296  14.594   5.713  0.00  0.00     0.027 C 
HETATM    8  C   UNK N   1      25.285  16.548   2.846  0.00  0.00     0.064 C 
HETATM    9  C   UNK N   1      26.467  19.417   4.773  0.00  0.00    -0.025 A 
HETATM   10  C   UNK N   1      25.732  13.214   1.871  0.00  0.00    -0.025 A 
HETATM   11  C   UNK N   1      28.454  16.402   6.243  0.00  0.00    -0.048 C 
HETATM   12  C   UNK N   1      29.933  11.530   3.794  0.00  0.00     0.004 A 
HETATM   13  C   UNK N   1      29.423  15.446   5.648  0.00  0.00     0.061 A 
HETATM   14  C   UNK N   1      30.978  12.108   4.536  0.00  0.00     0.004 A 
HETATM   15  C   UNK N   1      25.482  18.781   4.035  0.00  0.00    -0.021 A 
HETATM   16  C   UNK N   1      25.004  14.367   1.910  0.00  0.00    -0.021 A 
HETATM   17  C   UNK N   1      27.526  18.560   4.797  0.00  0.00     0.062 A 
HETATM   18  C   UNK N   1      26.857  13.449   2.617  0.00  0.00     0.066 A 
HETATM   19  C   UNK N   1      29.156  17.506   6.194  0.00  0.00     0.130 C 
HETATM   20  C   UNK N   1      28.962  12.515   3.623  0.00  0.00     0.070 A 
HETATM   21  C   UNK N   1      30.441  15.663   6.113  0.00  0.00     0.112 C 
HETATM   22  C   UNK N   1      30.577  13.388   4.859  0.00  0.00     0.066 A 
HETATM   23  C   UNK N   1      26.009  17.586   3.587  0.00  0.00     0.066 A 
HETATM   24  C   UNK N   1      25.717  15.302   2.619  0.00  0.00     0.066 A 
HETATM   25 Fe   UNK N   1      28.253  15.679   4.200  0.00  0.00     0.000 Fe
HETATM   26  N   UNK N   1      27.221  17.426   4.106  0.00  0.00    -0.248 N 
HETATM   27  N   UNK N   1      26.863  14.746   3.073  0.00  0.00    -0.248 N 
HETATM   28  N   UNK N   1      30.168  16.908   5.729  0.00  0.00    -0.227 NA
HETATM   29  N   UNK N   1      29.336  13.608   4.229  0.00  0.00    -0.248 N 
ENDROOT
BRANCH  15  30
HETATM   30  C   UNK N   1      24.073  19.192   3.946  0.00  0.00     0.052 C 
BRANCH  30  31
HETATM   31  C   UNK N   1      23.923  20.272   2.928  0.00  0.00     0.115 C 
BRANCH  31  32
HETATM   32  C   UNK N   1      22.473  20.497   2.802  0.00  0.00     0.139 C 
HETATM   33  O   UNK N   1      21.722  19.546   2.697  0.00  0.00    -0.650 OA
BRANCH  32  34
HETATM   34  O   UNK N   1      21.992  21.755   2.747  0.00  0.00    -0.776 OA
HETATM   35  H   UNK N   1      21.095  22.024   2.723  0.00  0.00     0.167 HD
ENDBRANCH  32  34
ENDBRANCH  31  32
ENDBRANCH  30  31
ENDBRANCH  15  30
BRANCH  16  36
HETATM   36  C   UNK N   1      23.644  14.553   1.414  0.00  0.00     0.052 C 
BRANCH  36  37
HETATM   37  C   UNK N   1      22.561  14.190   2.370  0.00  0.00     0.115 C 
BRANCH  37  38
HETATM   38  C   UNK N   1      21.734  15.409   2.296  0.00  0.00     0.139 C 
HETATM   39  O   UNK N   1      21.766  16.209   3.217  0.00  0.00    -0.650 OA
BRANCH  38  40
HETATM   40  O   UNK N   1      20.741  15.468   1.391  0.00  0.00    -0.776 OA
HETATM   41  H   UNK N   1      20.597  15.980   0.620  0.00  0.00     0.167 HD
ENDBRANCH  38  40
ENDBRANCH  37  38
ENDBRANCH  36  37
ENDBRANCH  16  36
BRANCH  11  42
HETATM   42  C   UNK N   1      26.985  16.291   6.491  0.00  0.00    -0.005 C 
HETATM   43  C   UNK N   1      26.350  15.128   6.577  0.00  0.00     0.011 C 
ENDBRANCH  11  42
BRANCH  12  44
HETATM   44  C   UNK N   1      29.913  10.162   3.236  0.00  0.00     0.004 C 
HETATM   45  C   UNK N   1      30.386   9.894   2.017  0.00  0.00     0.012 C 
ENDBRANCH  12  44
BRANCH  14  46
HETATM   46  C   UNK N   1      32.273  11.489   4.819  0.00  0.00     0.004 C 
HETATM   47  C   UNK N   1      33.356  11.850   4.135  0.00  0.00     0.012 C 
ENDBRANCH  14  46
TORSDOF 11
ENDMDL
MODEL 9
REMARK VINA RESULT:      -6.6      8.054     12.124
REMARK  11 active torsions:
REMARK  status: ('A' for Active; 'I' for Inactive)
REMARK    1  A    between atoms: C_21  and  C_7 
REMARK    2  A    between atoms: C_22  and  C_8 
REMARK    3  A    between atoms: C_24  and  C_10 
REMARK    4  A    between atoms: C_13  and  C_11 
REMARK    5  A    between atoms: C_25  and  C_11 
REMARK    6  A    between atoms: C_14  and  C_12 
REMARK    7  A    between atoms: C_26  and  C_12 
REMARK    8  A    between atoms: C_35  and  C_13 
REMARK    9  A    between atoms: C_36  and  C_14 
REMARK   10  A    between atoms: O_42  and  C_35 
REMARK   11  A    between atoms: O_44  and  C_36 
ROOT
HETATM    1  C   UNK N   1      33.479  17.238   4.703  0.00  0.00     0.007 C 
HETATM    2  C   UNK N   1      36.187  12.587   1.776  0.00  0.00     0.051 C 
HETATM    3  C   UNK N   1      34.437  15.801  10.884  0.00  0.00     0.051 C 
HETATM    4  C   UNK N   1      32.212  16.781   4.665  0.00  0.00    -0.026 A 
HETATM    5  C   UNK N   1      33.602  14.254   2.319  0.00  0.00     0.031 C 
HETATM    6  C   UNK N   1      32.363  16.158   8.816  0.00  0.00     0.064 A 
HETATM    7  C   UNK N   1      29.780  16.220   4.480  0.00  0.00     0.027 C 
HETATM    8  C   UNK N   1      36.096  14.223   6.552  0.00  0.00     0.064 C 
HETATM    9  C   UNK N   1      35.877  13.371   3.007  0.00  0.00    -0.025 A 
HETATM   10  C   UNK N   1      34.537  15.481   9.425  0.00  0.00    -0.025 A 
HETATM   11  C   UNK N   1      32.164  13.810   4.109  0.00  0.00    -0.048 C 
HETATM   12  C   UNK N   1      29.992  16.959   8.266  0.00  0.00     0.004 A 
HETATM   13  C   UNK N   1      31.402  14.964   4.651  0.00  0.00     0.061 A 
HETATM   14  C   UNK N   1      29.264  17.060   7.067  0.00  0.00     0.004 A 
HETATM   15  C   UNK N   1      36.534  13.312   4.224  0.00  0.00    -0.021 A 
HETATM   16  C   UNK N   1      35.588  14.887   8.790  0.00  0.00    -0.021 A 
HETATM   17  C   UNK N   1      34.758  14.118   3.224  0.00  0.00     0.062 A 
HETATM   18  C   UNK N   1      33.568  15.657   8.471  0.00  0.00     0.066 A 
HETATM   19  C   UNK N   1      32.392  14.235   2.891  0.00  0.00     0.130 C 
HETATM   20  C   UNK N   1      31.215  16.371   7.951  0.00  0.00     0.070 A 
HETATM   21  C   UNK N   1      30.650  15.279   3.854  0.00  0.00     0.112 C 
HETATM   22  C   UNK N   1      30.028  16.463   6.085  0.00  0.00     0.066 A 
HETATM   23  C   UNK N   1      35.816  14.080   5.119  0.00  0.00     0.066 A 
HETATM   24  C   UNK N   1      35.276  14.767   7.459  0.00  0.00     0.066 A 
HETATM   25 Fe   UNK N   1      33.066  15.248   5.469  0.00  0.00     0.000 Fe
HETATM   26  N   UNK N   1      34.707  14.509   4.528  0.00  0.00    -0.248 N 
HETATM   27  N   UNK N   1      34.024  15.229   7.246  0.00  0.00    -0.248 N 
HETATM   28  N   UNK N   1      31.730  15.295   3.077  0.00  0.00    -0.227 NA
HETATM   29  N   UNK N   1      31.252  16.092   6.677  0.00  0.00    -0.248 N 
ENDROOT
BRANCH  15  30
HETATM   30  C   UNK N   1      37.650  12.413   4.557  0.00  0.00     0.052 C 
BRANCH  30  31
HETATM   31  C   UNK N   1      38.941  13.030   4.136  0.00  0.00     0.115 C 
BRANCH  31  32
HETATM   32  C   UNK N   1      39.430  13.767   5.314  0.00  0.00     0.139 C 
HETATM   33  O   UNK N   1      39.540  13.194   6.381  0.00  0.00    -0.650 OA
BRANCH  32  34
HETATM   34  O   UNK N   1      39.699  15.084   5.216  0.00  0.00    -0.776 OA
HETATM   35  H   UNK N   1      39.424  15.676   4.543  0.00  0.00     0.167 HD
ENDBRANCH  32  34
ENDBRANCH  31  32
ENDBRANCH  30  31
ENDBRANCH  15  30
BRANCH  16  36
HETATM   36  C   UNK N   1      36.785  14.340   9.420  0.00  0.00     0.052 C 
BRANCH  36  37
HETATM   37  C   UNK N   1      36.641  12.968   9.982  0.00  0.00     0.115 C 
BRANCH  37  38
HETATM   38  C   UNK N   1      37.611  13.041  11.090  0.00  0.00     0.139 C 
HETATM   39  O   UNK N   1      37.207  12.992  12.241  0.00  0.00    -0.650 OA
BRANCH  38  40
HETATM   40  O   UNK N   1      38.860  13.471  10.836  0.00  0.00    -0.776 OA
HETATM   41  H   UNK N   1      39.358  13.584  10.051  0.00  0.00     0.167 HD
ENDBRANCH  38  40
ENDBRANCH  37  38
ENDBRANCH  36  37
ENDBRANCH  16  36
BRANCH  11  42
HETATM   42  C   UNK N   1      32.827  12.658   4.789  0.00  0.00    -0.005 C 
HETATM   43  C   UNK N   1      32.570  11.391   4.485  0.00  0.00     0.011 C 
ENDBRANCH  11  42
BRANCH  12  44
HETATM   44  C   UNK N   1      29.564  17.457   9.589  0.00  0.00     0.004 C 
HETATM   45  C   UNK N   1      29.711  18.737   9.939  0.00  0.00     0.012 C 
ENDBRANCH  12  44
BRANCH  14  46
HETATM   46  C   UNK N   1      27.987  17.753   6.894  0.00  0.00     0.004 C 
HETATM   47  C   UNK N   1      27.960  19.038   6.550  0.00  0.00     0.012 C 
ENDBRANCH  14  46
TORSDOF 11
ENDMDL
