MODEL 1
REMARK VINA RESULT:      -4.3      0.000      0.000
REMARK  6 active torsions:
REMARK  status: ('A' for Active; 'I' for Inactive)
REMARK    1  A    between atoms: O_1  and  C_2 
REMARK    2  A    between atoms: C_2  and  C_3 
REMARK    3  A    between atoms: C_3  and  N_9 
REMARK    4  A    between atoms: C_3  and  C_5 
REMARK    5  A    between atoms: S_4  and  C_6 
REMARK    6  A    between atoms: C_5  and  C_6 
ROOT
HETATM    1  C   UNK N   1      34.332  17.145   9.177  0.00  0.00     0.174 C 
ENDROOT
BRANCH   1   2
HETATM    2  C   UNK N   1      34.706  18.217   8.186  0.00  0.00     0.163 C 
HETATM    3  O   UNK N   1      35.291  19.221   8.561  0.00  0.00    -0.648 OA
BRANCH   2   4
HETATM    4  O   UNK N   1      34.425  18.065   6.876  0.00  0.00    -0.775 OA
HETATM    5  H   UNK N   1      34.946  17.535   6.306  0.00  0.00     0.167 HD
ENDBRANCH   2   4
ENDBRANCH   1   2
BRANCH   1   6
HETATM    6  N   UNK N   1      35.028  17.355  10.437  0.00  0.00    -0.418 N 
HETATM    7  H   UNK N   1      34.522  17.658  11.269  0.00  0.00     0.150 HD
HETATM    8  H   UNK N   1      36.034  17.196  10.489  0.00  0.00     0.150 HD
ENDBRANCH   1   6
BRANCH   1   9
HETATM    9  C   UNK N   1      34.649  15.751   8.656  0.00  0.00     0.048 C 
BRANCH   9  10
HETATM   10  C   UNK N   1      35.611  15.052   9.602  0.00  0.00     0.111 C 
BRANCH  10  11
HETATM   11  S   UNK N   1      34.768  13.687  10.453  0.00  0.00     0.010 S 
HETATM   12  O   UNK N   1      34.282  14.617  11.576  0.00  0.00    -0.258 OA
HETATM   13  C   UNK N   1      36.259  13.238  11.383  0.00  0.00     0.127 C 
ENDBRANCH  10  11
ENDBRANCH   9  10
ENDBRANCH   1   9
TORSDOF 6
ENDMDL
MODEL 2
REMARK VINA RESULT:      -4.2     12.993     13.947
REMARK  6 active torsions:
REMARK  status: ('A' for Active; 'I' for Inactive)
REMARK    1  A    between atoms: O_1  and  C_2 
REMARK    2  A    between atoms: C_2  and  C_3 
REMARK    3  A    between atoms: C_3  and  N_9 
REMARK    4  A    between atoms: C_3  and  C_5 
REMARK    5  A    between atoms: S_4  and  C_6 
REMARK    6  A    between atoms: C_5  and  C_6 
ROOT
HETATM    1  C   UNK N   1      22.478  12.410  11.309  0.00  0.00     0.174 C 
ENDROOT
BRANCH   1   2
HETATM    2  C   UNK N   1      23.689  12.180  12.178  0.00  0.00     0.163 C 
HETATM    3  O   UNK N   1      23.554  11.959  13.371  0.00  0.00    -0.648 OA
BRANCH   2   4
HETATM    4  O   UNK N   1      24.926  12.188  11.642  0.00  0.00    -0.775 OA
HETATM    5  H   UNK N   1      25.586  11.570  11.887  0.00  0.00     0.167 HD
ENDBRANCH   2   4
ENDBRANCH   1   2
BRANCH   1   6
HETATM    6  N   UNK N   1      21.326  11.707  11.850  0.00  0.00    -0.418 N 
HETATM    7  H   UNK N   1      21.445  10.880  12.435  0.00  0.00     0.150 HD
HETATM    8  H   UNK N   1      20.387  12.045  11.640  0.00  0.00     0.150 HD
ENDBRANCH   1   6
BRANCH   1   9
HETATM    9  C   UNK N   1      22.713  11.959   9.874  0.00  0.00     0.048 C 
BRANCH   9  10
HETATM   10  C   UNK N   1      21.603  12.487   8.980  0.00  0.00     0.111 C 
BRANCH  10  11
HETATM   11  S   UNK N   1      21.161  14.179   9.466  0.00  0.00     0.010 S 
HETATM   12  O   UNK N   1      19.725  13.759   9.816  0.00  0.00    -0.258 OA
HETATM   13  C   UNK N   1      20.685  14.627   7.774  0.00  0.00     0.127 C 
ENDBRANCH  10  11
ENDBRANCH   9  10
ENDBRANCH   1   9
TORSDOF 6
ENDMDL
MODEL 3
REMARK VINA RESULT:      -4.1     14.794     15.524
REMARK  6 active torsions:
REMARK  status: ('A' for Active; 'I' for Inactive)
REMARK    1  A    between atoms: O_1  and  C_2 
REMARK    2  A    between atoms: C_2  and  C_3 
REMARK    3  A    between atoms: C_3  and  N_9 
REMARK    4  A    between atoms: C_3  and  C_5 
REMARK    5  A    between atoms: S_4  and  C_6 
REMARK    6  A    between atoms: C_5  and  C_6 
ROOT
HETATM    1  C   UNK N   1      20.486  19.094   2.362  0.00  0.00     0.174 C 
ENDROOT
BRANCH   1   2
HETATM    2  C   UNK N   1      20.793  20.177   1.360  0.00  0.00     0.163 C 
HETATM    3  O   UNK N   1      21.222  21.257   1.737  0.00  0.00    -0.648 OA
BRANCH   2   4
HETATM    4  O   UNK N   1      20.626  19.955   0.041  0.00  0.00    -0.775 OA
HETATM    5  H   UNK N   1      20.360  20.628  -0.554  0.00  0.00     0.167 HD
ENDBRANCH   2   4
ENDBRANCH   1   2
BRANCH   1   6
HETATM    6  N   UNK N   1      19.081  18.724   2.297  0.00  0.00    -0.418 N 
HETATM    7  H   UNK N   1      18.397  19.346   1.866  0.00  0.00     0.150 HD
HETATM    8  H   UNK N   1      18.777  17.833   2.687  0.00  0.00     0.150 HD
ENDBRANCH   1   6
BRANCH   1   9
HETATM    9  C   UNK N   1      20.827  19.519   3.784  0.00  0.00     0.048 C 
BRANCH   9  10
HETATM   10  C   UNK N   1      21.870  18.582   4.367  0.00  0.00     0.111 C 
BRANCH  10  11
HETATM   11  S   UNK N   1      21.118  17.521   5.634  0.00  0.00     0.010 S 
HETATM   12  O   UNK N   1      21.400  18.550   6.739  0.00  0.00    -0.258 OA
HETATM   13  C   UNK N   1      22.681  16.656   5.954  0.00  0.00     0.127 C 
ENDBRANCH  10  11
ENDBRANCH   9  10
ENDBRANCH   1   9
TORSDOF 6
ENDMDL
MODEL 4
REMARK VINA RESULT:      -4.1      3.273      4.286
REMARK  6 active torsions:
REMARK  status: ('A' for Active; 'I' for Inactive)
REMARK    1  A    between atoms: O_1  and  C_2 
REMARK    2  A    between atoms: C_2  and  C_3 
REMARK    3  A    between atoms: C_3  and  N_9 
REMARK    4  A    between atoms: C_3  and  C_5 
REMARK    5  A    between atoms: S_4  and  C_6 
REMARK    6  A    between atoms: C_5  and  C_6 
ROOT
HETATM    1  C   UNK N   1      33.738  17.413   8.989  0.00  0.00     0.174 C 
ENDROOT
BRANCH   1   2
HETATM    2  C   UNK N   1      34.527  18.281   8.042  0.00  0.00     0.163 C 
HETATM    3  O   UNK N   1      35.214  19.193   8.476  0.00  0.00    -0.648 OA
BRANCH   2   4
HETATM    4  O   UNK N   1      34.505  18.042   6.716  0.00  0.00    -0.775 OA
HETATM    5  H   UNK N   1      34.782  17.228   6.345  0.00  0.00     0.167 HD
ENDBRANCH   2   4
ENDBRANCH   1   2
BRANCH   1   6
HETATM    6  N   UNK N   1      34.579  16.966  10.089  0.00  0.00    -0.418 N 
HETATM    7  H   UNK N   1      34.288  16.196  10.690  0.00  0.00     0.150 HD
HETATM    8  H   UNK N   1      35.471  17.430  10.260  0.00  0.00     0.150 HD
ENDBRANCH   1   6
BRANCH   1   9
HETATM    9  C   UNK N   1      33.143  16.200   8.289  0.00  0.00     0.048 C 
BRANCH   9  10
HETATM   10  C   UNK N   1      31.636  16.357   8.174  0.00  0.00     0.111 C 
BRANCH  10  11
HETATM   11  S   UNK N   1      31.105  16.051   6.466  0.00  0.00     0.010 S 
HETATM   12  O   UNK N   1      31.821  17.312   5.960  0.00  0.00    -0.258 OA
HETATM   13  C   UNK N   1      29.549  16.953   6.702  0.00  0.00     0.127 C 
ENDBRANCH  10  11
ENDBRANCH   9  10
ENDBRANCH   1   9
TORSDOF 6
ENDMDL
MODEL 5
REMARK VINA RESULT:      -3.9      2.092      4.609
REMARK  6 active torsions:
REMARK  status: ('A' for Active; 'I' for Inactive)
REMARK    1  A    between atoms: O_1  and  C_2 
REMARK    2  A    between atoms: C_2  and  C_3 
REMARK    3  A    between atoms: C_3  and  N_9 
REMARK    4  A    between atoms: C_3  and  C_5 
REMARK    5  A    between atoms: S_4  and  C_6 
REMARK    6  A    between atoms: C_5  and  C_6 
ROOT
HETATM    1  C   UNK N   1      35.251  15.710  10.405  0.00  0.00     0.174 C 
ENDROOT
BRANCH   1   2
HETATM    2  C   UNK N   1      34.289  14.891  11.227  0.00  0.00     0.163 C 
HETATM    3  O   UNK N   1      34.703  14.191  12.138  0.00  0.00    -0.648 OA
BRANCH   2   4
HETATM    4  O   UNK N   1      32.964  14.945  10.985  0.00  0.00    -0.775 OA
HETATM    5  H   UNK N   1      32.507  14.269  10.524  0.00  0.00     0.167 HD
ENDBRANCH   2   4
ENDBRANCH   1   2
BRANCH   1   6
HETATM    6  N   UNK N   1      35.140  17.119  10.749  0.00  0.00    -0.418 N 
HETATM    7  H   UNK N   1      34.370  17.685  10.391  0.00  0.00     0.150 HD
HETATM    8  H   UNK N   1      35.841  17.546  11.354  0.00  0.00     0.150 HD
ENDBRANCH   1   6
BRANCH   1   9
HETATM    9  C   UNK N   1      35.015  15.538   8.912  0.00  0.00     0.048 C 
BRANCH   9  10
HETATM   10  C   UNK N   1      34.431  16.815   8.331  0.00  0.00     0.111 C 
BRANCH  10  11
HETATM   11  S   UNK N   1      33.960  16.554   6.597  0.00  0.00     0.010 S 
HETATM   12  O   UNK N   1      34.283  18.011   6.235  0.00  0.00    -0.258 OA
HETATM   13  C   UNK N   1      32.221  16.955   6.925  0.00  0.00     0.127 C 
ENDBRANCH  10  11
ENDBRANCH   9  10
ENDBRANCH   1   9
TORSDOF 6
ENDMDL
MODEL 6
REMARK VINA RESULT:      -3.8     15.597     16.134
REMARK  6 active torsions:
REMARK  status: ('A' for Active; 'I' for Inactive)
REMARK    1  A    between atoms: O_1  and  C_2 
REMARK    2  A    between atoms: C_2  and  C_3 
REMARK    3  A    between atoms: C_3  and  N_9 
REMARK    4  A    between atoms: C_3  and  C_5 
REMARK    5  A    between atoms: S_4  and  C_6 
REMARK    6  A    between atoms: C_5  and  C_6 
ROOT
HETATM    1  C   UNK N   1      20.259  19.032   2.260  0.00  0.00     0.174 C 
ENDROOT
BRANCH   1   2
HETATM    2  C   UNK N   1      20.540  20.410   2.803  0.00  0.00     0.163 C 
HETATM    3  O   UNK N   1      20.360  20.649   3.987  0.00  0.00    -0.648 OA
BRANCH   2   4
HETATM    4  O   UNK N   1      21.018  21.378   1.998  0.00  0.00    -0.775 OA
HETATM    5  H   UNK N   1      21.603  21.202   1.287  0.00  0.00     0.167 HD
ENDBRANCH   2   4
ENDBRANCH   1   2
BRANCH   1   6
HETATM    6  N   UNK N   1      18.844  18.719   2.376  0.00  0.00    -0.418 N 
HETATM    7  H   UNK N   1      18.274  18.560   1.545  0.00  0.00     0.150 HD
HETATM    8  H   UNK N   1      18.416  18.659   3.300  0.00  0.00     0.150 HD
ENDBRANCH   1   6
BRANCH   1   9
HETATM    9  C   UNK N   1      21.069  17.960   2.976  0.00  0.00     0.048 C 
BRANCH   9  10
HETATM   10  C   UNK N   1      20.410  16.604   2.790  0.00  0.00     0.111 C 
BRANCH  10  11
HETATM   11  S   UNK N   1      20.172  15.800   4.400  0.00  0.00     0.010 S 
HETATM   12  O   UNK N   1      18.820  16.498   4.609  0.00  0.00    -0.258 OA
HETATM   13  C   UNK N   1      21.059  17.116   5.280  0.00  0.00     0.127 C 
ENDBRANCH  10  11
ENDBRANCH   9  10
ENDBRANCH   1   9
TORSDOF 6
ENDMDL
MODEL 7
REMARK VINA RESULT:      -3.8      2.487      3.206
REMARK  6 active torsions:
REMARK  status: ('A' for Active; 'I' for Inactive)
REMARK    1  A    between atoms: O_1  and  C_2 
REMARK    2  A    between atoms: C_2  and  C_3 
REMARK    3  A    between atoms: C_3  and  N_9 
REMARK    4  A    between atoms: C_3  and  C_5 
REMARK    5  A    between atoms: S_4  and  C_6 
REMARK    6  A    between atoms: C_5  and  C_6 
ROOT
HETATM    1  C   UNK N   1      34.289  17.096   9.057  0.00  0.00     0.174 C 
ENDROOT
BRANCH   1   2
HETATM    2  C   UNK N   1      34.657  18.216   8.117  0.00  0.00     0.163 C 
HETATM    3  O   UNK N   1      34.330  18.162   6.942  0.00  0.00    -0.648 OA
BRANCH   2   4
HETATM    4  O   UNK N   1      35.322  19.298   8.570  0.00  0.00    -0.775 OA
HETATM    5  H   UNK N   1      34.896  20.110   8.759  0.00  0.00     0.167 HD
ENDBRANCH   2   4
ENDBRANCH   1   2
BRANCH   1   6
HETATM    6  N   UNK N   1      34.983  17.249  10.325  0.00  0.00    -0.418 N 
HETATM    7  H   UNK N   1      34.464  17.325  11.200  0.00  0.00     0.150 HD
HETATM    8  H   UNK N   1      36.003  17.280  10.340  0.00  0.00     0.150 HD
ENDBRANCH   1   6
BRANCH   1   9
HETATM    9  C   UNK N   1      34.612  15.730   8.469  0.00  0.00     0.048 C 
BRANCH   9  10
HETATM   10  C   UNK N   1      33.467  14.768   8.738  0.00  0.00     0.111 C 
BRANCH  10  11
HETATM   11  S   UNK N   1      32.858  14.072   7.176  0.00  0.00     0.010 S 
HETATM   12  O   UNK N   1      33.932  14.812   6.365  0.00  0.00    -0.258 OA
HETATM   13  C   UNK N   1      31.665  15.420   6.946  0.00  0.00     0.127 C 
ENDBRANCH  10  11
ENDBRANCH   9  10
ENDBRANCH   1   9
TORSDOF 6
ENDMDL
MODEL 8
REMARK VINA RESULT:      -3.8     12.685     13.502
REMARK  6 active torsions:
REMARK  status: ('A' for Active; 'I' for Inactive)
REMARK    1  A    between atoms: O_1  and  C_2 
REMARK    2  A    between atoms: C_2  and  C_3 
REMARK    3  A    between atoms: C_3  and  N_9 
REMARK    4  A    between atoms: C_3  and  C_5 
REMARK    5  A    between atoms: S_4  and  C_6 
REMARK    6  A    between atoms: C_5  and  C_6 
ROOT
HETATM    1  C   UNK N   1      22.839  12.455  11.245  0.00  0.00     0.174 C 
ENDROOT
BRANCH   1   2
HETATM    2  C   UNK N   1      24.234  12.259  10.707  0.00  0.00     0.163 C 
HETATM    3  O   UNK N   1      24.399  11.841   9.572  0.00  0.00    -0.648 OA
BRANCH   2   4
HETATM    4  O   UNK N   1      25.308  12.569  11.461  0.00  0.00    -0.775 OA
HETATM    5  H   UNK N   1      25.815  11.921  11.909  0.00  0.00     0.167 HD
ENDBRANCH   2   4
ENDBRANCH   1   2
BRANCH   1   6
HETATM    6  N   UNK N   1      22.521  11.423  12.219  0.00  0.00    -0.418 N 
HETATM    7  H   UNK N   1      23.058  11.335  13.081  0.00  0.00     0.150 HD
HETATM    8  H   UNK N   1      21.751  10.780  12.036  0.00  0.00     0.150 HD
ENDBRANCH   1   6
BRANCH   1   9
HETATM    9  C   UNK N   1      21.795  12.439  10.138  0.00  0.00     0.048 C 
BRANCH   9  10
HETATM   10  C   UNK N   1      21.414  13.862   9.767  0.00  0.00     0.111 C 
BRANCH  10  11
HETATM   11  S   UNK N   1      21.579  14.106   7.976  0.00  0.00     0.010 S 
HETATM   12  O   UNK N   1      20.058  14.229   7.798  0.00  0.00    -0.258 OA
HETATM   13  C   UNK N   1      21.536  12.322   7.647  0.00  0.00     0.127 C 
ENDBRANCH  10  11
ENDBRANCH   9  10
ENDBRANCH   1   9
TORSDOF 6
ENDMDL
MODEL 9
REMARK VINA RESULT:      -3.8      2.499      3.017
REMARK  6 active torsions:
REMARK  status: ('A' for Active; 'I' for Inactive)
REMARK    1  A    between atoms: O_1  and  C_2 
REMARK    2  A    between atoms: C_2  and  C_3 
REMARK    3  A    between atoms: C_3  and  N_9 
REMARK    4  A    between atoms: C_3  and  C_5 
REMARK    5  A    between atoms: S_4  and  C_6 
REMARK    6  A    between atoms: C_5  and  C_6 
ROOT
HETATM    1  C   UNK N   1      34.865  15.077  10.143  0.00  0.00     0.174 C 
ENDROOT
BRANCH   1   2
HETATM    2  C   UNK N   1      35.748  16.259  10.453  0.00  0.00     0.163 C 
HETATM    3  O   UNK N   1      35.345  17.394  10.253  0.00  0.00    -0.648 OA
BRANCH   2   4
HETATM    4  O   UNK N   1      36.976  16.076  10.980  0.00  0.00    -0.775 OA
HETATM    5  H   UNK N   1      37.366  16.687  11.574  0.00  0.00     0.167 HD
ENDBRANCH   2   4
ENDBRANCH   1   2
BRANCH   1   6
HETATM    6  N   UNK N   1      33.686  15.087  10.994  0.00  0.00    -0.418 N 
HETATM    7  H   UNK N   1      33.709  14.668  11.924  0.00  0.00     0.150 HD
HETATM    8  H   UNK N   1      32.826  15.518  10.656  0.00  0.00     0.150 HD
ENDBRANCH   1   6
BRANCH   1   9
HETATM    9  C   UNK N   1      35.599  13.755  10.319  0.00  0.00     0.048 C 
BRANCH   9  10
HETATM   10  C   UNK N   1      35.046  13.014  11.524  0.00  0.00     0.111 C 
BRANCH  10  11
HETATM   11  S   UNK N   1      36.394  12.566  12.654  0.00  0.00     0.010 S 
HETATM   12  O   UNK N   1      36.598  14.029  13.076  0.00  0.00    -0.258 OA
HETATM   13  C   UNK N   1      37.645  12.702  11.347  0.00  0.00     0.127 C 
ENDBRANCH  10  11
ENDBRANCH   9  10
ENDBRANCH   1   9
TORSDOF 6
ENDMDL
