REMARK WARNING: 32 MAX_TORS EXCEEDED!!!
REMARK  40 active torsions:
REMARK  status: ('A' for Active; 'I' for Inactive)
REMARK    1  A    between atoms: C_2  and  C_1 
REMARK    2  A    between atoms: C_1  and  O_4 
REMARK    3  A    between atoms: C_3  and  C_2 
REMARK    4  A    between atoms: C_2  and  O_6 
REMARK    5  A    between atoms: C_3  and  O_5 
REMARK    6  A    between atoms: O_4  and  P_7 
REMARK    7  A    between atoms: C_32  and  O_5 
REMARK    8  A    between atoms: O_6  and  C_51 
REMARK    9  A    between atoms: P_7  and  O_10 
REMARK   10  A    between atoms: O_10  and  C_11 
REMARK   11  A    between atoms: C_11  and  C_12 
REMARK   12  A    between atoms: C_12  and  N_13 
REMARK   13  A    between atoms: C_18  and  C_19 
REMARK   14  A    between atoms: C_19  and  C_20 
REMARK   15  A    between atoms: C_20  and  C_21 
REMARK   16  A    between atoms: C_21  and  C_22 
REMARK   17  A    between atoms: C_22  and  C_23 
REMARK   18  A    between atoms: C_23  and  C_24 
REMARK   19  A    between atoms: C_24  and  C_25 
REMARK   20  A    between atoms: C_25  and  C_26 
REMARK   21  A    between atoms: C_26  and  C_27 
REMARK   22  A    between atoms: C_27  and  C_28 
REMARK   23  A    between atoms: C_28  and  C_29 
REMARK   24  A    between atoms: C_29  and  C_30 
REMARK   25  A    between atoms: C_30  and  C_31 
REMARK   26  A    between atoms: C_31  and  C_32 
REMARK   27  A    between atoms: C_36  and  C_35 
REMARK   28  A    between atoms: C_37  and  C_36 
REMARK   29  A    between atoms: C_38  and  C_37 
REMARK   30  A    between atoms: C_39  and  C_38 
REMARK   31  A    between atoms: C_41  and  C_40 
REMARK   32  A    between atoms: C_42  and  C_41 
REMARK   33  A    between atoms: C_44  and  C_43 
REMARK   34  A    between atoms: C_45  and  C_44 
REMARK   35  A    between atoms: C_46  and  C_45 
REMARK   36  A    between atoms: C_47  and  C_46 
REMARK   37  A    between atoms: C_48  and  C_47 
REMARK   38  A    between atoms: C_49  and  C_48 
REMARK   39  A    between atoms: C_50  and  C_49 
REMARK   40  A    between atoms: C_51  and  C_50 
ROOT
HETATM    1  C   UNK N   1      14.852  -9.970  -0.956  0.00  0.00     0.180 C 
ENDROOT
BRANCH   1   2
HETATM    2  C   UNK N   1      16.143  -9.756  -0.166  0.00  0.00     0.216 C 
BRANCH   2   3
HETATM    3  O   UNK N   1      15.919  -9.165   1.076  0.00  0.00    -0.287 OA
BRANCH   3   4
HETATM    4  P   UNK N   1      17.489  -8.599   1.566  0.00  0.00     0.408 P 
HETATM    5  O   UNK N   1      18.534  -9.901   2.046  0.00  0.00    -0.624 OA
HETATM    6  O   UNK N   1      17.263  -7.747   2.842  0.00  0.00    -0.624 OA
BRANCH   4   7
HETATM    7  O   UNK N   1      18.232  -7.534   0.403  0.00  0.00    -0.288 OA
BRANCH   7   8
HETATM    8  C   UNK N   1      18.758  -8.372  -0.582  0.00  0.00     0.209 C 
BRANCH   8   9
HETATM    9  C   UNK N   1      20.248  -8.101  -0.793  0.00  0.00     0.262 C 
BRANCH   9  10
HETATM   10  N   UNK N   1      21.108  -9.249  -0.485  0.00  0.00    -0.077 N 
HETATM   11  C   UNK N   1      20.592 -10.500  -1.028  0.00  0.00     0.271 C 
HETATM   12  C   UNK N   1      22.407  -9.008  -1.082  0.00  0.00     0.271 C 
HETATM   13  C   UNK N   1      21.289  -9.379   0.950  0.00  0.00     0.271 C 
ENDBRANCH   9  10
ENDBRANCH   8   9
ENDBRANCH   7   8
ENDBRANCH   4   7
ENDBRANCH   3   4
ENDBRANCH   2   3
ENDBRANCH   1   2
BRANCH   1  14
HETATM   14  C   UNK N   1      14.186  -8.656  -1.356  0.00  0.00     0.213 C 
BRANCH  14  15
HETATM   15  O   UNK N   1      13.909  -7.844  -0.275  0.00  0.00    -0.319 OA
BRANCH  15  16
HETATM   16  C   UNK N   1      12.649  -7.611   0.153  0.00  0.00     0.258 C 
HETATM   17  O   UNK N   1      12.452  -6.730   0.979  0.00  0.00    -0.265 OA
BRANCH  16  18
HETATM   18  C   UNK N   1      11.493  -8.413  -0.362  0.00  0.00     0.111 C 
BRANCH  18  19
HETATM   19  C   UNK N   1      10.877  -9.273   0.737  0.00  0.00     0.010 C 
BRANCH  19  20
HETATM   20  C   UNK N   1      10.215  -8.462   1.855  0.00  0.00     0.000 C 
BRANCH  20  21
HETATM   21  C   UNK N   1       9.262  -7.383   1.344  0.00  0.00     0.000 C 
BRANCH  21  22
HETATM   22  C   UNK N   1       8.177  -7.979   0.472  0.00  0.00     0.000 C 
BRANCH  22  23
HETATM   23  C   UNK N   1       8.433  -7.638  -0.985  0.00  0.00     0.000 C 
BRANCH  23  24
HETATM   24  C   UNK N   1       7.757  -8.642  -1.907  0.00  0.00     0.000 C 
BRANCH  24  25
HETATM   25  C   UNK N   1       6.285  -8.320  -2.132  0.00  0.00     0.000 C 
BRANCH  25  26
HETATM   26  C   UNK N   1       5.422  -8.865  -1.008  0.00  0.00     0.000 C 
BRANCH  26  27
HETATM   27  C   UNK N   1       5.216  -7.800   0.054  0.00  0.00     0.000 C 
BRANCH  27  28
HETATM   28  C   UNK N   1       4.628  -8.421   1.309  0.00  0.00     0.000 C 
BRANCH  28  29
HETATM   29  C   UNK N   1       3.145  -8.114   1.401  0.00  0.00     0.000 C 
BRANCH  29  30
HETATM   30  C   UNK N   1       2.385  -8.904   0.353  0.00  0.00    -0.000 C 
BRANCH  30  31
HETATM   31  C   UNK N   1       1.154  -8.141  -0.093  0.00  0.00    -0.005 C 
HETATM   32  C   UNK N   1      -0.007  -8.425   0.837  0.00  0.00     0.005 C 
ENDBRANCH  30  31
ENDBRANCH  29  30
ENDBRANCH  28  29
ENDBRANCH  27  28
ENDBRANCH  26  27
ENDBRANCH  25  26
ENDBRANCH  24  25
ENDBRANCH  23  24
ENDBRANCH  22  23
ENDBRANCH  21  22
ENDBRANCH  20  21
ENDBRANCH  19  20
ENDBRANCH  18  19
ENDBRANCH  16  18
ENDBRANCH  15  16
ENDBRANCH  14  15
ENDBRANCH   1  14
BRANCH   1  33
HETATM   33  O   UNK N   1      13.956 -10.802  -0.308  0.00  0.00    -0.312 OA
BRANCH  33  34
HETATM   34  C   UNK N   1      14.250 -12.064   0.091  0.00  0.00     0.259 C 
HETATM   35  O   UNK N   1      15.416 -12.401   0.311  0.00  0.00    -0.265 OA
BRANCH  34  36
HETATM   36  C   UNK N   1      13.184 -13.084   0.209  0.00  0.00     0.111 C 
BRANCH  36  37
HETATM   37  C   UNK N   1      12.578 -13.340  -1.166  0.00  0.00     0.010 C 
BRANCH  37  38
HETATM   38  C   UNK N   1      11.243 -12.633  -1.322  0.00  0.00     0.000 C 
BRANCH  38  39
HETATM   39  C   UNK N   1      10.209 -13.258  -0.403  0.00  0.00     0.000 C 
BRANCH  39  40
HETATM   40  C   UNK N   1      10.286 -12.600   0.966  0.00  0.00     0.000 C 
BRANCH  40  41
HETATM   41  C   UNK N   1       8.920 -12.152   1.456  0.00  0.00     0.004 C 
BRANCH  41  42
HETATM   42  C   UNK N   1       8.305 -11.119   0.521  0.00  0.00     0.027 C 
BRANCH  42  43
HETATM   43  C   UNK N   1       7.602 -11.795  -0.615  0.00  0.00    -0.030 C 
HETATM   44  C   UNK N   1       6.486 -12.500  -0.435  0.00  0.00    -0.027 C 
BRANCH  44  45
HETATM   45  C   UNK N   1       5.823 -12.609   0.907  0.00  0.00     0.053 C 
BRANCH  45  46
HETATM   46  C   UNK N   1       4.575 -13.430   0.817  0.00  0.00    -0.027 C 
HETATM   47  C   UNK N   1       3.552 -13.109   0.015  0.00  0.00    -0.030 C 
BRANCH  47  48
HETATM   48  C   UNK N   1       3.571 -11.894  -0.862  0.00  0.00     0.027 C 
BRANCH  48  49
HETATM   49  C   UNK N   1       2.463 -11.962  -1.898  0.00  0.00     0.004 C 
BRANCH  49  50
HETATM   50  C   UNK N   1       1.152 -11.446  -1.331  0.00  0.00    -0.000 C 
BRANCH  50  51
HETATM   51  C   UNK N   1       0.530 -12.468  -0.401  0.00  0.00    -0.005 C 
HETATM   52  C   UNK N   1      -0.631 -11.837   0.335  0.00  0.00     0.005 C 
ENDBRANCH  50  51
ENDBRANCH  49  50
ENDBRANCH  48  49
ENDBRANCH  47  48
ENDBRANCH  45  46
ENDBRANCH  44  45
ENDBRANCH  42  43
ENDBRANCH  41  42
ENDBRANCH  40  41
ENDBRANCH  39  40
ENDBRANCH  38  39
ENDBRANCH  37  38
ENDBRANCH  36  37
ENDBRANCH  34  36
ENDBRANCH  33  34
ENDBRANCH   1  33
TORSDOF 40
