REMARK  5 active torsions:
REMARK  status: ('A' for Active; 'I' for Inactive)
REMARK    1  A    between atoms: C_12  and  C_11 
REMARK    2  A    between atoms: C_20  and  C_13 
REMARK    3  A    between atoms: C_19  and  C_14 
REMARK    4  A    between atoms: O_28  and  C_18 
REMARK    5  A    between atoms: N_24  and  C_19 
ROOT
HETATM    1  C   UNK N   1       2.853   0.865   0.016  0.00  0.00     0.049 A 
HETATM    2  C   UNK N   1       2.914   3.688  -0.174  0.00  0.00     0.056 A 
HETATM    3  C   UNK N   1       4.097   1.513  -0.069  0.00  0.00     0.031 A 
HETATM    4  C   UNK N   1       4.125   2.952  -0.169  0.00  0.00     0.050 A 
HETATM    5  C   UNK N   1       1.706   1.632   0.000  0.00  0.00     0.061 A 
HETATM    6  C   UNK N   1       1.721   2.981  -0.087  0.00  0.00     0.062 A 
HETATM    7  C   UNK N   1      -0.300   2.316   0.000  0.00  0.00     0.119 A 
HETATM    8 Cl   UNK N   1       5.621   3.867  -0.291  0.00  0.00    -0.083 Cl
HETATM    9  N   UNK N   1       0.455   1.192   0.055  0.00  0.00    -0.340 N 
ATOM     10  HN  UNK N   1       0.135   0.226   0.122  1.00  0.00     0.167 HD
HETATM   11  N   UNK N   1       0.454   3.447  -0.084  0.00  0.00    -0.340 N 
HETATM   12  H   UNK N   1       0.148   4.382  -0.131  0.00  0.00     0.167 HD
ENDROOT
BRANCH   7  13
HETATM   13  C   UNK N   1      -1.782   2.268   0.019  0.00  0.00     0.042 A 
HETATM   14  C   UNK N   1      -2.532   3.450   0.043  0.00  0.00     0.018 A 
HETATM   15  C   UNK N   1      -3.928   3.395   0.068  0.00  0.00     0.002 A 
HETATM   16  C   UNK N   1      -4.587   2.162   0.063  0.00  0.00     0.015 A 
HETATM   17  C   UNK N   1      -3.864   0.958   0.030  0.00  0.00     0.008 A 
HETATM   18  C   UNK N   1      -2.451   1.021   0.010  0.00  0.00     0.090 A 
BRANCH  17  19
HETATM   19  C   UNK N   1      -4.598  -0.351   0.018  0.00  0.00    -0.023 A 
HETATM   20  C   UNK N   1      -3.907  -1.577  -0.040  0.00  0.00     0.012 A 
HETATM   21  C   UNK N   1      -4.589  -2.793  -0.050  0.00  0.00     0.001 A 
HETATM   22  C   UNK N   1      -5.982  -2.806  -0.001  0.00  0.00     0.000 A 
HETATM   23  C   UNK N   1      -6.688  -1.601   0.056  0.00  0.00     0.001 A 
HETATM   24  C   UNK N   1      -6.002  -0.381   0.065  0.00  0.00     0.012 A 
ENDBRANCH  17  19
BRANCH  18  25
HETATM   25  O   UNK N   1      -1.730  -0.116  -0.025  0.00  0.00    -0.359 OA
HETATM   26  H   UNK N   1      -2.165  -0.945  -0.048  0.00  0.00     0.217 HD
ENDBRANCH  18  25
ENDBRANCH   7  13
BRANCH   3  27
HETATM   27  C   UNK N   1       5.307   0.642  -0.052  0.00  0.00     0.104 C 
HETATM   28  N   UNK N   1       6.486   1.131  -0.144  0.00  0.00    -0.385 N 
HETATM   29  H   UNK N   1       7.265   0.534  -0.215  0.00  0.00     0.157 HD
ATOM     30  HN  UNK N   1       6.618   2.142  -0.144  1.00  0.00     0.157 HD
BRANCH  27  31
HETATM   31  N   UNK N   1       5.156  -0.761   0.065  0.00  0.00    -0.385 N 
HETATM   32  H   UNK N   1       4.259  -1.158   0.147  0.00  0.00     0.157 HD
HETATM   33  H   UNK N   1       5.951  -1.342   0.065  0.00  0.00     0.157 HD
ENDBRANCH  27  31
ENDBRANCH   3  27
TORSDOF 5
