REMARK  6 active torsions:
REMARK  status: ('A' for Active; 'I' for Inactive)
REMARK    1  A    between atoms: N_1  and  C_2 
REMARK    2  A    between atoms: C_2  and  C_3 
REMARK    3  A    between atoms: C_3  and  C_4 
REMARK    4  A    between atoms: C_4  and  C_5 
REMARK    5  A    between atoms: C_5  and  C_6 
REMARK    6  A    between atoms: C_6  and  O_7 
ROOT
HETATM    1  C   UNK N   1       2.413   2.256  -0.000  0.00  0.00     0.028 C 
ENDROOT
BRANCH   1   2
HETATM    2  C   UNK N   1       1.199   1.354  -0.000  0.00  0.00     0.229 C 
BRANCH   2   3
HETATM    3  N   UNK N   1      -0.005   2.160  -0.000  0.00  0.00    -0.079 N 
HETATM    4  H   UNK N   1       0.062   3.178  -0.000  0.00  0.00     0.274 HD
HETATM    5  H   UNK N   1      -0.920   1.710  -0.000  0.00  0.00     0.274 HD
HETATM    6  H   UNK N   1      -0.853   2.727  -0.000  0.00  0.00     0.274 HD
ENDBRANCH   2   3
ENDBRANCH   1   2
BRANCH   1   7
HETATM    7  C   UNK N   1       3.642   1.382   0.000  0.00  0.00     0.012 C 
BRANCH   7   8
HETATM    8  C   UNK N   1       4.899   2.231   0.000  0.00  0.00     0.110 C 
BRANCH   8   9
HETATM    9  C   UNK N   1       6.137   1.383  -0.000  0.00  0.00     0.139 C 
HETATM   10  O   UNK N   1       6.063   0.163  -0.000  0.00  0.00    -0.650 OA
BRANCH   9  11
HETATM   11  O   UNK N   1       7.344   1.975  -0.000  0.00  0.00    -0.776 OA
HETATM   12  H   UNK N   1       8.122   1.453  -0.000  0.00  0.00     0.167 HD
ENDBRANCH   9  11
ENDBRANCH   8   9
ENDBRANCH   7   8
ENDBRANCH   1   7
TORSDOF 6
