REMARK  12 active torsions:
REMARK  status: ('A' for Active; 'I' for Inactive)
REMARK    1  A    between atoms: C_2  and  C_1 
REMARK    2  A    between atoms: O_16  and  C_1 
REMARK    3  A    between atoms: C_3  and  C_2 
REMARK    4  A    between atoms: C_2  and  O_8 
REMARK    5  A    between atoms: C_4  and  C_3 
REMARK    6  A    between atoms: C_3  and  O_9 
REMARK    7  A    between atoms: C_5  and  C_4 
REMARK    8  A    between atoms: O_11  and  C_5 
REMARK    9  A    between atoms: N_6  and  O_12 
REMARK   10  A    between atoms: P_17  and  O_13 
REMARK   11  A    between atoms: P_17  and  O_14 
REMARK   12  A    between atoms: P_17  and  O_16 
ROOT
HETATM    1  C   UNK N   1       1.270  -0.086  -0.270  0.00  0.00     0.225 C 
HETATM    2  O   UNK N   1       1.275   0.083  -1.658  0.00  0.00    -0.385 OA
HETATM    3  H   UNK N   1       1.379   0.139  -2.621  0.00  0.00     0.210 HD
ENDROOT
BRANCH   1   4
HETATM    4  C   UNK N   1       0.767   1.198   0.430  0.00  0.00     0.185 C 
BRANCH   4   5
HETATM    5  C   UNK N   1       1.552   2.434  -0.034  0.00  0.00     0.174 C 
BRANCH   5   6
HETATM    6  C   UNK N   1       1.063   3.672   0.691  0.00  0.00     0.215 C 
BRANCH   6   7
HETATM    7  O   UNK N   1       1.531   4.812   0.039  0.00  0.00    -0.294 OA
BRANCH   7   8
HETATM    8  P   UNK N   1       0.135   5.829  -0.156  0.00  0.00     0.390 P 
HETATM    9  O   UNK N   1      -1.098   5.572   0.752  0.00  0.00    -0.632 OA
BRANCH   8  10
HETATM   10  O   UNK N   1       0.064   7.209  -1.205  0.00  0.00    -0.307 OA
HETATM   11  H   UNK N   1       0.712   7.630  -1.791  0.00  0.00     0.222 HD
ENDBRANCH   8  10
BRANCH   8  12
HETATM   12  O   UNK N   1       0.811   6.846   1.054  0.00  0.00    -0.307 OA
HETATM   13  H   UNK N   1       1.498   6.803   1.737  0.00  0.00     0.222 HD
ENDBRANCH   8  12
ENDBRANCH   7   8
ENDBRANCH   6   7
ENDBRANCH   5   6
BRANCH   5  14
HETATM   14  O   UNK N   1       2.920   2.275   0.202  0.00  0.00    -0.391 OA
HETATM   15  H   UNK N   1       3.300   1.398   0.366  0.00  0.00     0.210 HD
ENDBRANCH   5  14
ENDBRANCH   4   5
BRANCH   4  16
HETATM   16  O   UNK N   1      -0.590   1.403   0.153  0.00  0.00    -0.390 OA
HETATM   17  H   UNK N   1      -0.937   2.288  -0.039  0.00  0.00     0.210 HD
ENDBRANCH   4  16
ENDBRANCH   1   4
BRANCH   1  18
HETATM   18  C   UNK N   1       0.433  -1.287   0.062  0.00  0.00     0.167 C 
HETATM   19  N   UNK N   1      -0.804  -1.342  -0.308  0.00  0.00    -0.249 N 
ATOM     20  HN  UNK N   1      -1.211  -0.551  -0.807  1.00  0.00     0.196 HD
BRANCH  19  21
HETATM   21  O   UNK N   1      -1.546  -2.389  -0.055  0.00  0.00    -0.288 OA
HETATM   22  H   UNK N   1      -2.461  -2.304   0.126  0.00  0.00     0.244 HD
ENDBRANCH  19  21
BRANCH  18  23
HETATM   23  O   UNK N   1       0.982  -2.332   0.721  0.00  0.00    -0.346 OA
HETATM   24  H   UNK N   1       0.545  -3.023   1.178  0.00  0.00     0.219 HD
ENDBRANCH  18  23
ENDBRANCH   1  18
TORSDOF 12
