MODEL 1
REMARK VINA RESULT:      -4.0      0.000      0.000
REMARK  2 active torsions:
REMARK  status: ('A' for Active; 'I' for Inactive)
REMARK    1  A    between atoms: C_2  and  C_4 
REMARK    2  A    between atoms: C_4  and  C_5 
ROOT
HETATM    1  C   UNK N   1      34.033  17.249   9.008  0.00  0.00     0.226 C 
ENDROOT
BRANCH   1   2
HETATM    2  C   UNK N   1      35.000  16.577   9.946  0.00  0.00     0.182 C 
HETATM    3  O   UNK N   1      35.574  15.420   9.567  0.00  0.00    -0.648 OA
HETATM    4  O   UNK N   1      35.274  17.054  11.036  0.00  0.00    -0.648 OA
ENDBRANCH   1   2
BRANCH   1   5
HETATM    5  C   UNK N   1      34.584  18.266   8.044  0.00  0.00     0.182 C 
HETATM    6  O   UNK N   1      35.310  19.290   8.528  0.00  0.00    -0.648 OA
HETATM    7  O   UNK N   1      34.388  18.184   6.843  0.00  0.00    -0.648 OA
ENDBRANCH   1   5
TORSDOF 2
ENDMDL
MODEL 2
REMARK VINA RESULT:      -4.0      0.051      3.325
REMARK  2 active torsions:
REMARK  status: ('A' for Active; 'I' for Inactive)
REMARK    1  A    between atoms: C_2  and  C_4 
REMARK    2  A    between atoms: C_4  and  C_5 
ROOT
HETATM    1  C   UNK N   1      34.062  17.263   9.027  0.00  0.00     0.226 C 
ENDROOT
BRANCH   1   2
HETATM    2  C   UNK N   1      34.624  18.307   8.099  0.00  0.00     0.182 C 
HETATM    3  O   UNK N   1      34.399  18.188   6.777  0.00  0.00    -0.648 OA
HETATM    4  O   UNK N   1      35.274  19.253   8.514  0.00  0.00    -0.648 OA
ENDBRANCH   1   2
BRANCH   1   5
HETATM    5  C   UNK N   1      35.016  16.575   9.967  0.00  0.00     0.182 C 
HETATM    6  O   UNK N   1      35.600  15.429   9.573  0.00  0.00    -0.648 OA
HETATM    7  O   UNK N   1      35.270  17.030  11.071  0.00  0.00    -0.648 OA
ENDBRANCH   1   5
TORSDOF 2
ENDMDL
MODEL 3
REMARK VINA RESULT:      -3.7      1.448      2.479
REMARK  2 active torsions:
REMARK  status: ('A' for Active; 'I' for Inactive)
REMARK    1  A    between atoms: C_2  and  C_4 
REMARK    2  A    between atoms: C_4  and  C_5 
ROOT
HETATM    1  C   UNK N   1      33.887  17.379   7.895  0.00  0.00     0.226 C 
ENDROOT
BRANCH   1   2
HETATM    2  C   UNK N   1      34.865  18.123   8.765  0.00  0.00     0.182 C 
HETATM    3  O   UNK N   1      35.305  17.537   9.894  0.00  0.00    -0.648 OA
HETATM    4  O   UNK N   1      35.266  19.239   8.472  0.00  0.00    -0.648 OA
ENDBRANCH   1   2
BRANCH   1   5
HETATM    5  C   UNK N   1      34.272  17.132   6.460  0.00  0.00     0.182 C 
HETATM    6  O   UNK N   1      35.032  16.061   6.168  0.00  0.00    -0.648 OA
HETATM    7  O   UNK N   1      33.913  17.876   5.563  0.00  0.00    -0.648 OA
ENDBRANCH   1   5
TORSDOF 2
ENDMDL
MODEL 4
REMARK VINA RESULT:      -3.7      1.457      3.171
REMARK  2 active torsions:
REMARK  status: ('A' for Active; 'I' for Inactive)
REMARK    1  A    between atoms: C_2  and  C_4 
REMARK    2  A    between atoms: C_4  and  C_5 
ROOT
HETATM    1  C   UNK N   1      33.835  17.447   7.843  0.00  0.00     0.226 C 
ENDROOT
BRANCH   1   2
HETATM    2  C   UNK N   1      34.245  17.151   6.424  0.00  0.00     0.182 C 
HETATM    3  O   UNK N   1      35.076  16.119   6.191  0.00  0.00    -0.648 OA
HETATM    4  O   UNK N   1      33.843  17.822   5.487  0.00  0.00    -0.648 OA
ENDBRANCH   1   2
BRANCH   1   5
HETATM    5  C   UNK N   1      34.839  18.128   8.735  0.00  0.00     0.182 C 
HETATM    6  O   UNK N   1      35.251  17.496   9.848  0.00  0.00    -0.648 OA
HETATM    7  O   UNK N   1      35.284  19.234   8.472  0.00  0.00    -0.648 OA
ENDBRANCH   1   5
TORSDOF 2
ENDMDL
MODEL 5
REMARK VINA RESULT:      -3.7      2.136      2.814
REMARK  2 active torsions:
REMARK  status: ('A' for Active; 'I' for Inactive)
REMARK    1  A    between atoms: C_2  and  C_4 
REMARK    2  A    between atoms: C_4  and  C_5 
ROOT
HETATM    1  C   UNK N   1      33.489  17.354   8.749  0.00  0.00     0.226 C 
ENDROOT
BRANCH   1   2
HETATM    2  C   UNK N   1      32.015  17.336   8.438  0.00  0.00     0.182 C 
HETATM    3  O   UNK N   1      31.492  16.250   7.839  0.00  0.00    -0.648 OA
HETATM    4  O   UNK N   1      31.289  18.278   8.715  0.00  0.00    -0.648 OA
ENDBRANCH   1   2
BRANCH   1   5
HETATM    5  C   UNK N   1      34.380  18.192   7.871  0.00  0.00     0.182 C 
HETATM    6  O   UNK N   1      35.095  19.184   8.433  0.00  0.00    -0.648 OA
HETATM    7  O   UNK N   1      34.468  17.993   6.671  0.00  0.00    -0.648 OA
ENDBRANCH   1   5
TORSDOF 2
ENDMDL
MODEL 6
REMARK VINA RESULT:      -3.7      2.147      3.228
REMARK  2 active torsions:
REMARK  status: ('A' for Active; 'I' for Inactive)
REMARK    1  A    between atoms: C_2  and  C_4 
REMARK    2  A    between atoms: C_4  and  C_5 
ROOT
HETATM    1  C   UNK N   1      33.408  17.443   8.730  0.00  0.00     0.226 C 
ENDROOT
BRANCH   1   2
HETATM    2  C   UNK N   1      34.374  18.255   7.909  0.00  0.00     0.182 C 
HETATM    3  O   UNK N   1      34.483  17.999   6.593  0.00  0.00    -0.648 OA
HETATM    4  O   UNK N   1      35.058  19.136   8.407  0.00  0.00    -0.648 OA
ENDBRANCH   1   2
BRANCH   1   5
HETATM    5  C   UNK N   1      31.962  17.441   8.311  0.00  0.00     0.182 C 
HETATM    6  O   UNK N   1      31.135  18.366   8.831  0.00  0.00    -0.648 OA
HETATM    7  O   UNK N   1      31.526  16.624   7.516  0.00  0.00    -0.648 OA
ENDBRANCH   1   5
TORSDOF 2
ENDMDL
MODEL 7
REMARK VINA RESULT:      -3.5     13.235     13.869
REMARK  2 active torsions:
REMARK  status: ('A' for Active; 'I' for Inactive)
REMARK    1  A    between atoms: C_2  and  C_4 
REMARK    2  A    between atoms: C_4  and  C_5 
ROOT
HETATM    1  C   UNK N   1      22.460  11.689  10.770  0.00  0.00     0.226 C 
ENDROOT
BRANCH   1   2
HETATM    2  C   UNK N   1      21.615  12.871  10.373  0.00  0.00     0.182 C 
HETATM    3  O   UNK N   1      20.283  12.807  10.556  0.00  0.00    -0.648 OA
HETATM    4  O   UNK N   1      22.107  13.880   9.892  0.00  0.00    -0.648 OA
ENDBRANCH   1   2
BRANCH   1   5
HETATM    5  C   UNK N   1      23.481  11.892  11.859  0.00  0.00     0.182 C 
HETATM    6  O   UNK N   1      23.069  11.901  13.139  0.00  0.00    -0.648 OA
HETATM    7  O   UNK N   1      24.665  12.047  11.607  0.00  0.00    -0.648 OA
ENDBRANCH   1   5
TORSDOF 2
ENDMDL
MODEL 8
REMARK VINA RESULT:      -3.4     14.997     15.529
REMARK  2 active torsions:
REMARK  status: ('A' for Active; 'I' for Inactive)
REMARK    1  A    between atoms: C_2  and  C_4 
REMARK    2  A    between atoms: C_4  and  C_5 
ROOT
HETATM    1  C   UNK N   1      20.266  19.627   2.117  0.00  0.00     0.226 C 
ENDROOT
BRANCH   1   2
HETATM    2  C   UNK N   1      20.745  19.057   3.425  0.00  0.00     0.182 C 
HETATM    3  O   UNK N   1      20.752  19.847   4.514  0.00  0.00    -0.648 OA
HETATM    4  O   UNK N   1      21.126  17.900   3.521  0.00  0.00    -0.648 OA
ENDBRANCH   1   2
BRANCH   1   5
HETATM    5  C   UNK N   1      21.248  20.420   1.296  0.00  0.00     0.182 C 
HETATM    6  O   UNK N   1      22.391  20.832   1.873  0.00  0.00    -0.648 OA
HETATM    7  O   UNK N   1      21.032  20.695   0.127  0.00  0.00    -0.648 OA
ENDBRANCH   1   5
TORSDOF 2
ENDMDL
MODEL 9
REMARK VINA RESULT:      -3.4     12.528     13.537
REMARK  2 active torsions:
REMARK  status: ('A' for Active; 'I' for Inactive)
REMARK    1  A    between atoms: C_2  and  C_4 
REMARK    2  A    between atoms: C_4  and  C_5 
ROOT
HETATM    1  C   UNK N   1      30.812  21.670  -3.206  0.00  0.00     0.226 C 
ENDROOT
BRANCH   1   2
HETATM    2  C   UNK N   1      30.068  22.765  -2.489  0.00  0.00     0.182 C 
HETATM    3  O   UNK N   1      29.079  23.408  -3.136  0.00  0.00    -0.648 OA
HETATM    4  O   UNK N   1      30.340  23.081  -1.341  0.00  0.00    -0.648 OA
ENDBRANCH   1   2
BRANCH   1   5
HETATM    5  C   UNK N   1      32.313  21.651  -3.092  0.00  0.00     0.182 C 
HETATM    6  O   UNK N   1      33.048  22.075  -4.136  0.00  0.00    -0.648 OA
HETATM    7  O   UNK N   1      32.875  21.263  -2.080  0.00  0.00    -0.648 OA
ENDBRANCH   1   5
TORSDOF 2
ENDMDL
