REMARK  9 active torsions:
REMARK  status: ('A' for Active; 'I' for Inactive)
REMARK    1  A    between atoms: O_1  and  C_2 
REMARK    2  A    between atoms: C_2  and  C_3 
REMARK    3  A    between atoms: C_3  and  O_4 
REMARK    4  A    between atoms: O_4  and  C_5 
REMARK    5  A    between atoms: C_5  and  C_6 
REMARK    6  A    between atoms: C_6  and  O_7 
REMARK    7  A    between atoms: O_7  and  C_8 
REMARK    8  A    between atoms: C_8  and  C_9 
REMARK    9  A    between atoms: C_9  and  O_10 
ROOT
HETATM    1  C   UNK N   1       4.880   1.919   0.000  0.00  0.00     0.193 C 
ENDROOT
BRANCH   1   2
HETATM    2  O   UNK N   1       3.754   2.734  -0.000  0.00  0.00    -0.387 OA
BRANCH   2   3
HETATM    3  C   UNK N   1       2.688   1.841  -0.000  0.00  0.00     0.193 C 
BRANCH   3   4
HETATM    4  C   UNK N   1       1.388   2.611   0.000  0.00  0.00     0.190 C 
BRANCH   4   5
HETATM    5  O   UNK N   1       0.324   1.712   0.000  0.00  0.00    -0.399 OA
HETATM    6  H   UNK N   1      -0.589   2.040   0.000  0.00  0.00     0.209 HD
ENDBRANCH   4   5
ENDBRANCH   3   4
ENDBRANCH   2   3
ENDBRANCH   1   2
BRANCH   1   7
HETATM    7  C   UNK N   1       6.118   2.781   0.000  0.00  0.00     0.193 C 
BRANCH   7   8
HETATM    8  O   UNK N   1       7.243   1.965  -0.000  0.00  0.00    -0.387 OA
BRANCH   8   9
HETATM    9  C   UNK N   1       8.310   2.858  -0.000  0.00  0.00     0.193 C 
BRANCH   9  10
HETATM   10  C   UNK N   1       9.610   2.088   0.000  0.00  0.00     0.190 C 
BRANCH  10  11
HETATM   11  O   UNK N   1      10.673   2.987   0.000  0.00  0.00    -0.399 OA
HETATM   12  H   UNK N   1      11.586   2.659   0.000  0.00  0.00     0.209 HD
ENDBRANCH  10  11
ENDBRANCH   9  10
ENDBRANCH   8   9
ENDBRANCH   7   8
ENDBRANCH   1   7
TORSDOF 9
