MODEL 1
REMARK VINA RESULT:      -5.8      0.000      0.000
REMARK  11 active torsions:
REMARK  status: ('A' for Active; 'I' for Inactive)
REMARK    1  A    between atoms: C_3  and  C_1 
REMARK    2  A    between atoms: O_15  and  C_1 
REMARK    3  A    between atoms: C_4  and  C_2 
REMARK    4  A    between atoms: P_17  and  C_2 
REMARK    5  A    between atoms: C_5  and  O_7 
REMARK    6  A    between atoms: C_6  and  O_8 
REMARK    7  A    between atoms: P_17  and  O_9 
REMARK    8  A    between atoms: P_17  and  O_10 
REMARK    9  A    between atoms: P_18  and  O_12 
REMARK   10  A    between atoms: P_18  and  O_13 
REMARK   11  A    between atoms: P_18  and  O_15 
ROOT
HETATM    1  C   UNK N   1      36.028  15.681  10.884  0.00  0.00     0.177 C 
HETATM    2  C   UNK N   1      35.264  13.889  12.036  0.00  0.00     0.164 C 
HETATM    3  C   UNK N   1      36.117  14.434  10.000  0.00  0.00     0.180 C 
HETATM    4  C   UNK N   1      36.331  13.386  11.054  0.00  0.00     0.178 C 
HETATM    5  O   UNK N   1      35.374  15.299  12.090  0.00  0.00    -0.372 OA
ENDROOT
BRANCH   1   6
HETATM    6  C   UNK N   1      35.311  16.838  10.189  0.00  0.00     0.215 C 
BRANCH   6   7
HETATM    7  O   UNK N   1      34.799  16.438   8.948  0.00  0.00    -0.294 OA
BRANCH   7   8
HETATM    8  P   UNK N   1      34.345  17.900   8.112  0.00  0.00     0.390 P 
HETATM    9  O   UNK N   1      34.541  17.692   6.585  0.00  0.00    -0.632 OA
BRANCH   8  10
HETATM   10  O   UNK N   1      32.660  18.244   8.348  0.00  0.00    -0.307 OA
HETATM   11  H   UNK N   1      31.847  18.713   8.104  0.00  0.00     0.222 HD
ENDBRANCH   8  10
BRANCH   8  12
HETATM   12  O   UNK N   1      35.321  19.252   8.595  0.00  0.00    -0.307 OA
HETATM   13  H   UNK N   1      35.306  19.666   9.471  0.00  0.00     0.222 HD
ENDBRANCH   8  12
ENDBRANCH   7   8
ENDBRANCH   6   7
ENDBRANCH   1   6
BRANCH   3  14
HETATM   14  O   UNK N   1      37.152  14.500   9.059  0.00  0.00    -0.390 OA
HETATM   15  H   UNK N   1      37.644  13.741   8.711  0.00  0.00     0.210 HD
ENDBRANCH   3  14
BRANCH   4  16
HETATM   16  O   UNK N   1      37.623  13.522  11.576  0.00  0.00    -0.390 OA
HETATM   17  H   UNK N   1      38.533  13.186  11.599  0.00  0.00     0.210 HD
ENDBRANCH   4  16
BRANCH   2  18
HETATM   18  C   UNK N   1      35.173  13.243  13.432  0.00  0.00     0.159 C 
BRANCH  18  19
HETATM   19  P   UNK N   1      36.502  13.613  14.695  0.00  0.00     0.238 P 
HETATM   20  O   UNK N   1      35.998  13.436  16.152  0.00  0.00    -0.653 OA
BRANCH  19  21
HETATM   21  O   UNK N   1      37.122  15.235  14.634  0.00  0.00    -0.329 OA
HETATM   22  H   UNK N   1      36.677  15.943  14.145  0.00  0.00     0.220 HD
ENDBRANCH  19  21
BRANCH  19  23
HETATM   23  O   UNK N   1      37.881  12.565  14.594  0.00  0.00    -0.329 OA
HETATM   24  H   UNK N   1      38.634  12.692  15.193  0.00  0.00     0.220 HD
ENDBRANCH  19  23
ENDBRANCH  18  19
ENDBRANCH   2  18
TORSDOF 11
ENDMDL
MODEL 2
REMARK VINA RESULT:      -5.8      2.035      2.589
REMARK  11 active torsions:
REMARK  status: ('A' for Active; 'I' for Inactive)
REMARK    1  A    between atoms: C_3  and  C_1 
REMARK    2  A    between atoms: O_15  and  C_1 
REMARK    3  A    between atoms: C_4  and  C_2 
REMARK    4  A    between atoms: P_17  and  C_2 
REMARK    5  A    between atoms: C_5  and  O_7 
REMARK    6  A    between atoms: C_6  and  O_8 
REMARK    7  A    between atoms: P_17  and  O_9 
REMARK    8  A    between atoms: P_17  and  O_10 
REMARK    9  A    between atoms: P_18  and  O_12 
REMARK   10  A    between atoms: P_18  and  O_13 
REMARK   11  A    between atoms: P_18  and  O_15 
ROOT
HETATM    1  C   UNK N   1      34.892  14.766  10.897  0.00  0.00     0.177 C 
HETATM    2  C   UNK N   1      35.877  12.751  11.202  0.00  0.00     0.164 C 
HETATM    3  C   UNK N   1      36.381  14.872  10.555  0.00  0.00     0.180 C 
HETATM    4  C   UNK N   1      36.933  13.829  11.483  0.00  0.00     0.178 C 
HETATM    5  O   UNK N   1      34.617  13.395  11.171  0.00  0.00    -0.372 OA
ENDROOT
BRANCH   1   6
HETATM    6  C   UNK N   1      33.998  15.315   9.786  0.00  0.00     0.215 C 
BRANCH   6   7
HETATM    7  O   UNK N   1      34.763  15.762   8.702  0.00  0.00    -0.294 OA
BRANCH   7   8
HETATM    8  P   UNK N   1      34.308  17.424   8.434  0.00  0.00     0.390 P 
HETATM    9  O   UNK N   1      35.249  18.346   9.258  0.00  0.00    -0.632 OA
BRANCH   8  10
HETATM   10  O   UNK N   1      34.528  17.861   6.769  0.00  0.00    -0.307 OA
HETATM   11  H   UNK N   1      35.072  18.217   6.049  0.00  0.00     0.222 HD
ENDBRANCH   8  10
BRANCH   8  12
HETATM   12  O   UNK N   1      32.677  17.739   8.940  0.00  0.00    -0.307 OA
HETATM   13  H   UNK N   1      31.888  17.605   8.393  0.00  0.00     0.222 HD
ENDBRANCH   8  12
ENDBRANCH   7   8
ENDBRANCH   6   7
ENDBRANCH   1   6
BRANCH   3  14
HETATM   14  O   UNK N   1      36.906  16.150  10.775  0.00  0.00    -0.390 OA
HETATM   15  H   UNK N   1      37.681  16.525  10.328  0.00  0.00     0.210 HD
ENDBRANCH   3  14
BRANCH   4  16
HETATM   16  O   UNK N   1      36.856  14.302  12.798  0.00  0.00    -0.390 OA
HETATM   17  H   UNK N   1      36.863  15.071  13.391  0.00  0.00     0.210 HD
ENDBRANCH   4  16
BRANCH   2  18
HETATM   18  C   UNK N   1      35.873  11.471  12.061  0.00  0.00     0.159 C 
BRANCH  18  19
HETATM   19  P   UNK N   1      34.844  11.425  13.622  0.00  0.00     0.238 P 
HETATM   20  O   UNK N   1      35.555  10.671  14.776  0.00  0.00    -0.653 OA
BRANCH  19  21
HETATM   21  O   UNK N   1      33.309  10.630  13.450  0.00  0.00    -0.329 OA
HETATM   22  H   UNK N   1      33.232   9.698  13.198  0.00  0.00     0.220 HD
ENDBRANCH  19  21
BRANCH  19  23
HETATM   23  O   UNK N   1      34.504  12.992  14.286  0.00  0.00    -0.329 OA
HETATM   24  H   UNK N   1      33.614  13.199  14.613  0.00  0.00     0.220 HD
ENDBRANCH  19  23
ENDBRANCH  18  19
ENDBRANCH   2  18
TORSDOF 11
ENDMDL
MODEL 3
REMARK VINA RESULT:      -5.6      5.346      9.458
REMARK  11 active torsions:
REMARK  status: ('A' for Active; 'I' for Inactive)
REMARK    1  A    between atoms: C_3  and  C_1 
REMARK    2  A    between atoms: O_15  and  C_1 
REMARK    3  A    between atoms: C_4  and  C_2 
REMARK    4  A    between atoms: P_17  and  C_2 
REMARK    5  A    between atoms: C_5  and  O_7 
REMARK    6  A    between atoms: C_6  and  O_8 
REMARK    7  A    between atoms: P_17  and  O_9 
REMARK    8  A    between atoms: P_17  and  O_10 
REMARK    9  A    between atoms: P_18  and  O_12 
REMARK   10  A    between atoms: P_18  and  O_13 
REMARK   11  A    between atoms: P_18  and  O_15 
ROOT
HETATM    1  C   UNK N   1      30.296  17.991   8.207  0.00  0.00     0.177 C 
HETATM    2  C   UNK N   1      28.412  16.978   7.466  0.00  0.00     0.164 C 
HETATM    3  C   UNK N   1      29.472  17.512   9.406  0.00  0.00     0.180 C 
HETATM    4  C   UNK N   1      28.091  17.614   8.826  0.00  0.00     0.178 C 
HETATM    5  O   UNK N   1      29.646  17.518   7.031  0.00  0.00    -0.372 OA
ENDROOT
BRANCH   1   6
HETATM    6  C   UNK N   1      31.751  17.529   8.278  0.00  0.00     0.215 C 
BRANCH   6   7
HETATM    7  O   UNK N   1      32.610  18.611   8.506  0.00  0.00    -0.294 OA
BRANCH   7   8
HETATM    8  P   UNK N   1      34.208  18.066   8.068  0.00  0.00     0.390 P 
HETATM    9  O   UNK N   1      35.243  19.152   8.476  0.00  0.00    -0.632 OA
BRANCH   8  10
HETATM   10  O   UNK N   1      34.631  16.631   8.949  0.00  0.00    -0.307 OA
HETATM   11  H   UNK N   1      35.038  15.752   8.995  0.00  0.00     0.222 HD
ENDBRANCH   8  10
BRANCH   8  12
HETATM   12  O   UNK N   1      34.358  17.803   6.359  0.00  0.00    -0.307 OA
HETATM   13  H   UNK N   1      34.605  18.481   5.710  0.00  0.00     0.222 HD
ENDBRANCH   8  12
ENDBRANCH   7   8
ENDBRANCH   6   7
ENDBRANCH   1   6
BRANCH   3  14
HETATM   14  O   UNK N   1      29.658  18.298  10.549  0.00  0.00    -0.390 OA
HETATM   15  H   UNK N   1      28.949  18.660  11.103  0.00  0.00     0.210 HD
ENDBRANCH   3  14
BRANCH   4  16
HETATM   16  O   UNK N   1      27.748  18.965   8.700  0.00  0.00    -0.390 OA
HETATM   17  H   UNK N   1      28.052  19.873   8.544  0.00  0.00     0.210 HD
ENDBRANCH   4  16
BRANCH   2  18
HETATM   18  C   UNK N   1      27.333  16.989   6.366  0.00  0.00     0.159 C 
BRANCH  18  19
HETATM   19  P   UNK N   1      27.293  18.405   5.144  0.00  0.00     0.238 P 
HETATM   20  O   UNK N   1      26.946  19.758   5.819  0.00  0.00    -0.653 OA
BRANCH  19  21
HETATM   21  O   UNK N   1      26.121  18.228   3.875  0.00  0.00    -0.329 OA
HETATM   22  H   UNK N   1      25.742  18.988   3.407  0.00  0.00     0.220 HD
ENDBRANCH  19  21
BRANCH  19  23
HETATM   23  O   UNK N   1      28.812  18.701   4.360  0.00  0.00    -0.329 OA
HETATM   24  H   UNK N   1      29.226  18.006   3.824  0.00  0.00     0.220 HD
ENDBRANCH  19  23
ENDBRANCH  18  19
ENDBRANCH   2  18
TORSDOF 11
ENDMDL
MODEL 4
REMARK VINA RESULT:      -5.6      1.582      6.795
REMARK  11 active torsions:
REMARK  status: ('A' for Active; 'I' for Inactive)
REMARK    1  A    between atoms: C_3  and  C_1 
REMARK    2  A    between atoms: O_15  and  C_1 
REMARK    3  A    between atoms: C_4  and  C_2 
REMARK    4  A    between atoms: P_17  and  C_2 
REMARK    5  A    between atoms: C_5  and  O_7 
REMARK    6  A    between atoms: C_6  and  O_8 
REMARK    7  A    between atoms: P_17  and  O_9 
REMARK    8  A    between atoms: P_17  and  O_10 
REMARK    9  A    between atoms: P_18  and  O_12 
REMARK   10  A    between atoms: P_18  and  O_13 
REMARK   11  A    between atoms: P_18  and  O_15 
ROOT
HETATM    1  C   UNK N   1      35.691  13.849  11.389  0.00  0.00     0.177 C 
HETATM    2  C   UNK N   1      34.924  15.424   9.956  0.00  0.00     0.164 C 
HETATM    3  C   UNK N   1      35.555  15.184  12.127  0.00  0.00     0.180 C 
HETATM    4  C   UNK N   1      35.808  16.133  10.991  0.00  0.00     0.178 C 
HETATM    5  O   UNK N   1      35.165  14.035  10.078  0.00  0.00    -0.372 OA
ENDROOT
BRANCH   1   6
HETATM    6  C   UNK N   1      34.996  12.703  12.123  0.00  0.00     0.215 C 
BRANCH   6   7
HETATM    7  O   UNK N   1      34.653  13.079  13.428  0.00  0.00    -0.294 OA
BRANCH   7   8
HETATM    8  P   UNK N   1      35.675  12.147  14.490  0.00  0.00     0.390 P 
HETATM    9  O   UNK N   1      35.721  10.677  13.989  0.00  0.00    -0.632 OA
BRANCH   8  10
HETATM   10  O   UNK N   1      37.308  12.733  14.440  0.00  0.00    -0.307 OA
HETATM   11  H   UNK N   1      37.971  13.376  14.143  0.00  0.00     0.222 HD
ENDBRANCH   8  10
BRANCH   8  12
HETATM   12  O   UNK N   1      35.077  12.136  16.120  0.00  0.00    -0.307 OA
HETATM   13  H   UNK N   1      35.630  12.123  16.916  0.00  0.00     0.222 HD
ENDBRANCH   8  12
ENDBRANCH   7   8
ENDBRANCH   6   7
ENDBRANCH   1   6
BRANCH   3  14
HETATM   14  O   UNK N   1      36.462  15.322  13.184  0.00  0.00    -0.390 OA
HETATM   15  H   UNK N   1      36.252  15.204  14.123  0.00  0.00     0.210 HD
ENDBRANCH   3  14
BRANCH   4  16
HETATM   16  O   UNK N   1      37.162  16.077  10.644  0.00  0.00    -0.390 OA
HETATM   17  H   UNK N   1      38.051  15.759  10.872  0.00  0.00     0.210 HD
ENDBRANCH   4  16
BRANCH   2  18
HETATM   18  C   UNK N   1      34.956  15.910   8.493  0.00  0.00     0.159 C 
BRANCH  18  19
HETATM   19  P   UNK N   1      34.336  17.628   8.090  0.00  0.00     0.238 P 
HETATM   20  O   UNK N   1      32.905  17.882   8.633  0.00  0.00    -0.653 OA
BRANCH  19  21
HETATM   21  O   UNK N   1      34.236  17.978   6.392  0.00  0.00    -0.329 OA
HETATM   22  H   UNK N   1      34.939  17.736   5.769  0.00  0.00     0.220 HD
ENDBRANCH  19  21
BRANCH  19  23
HETATM   23  O   UNK N   1      35.286  18.901   8.790  0.00  0.00    -0.329 OA
HETATM   24  H   UNK N   1      36.039  18.686   9.364  0.00  0.00     0.220 HD
ENDBRANCH  19  23
ENDBRANCH  18  19
ENDBRANCH   2  18
TORSDOF 11
ENDMDL
MODEL 5
REMARK VINA RESULT:      -5.5      4.851      7.689
REMARK  11 active torsions:
REMARK  status: ('A' for Active; 'I' for Inactive)
REMARK    1  A    between atoms: C_3  and  C_1 
REMARK    2  A    between atoms: O_15  and  C_1 
REMARK    3  A    between atoms: C_4  and  C_2 
REMARK    4  A    between atoms: P_17  and  C_2 
REMARK    5  A    between atoms: C_5  and  O_7 
REMARK    6  A    between atoms: C_6  and  O_8 
REMARK    7  A    between atoms: P_17  and  O_9 
REMARK    8  A    between atoms: P_17  and  O_10 
REMARK    9  A    between atoms: P_18  and  O_12 
REMARK   10  A    between atoms: P_18  and  O_13 
REMARK   11  A    between atoms: P_18  and  O_15 
ROOT
HETATM    1  C   UNK N   1      32.346  16.047   6.067  0.00  0.00     0.177 C 
HETATM    2  C   UNK N   1      30.469  17.159   6.668  0.00  0.00     0.164 C 
HETATM    3  C   UNK N   1      32.180  17.281   5.175  0.00  0.00     0.180 C 
HETATM    4  C   UNK N   1      30.682  17.392   5.166  0.00  0.00     0.178 C 
HETATM    5  O   UNK N   1      31.321  16.096   7.054  0.00  0.00    -0.372 OA
ENDROOT
BRANCH   1   6
HETATM    6  C   UNK N   1      33.737  15.964   6.694  0.00  0.00     0.215 C 
BRANCH   6   7
HETATM    7  O   UNK N   1      34.368  17.214   6.682  0.00  0.00    -0.294 OA
BRANCH   7   8
HETATM    8  P   UNK N   1      34.393  17.764   8.337  0.00  0.00     0.390 P 
HETATM    9  O   UNK N   1      35.018  19.186   8.389  0.00  0.00    -0.632 OA
BRANCH   8  10
HETATM   10  O   UNK N   1      32.780  17.914   8.960  0.00  0.00    -0.307 OA
HETATM   11  H   UNK N   1      32.000  17.538   9.397  0.00  0.00     0.222 HD
ENDBRANCH   8  10
BRANCH   8  12
HETATM   12  O   UNK N   1      35.348  16.727   9.350  0.00  0.00    -0.307 OA
HETATM   13  H   UNK N   1      35.195  15.778   9.478  0.00  0.00     0.222 HD
ENDBRANCH   8  12
ENDBRANCH   7   8
ENDBRANCH   6   7
ENDBRANCH   1   6
BRANCH   3  14
HETATM   14  O   UNK N   1      32.736  17.118   3.902  0.00  0.00    -0.390 OA
HETATM   15  H   UNK N   1      33.363  17.725   3.480  0.00  0.00     0.210 HD
ENDBRANCH   3  14
BRANCH   4  16
HETATM   16  O   UNK N   1      30.153  16.348   4.398  0.00  0.00    -0.390 OA
HETATM   17  H   UNK N   1      29.824  16.057   3.533  0.00  0.00     0.210 HD
ENDBRANCH   4  16
BRANCH   2  18
HETATM   18  C   UNK N   1      29.031  16.996   7.199  0.00  0.00     0.159 C 
BRANCH  18  19
HETATM   19  P   UNK N   1      28.557  17.816   8.812  0.00  0.00     0.238 P 
HETATM   20  O   UNK N   1      27.767  16.865   9.749  0.00  0.00    -0.653 OA
BRANCH  19  21
HETATM   21  O   UNK N   1      27.542  19.215   8.638  0.00  0.00    -0.329 OA
HETATM   22  H   UNK N   1      26.798  19.394   9.233  0.00  0.00     0.220 HD
ENDBRANCH  19  21
BRANCH  19  23
HETATM   23  O   UNK N   1      29.914  18.321   9.769  0.00  0.00    -0.329 OA
HETATM   24  H   UNK N   1      30.749  18.565   9.339  0.00  0.00     0.220 HD
ENDBRANCH  19  23
ENDBRANCH  18  19
ENDBRANCH   2  18
TORSDOF 11
ENDMDL
MODEL 6
REMARK VINA RESULT:      -5.1      1.904      2.986
REMARK  11 active torsions:
REMARK  status: ('A' for Active; 'I' for Inactive)
REMARK    1  A    between atoms: C_3  and  C_1 
REMARK    2  A    between atoms: O_15  and  C_1 
REMARK    3  A    between atoms: C_4  and  C_2 
REMARK    4  A    between atoms: P_17  and  C_2 
REMARK    5  A    between atoms: C_5  and  O_7 
REMARK    6  A    between atoms: C_6  and  O_8 
REMARK    7  A    between atoms: P_17  and  O_9 
REMARK    8  A    between atoms: P_17  and  O_10 
REMARK    9  A    between atoms: P_18  and  O_12 
REMARK   10  A    between atoms: P_18  and  O_13 
REMARK   11  A    between atoms: P_18  and  O_15 
ROOT
HETATM    1  C   UNK N   1      34.515  15.017   8.668  0.00  0.00     0.177 C 
HETATM    2  C   UNK N   1      35.601  14.335  10.533  0.00  0.00     0.164 C 
HETATM    3  C   UNK N   1      34.668  16.201   9.628  0.00  0.00     0.180 C 
HETATM    4  C   UNK N   1      34.653  15.472  10.940  0.00  0.00     0.178 C 
HETATM    5  O   UNK N   1      35.225  13.919   9.233  0.00  0.00    -0.372 OA
ENDROOT
BRANCH   1   6
HETATM    6  C   UNK N   1      35.001  15.344   7.257  0.00  0.00     0.215 C 
BRANCH   6   7
HETATM    7  O   UNK N   1      34.787  16.694   6.953  0.00  0.00    -0.294 OA
BRANCH   7   8
HETATM    8  P   UNK N   1      33.361  16.749   5.950  0.00  0.00     0.390 P 
HETATM    9  O   UNK N   1      32.129  17.078   6.839  0.00  0.00    -0.632 OA
BRANCH   8  10
HETATM   10  O   UNK N   1      33.480  18.029   4.783  0.00  0.00    -0.307 OA
HETATM   11  H   UNK N   1      33.253  18.919   4.473  0.00  0.00     0.222 HD
ENDBRANCH   8  10
BRANCH   8  12
HETATM   12  O   UNK N   1      33.061  15.230   5.166  0.00  0.00    -0.307 OA
HETATM   13  H   UNK N   1      33.741  14.581   4.929  0.00  0.00     0.222 HD
ENDBRANCH   8  12
ENDBRANCH   7   8
ENDBRANCH   6   7
ENDBRANCH   1   6
BRANCH   3  14
HETATM   14  O   UNK N   1      33.644  17.146   9.502  0.00  0.00    -0.390 OA
HETATM   15  H   UNK N   1      33.140  17.325   8.693  0.00  0.00     0.210 HD
ENDBRANCH   3  14
BRANCH   4  16
HETATM   16  O   UNK N   1      33.357  15.004  11.187  0.00  0.00    -0.390 OA
HETATM   17  H   UNK N   1      32.445  14.921  10.867  0.00  0.00     0.210 HD
ENDBRANCH   4  16
BRANCH   2  18
HETATM   18  C   UNK N   1      35.808  13.155  11.502  0.00  0.00     0.159 C 
BRANCH  18  19
HETATM   19  P   UNK N   1      36.188  13.507  13.299  0.00  0.00     0.238 P 
HETATM   20  O   UNK N   1      34.937  13.367  14.206  0.00  0.00    -0.653 OA
BRANCH  19  21
HETATM   21  O   UNK N   1      36.785  15.109  13.608  0.00  0.00    -0.329 OA
HETATM   22  H   UNK N   1      37.721  15.290  13.780  0.00  0.00     0.220 HD
ENDBRANCH  19  21
BRANCH  19  23
HETATM   23  O   UNK N   1      37.343  12.418  14.000  0.00  0.00    -0.329 OA
HETATM   24  H   UNK N   1      38.286  12.649  14.009  0.00  0.00     0.220 HD
ENDBRANCH  19  23
ENDBRANCH  18  19
ENDBRANCH   2  18
TORSDOF 11
ENDMDL
MODEL 7
REMARK VINA RESULT:      -5.0      3.475      7.009
REMARK  11 active torsions:
REMARK  status: ('A' for Active; 'I' for Inactive)
REMARK    1  A    between atoms: C_3  and  C_1 
REMARK    2  A    between atoms: O_15  and  C_1 
REMARK    3  A    between atoms: C_4  and  C_2 
REMARK    4  A    between atoms: P_17  and  C_2 
REMARK    5  A    between atoms: C_5  and  O_7 
REMARK    6  A    between atoms: C_6  and  O_8 
REMARK    7  A    between atoms: P_17  and  O_9 
REMARK    8  A    between atoms: P_17  and  O_10 
REMARK    9  A    between atoms: P_18  and  O_12 
REMARK   10  A    between atoms: P_18  and  O_13 
REMARK   11  A    between atoms: P_18  and  O_15 
ROOT
HETATM    1  C   UNK N   1      33.574  16.107   8.303  0.00  0.00     0.177 C 
HETATM    2  C   UNK N   1      31.727  17.379   8.000  0.00  0.00     0.164 C 
HETATM    3  C   UNK N   1      33.849  17.151   7.217  0.00  0.00     0.180 C 
HETATM    4  C   UNK N   1      32.466  17.310   6.656  0.00  0.00     0.178 C 
HETATM    5  O   UNK N   1      32.282  16.381   8.837  0.00  0.00    -0.372 OA
ENDROOT
BRANCH   1   6
HETATM    6  C   UNK N   1      34.649  16.098   9.389  0.00  0.00     0.215 C 
BRANCH   6   7
HETATM    7  O   UNK N   1      34.103  15.757  10.633  0.00  0.00    -0.294 OA
BRANCH   7   8
HETATM    8  P   UNK N   1      35.192  14.595  11.343  0.00  0.00     0.390 P 
HETATM    9  O   UNK N   1      35.910  13.813  10.208  0.00  0.00    -0.632 OA
BRANCH   8  10
HETATM   10  O   UNK N   1      36.438  15.395  12.250  0.00  0.00    -0.307 OA
HETATM   11  H   UNK N   1      36.721  15.984  12.966  0.00  0.00     0.222 HD
ENDBRANCH   8  10
BRANCH   8  12
HETATM   12  O   UNK N   1      34.354  13.443  12.335  0.00  0.00    -0.307 OA
HETATM   13  H   UNK N   1      34.706  12.582  12.608  0.00  0.00     0.222 HD
ENDBRANCH   8  12
ENDBRANCH   7   8
ENDBRANCH   6   7
ENDBRANCH   1   6
BRANCH   3  14
HETATM   14  O   UNK N   1      34.790  16.727   6.273  0.00  0.00    -0.390 OA
HETATM   15  H   UNK N   1      34.784  16.956   5.330  0.00  0.00     0.210 HD
ENDBRANCH   3  14
BRANCH   4  16
HETATM   16  O   UNK N   1      32.131  16.157   5.937  0.00  0.00    -0.390 OA
HETATM   17  H   UNK N   1      31.556  15.750   5.269  0.00  0.00     0.210 HD
ENDBRANCH   4  16
BRANCH   2  18
HETATM   18  C   UNK N   1      30.185  17.371   8.003  0.00  0.00     0.159 C 
BRANCH  18  19
HETATM   19  P   UNK N   1      29.276  17.719   9.599  0.00  0.00     0.238 P 
HETATM   20  O   UNK N   1      29.733  19.045  10.263  0.00  0.00    -0.653 OA
BRANCH  19  21
HETATM   21  O   UNK N   1      29.489  16.510  10.829  0.00  0.00    -0.329 OA
HETATM   22  H   UNK N   1      29.937  15.668  10.657  0.00  0.00     0.220 HD
ENDBRANCH  19  21
BRANCH  19  23
HETATM   23  O   UNK N   1      27.562  17.912   9.405  0.00  0.00    -0.329 OA
HETATM   24  H   UNK N   1      26.962  17.690  10.135  0.00  0.00     0.220 HD
ENDBRANCH  19  23
ENDBRANCH  18  19
ENDBRANCH   2  18
TORSDOF 11
ENDMDL
MODEL 8
REMARK VINA RESULT:      -4.8      3.207      7.588
REMARK  11 active torsions:
REMARK  status: ('A' for Active; 'I' for Inactive)
REMARK    1  A    between atoms: C_3  and  C_1 
REMARK    2  A    between atoms: O_15  and  C_1 
REMARK    3  A    between atoms: C_4  and  C_2 
REMARK    4  A    between atoms: P_17  and  C_2 
REMARK    5  A    between atoms: C_5  and  O_7 
REMARK    6  A    between atoms: C_6  and  O_8 
REMARK    7  A    between atoms: P_17  and  O_9 
REMARK    8  A    between atoms: P_17  and  O_10 
REMARK    9  A    between atoms: P_18  and  O_12 
REMARK   10  A    between atoms: P_18  and  O_13 
REMARK   11  A    between atoms: P_18  and  O_15 
ROOT
HETATM    1  C   UNK N   1      34.573  15.831   8.315  0.00  0.00     0.177 C 
HETATM    2  C   UNK N   1      32.728  16.567   7.231  0.00  0.00     0.164 C 
HETATM    3  C   UNK N   1      34.121  17.161   8.927  0.00  0.00     0.180 C 
HETATM    4  C   UNK N   1      33.500  17.801   7.719  0.00  0.00     0.178 C 
HETATM    5  O   UNK N   1      33.595  15.455   7.350  0.00  0.00    -0.372 OA
ENDROOT
BRANCH   1   6
HETATM    6  C   UNK N   1      34.780  14.745   9.370  0.00  0.00     0.215 C 
BRANCH   6   7
HETATM    7  O   UNK N   1      35.975  14.050   9.148  0.00  0.00    -0.294 OA
BRANCH   7   8
HETATM    8  P   UNK N   1      37.036  14.467  10.468  0.00  0.00     0.390 P 
HETATM    9  O   UNK N   1      36.652  13.621  11.713  0.00  0.00    -0.632 OA
BRANCH   8  10
HETATM   10  O   UNK N   1      38.680  14.061  10.086  0.00  0.00    -0.307 OA
HETATM   11  H   UNK N   1      39.365  13.801   9.450  0.00  0.00     0.222 HD
ENDBRANCH   8  10
BRANCH   8  12
HETATM   12  O   UNK N   1      36.903  16.143  10.901  0.00  0.00    -0.307 OA
HETATM   13  H   UNK N   1      37.039  16.888  10.295  0.00  0.00     0.222 HD
ENDBRANCH   8  12
ENDBRANCH   7   8
ENDBRANCH   6   7
ENDBRANCH   1   6
BRANCH   3  14
HETATM   14  O   UNK N   1      35.176  17.901   9.472  0.00  0.00    -0.390 OA
HETATM   15  H   UNK N   1      35.102  18.525  10.210  0.00  0.00     0.210 HD
ENDBRANCH   3  14
BRANCH   4  16
HETATM   16  O   UNK N   1      34.513  18.168   6.826  0.00  0.00    -0.390 OA
HETATM   17  H   UNK N   1      35.433  18.453   6.708  0.00  0.00     0.210 HD
ENDBRANCH   4  16
BRANCH   2  18
HETATM   18  C   UNK N   1      32.018  16.627   5.864  0.00  0.00     0.159 C 
BRANCH  18  19
HETATM   19  P   UNK N   1      30.199  17.055   5.800  0.00  0.00     0.238 P 
HETATM   20  O   UNK N   1      29.301  15.799   5.647  0.00  0.00    -0.653 OA
BRANCH  19  21
HETATM   21  O   UNK N   1      29.748  18.089   4.479  0.00  0.00    -0.329 OA
HETATM   22  H   UNK N   1      29.387  17.743   3.649  0.00  0.00     0.220 HD
ENDBRANCH  19  21
BRANCH  19  23
HETATM   23  O   UNK N   1      29.607  17.825   7.239  0.00  0.00    -0.329 OA
HETATM   24  H   UNK N   1      29.684  18.787   7.342  0.00  0.00     0.220 HD
ENDBRANCH  19  23
ENDBRANCH  18  19
ENDBRANCH   2  18
TORSDOF 11
ENDMDL
MODEL 9
REMARK VINA RESULT:      -4.8     16.903     20.491
REMARK  11 active torsions:
REMARK  status: ('A' for Active; 'I' for Inactive)
REMARK    1  A    between atoms: C_3  and  C_1 
REMARK    2  A    between atoms: O_15  and  C_1 
REMARK    3  A    between atoms: C_4  and  C_2 
REMARK    4  A    between atoms: P_17  and  C_2 
REMARK    5  A    between atoms: C_5  and  O_7 
REMARK    6  A    between atoms: C_6  and  O_8 
REMARK    7  A    between atoms: P_17  and  O_9 
REMARK    8  A    between atoms: P_17  and  O_10 
REMARK    9  A    between atoms: P_18  and  O_12 
REMARK   10  A    between atoms: P_18  and  O_13 
REMARK   11  A    between atoms: P_18  and  O_15 
ROOT
HETATM    1  C   UNK N   1      29.054  25.350  -3.909  0.00  0.00     0.177 C 
HETATM    2  C   UNK N   1      28.171  26.989  -5.196  0.00  0.00     0.164 C 
HETATM    3  C   UNK N   1      28.555  24.748  -5.227  0.00  0.00     0.180 C 
HETATM    4  C   UNK N   1      27.425  25.690  -5.528  0.00  0.00     0.178 C 
HETATM    5  O   UNK N   1      28.900  26.763  -4.004  0.00  0.00    -0.372 OA
ENDROOT
BRANCH   1   6
HETATM    6  C   UNK N   1      30.496  24.953  -3.597  0.00  0.00     0.215 C 
BRANCH   6   7
HETATM    7  O   UNK N   1      30.542  23.975  -2.596  0.00  0.00    -0.294 OA
BRANCH   7   8
HETATM    8  P   UNK N   1      31.297  22.576  -3.314  0.00  0.00     0.390 P 
HETATM    9  O   UNK N   1      32.420  23.046  -4.280  0.00  0.00    -0.632 OA
BRANCH   8  10
HETATM   10  O   UNK N   1      32.070  21.605  -2.100  0.00  0.00    -0.307 OA
HETATM   11  H   UNK N   1      32.070  20.852  -1.488  0.00  0.00     0.222 HD
ENDBRANCH   8  10
BRANCH   8  12
HETATM   12  O   UNK N   1      30.169  21.629  -4.231  0.00  0.00    -0.307 OA
HETATM   13  H   UNK N   1      29.662  20.878  -3.886  0.00  0.00     0.222 HD
ENDBRANCH   8  12
ENDBRANCH   7   8
ENDBRANCH   6   7
ENDBRANCH   1   6
BRANCH   3  14
HETATM   14  O   UNK N   1      28.154  23.414  -5.105  0.00  0.00    -0.390 OA
HETATM   15  H   UNK N   1      27.288  23.061  -5.362  0.00  0.00     0.210 HD
ENDBRANCH   3  14
BRANCH   4  16
HETATM   16  O   UNK N   1      26.379  25.447  -4.630  0.00  0.00    -0.390 OA
HETATM   17  H   UNK N   1      25.423  25.338  -4.501  0.00  0.00     0.210 HD
ENDBRANCH   4  16
BRANCH   2  18
HETATM   18  C   UNK N   1      27.383  28.314  -5.171  0.00  0.00     0.159 C 
BRANCH  18  19
HETATM   19  P   UNK N   1      26.631  28.897  -3.561  0.00  0.00     0.238 P 
HETATM   20  O   UNK N   1      25.495  27.964  -3.068  0.00  0.00    -0.653 OA
BRANCH  19  21
HETATM   21  O   UNK N   1      25.911  30.477  -3.633  0.00  0.00    -0.329 OA
HETATM   22  H   UNK N   1      25.134  30.669  -4.179  0.00  0.00     0.220 HD
ENDBRANCH  19  21
BRANCH  19  23
HETATM   23  O   UNK N   1      27.751  28.937  -2.236  0.00  0.00    -0.329 OA
HETATM   24  H   UNK N   1      28.319  29.713  -2.103  0.00  0.00     0.220 HD
ENDBRANCH  19  23
ENDBRANCH  18  19
ENDBRANCH   2  18
TORSDOF 11
ENDMDL
