MODEL 1
REMARK VINA RESULT:      -3.8      0.000      0.000
REMARK  4 active torsions:
REMARK  status: ('A' for Active; 'I' for Inactive)
REMARK    1  A    between atoms: N_1  and  O_2 
REMARK    2  A    between atoms: O_2  and  C_3 
REMARK    3  A    between atoms: C_3  and  C_4 
REMARK    4  A    between atoms: C_4  and  O_5 
ROOT
HETATM    1  C   UNK N   1      20.852  19.691   1.722  0.00  0.00     0.310 C 
ENDROOT
BRANCH   1   2
HETATM    2  O   UNK N   1      21.056  20.277   0.471  0.00  0.00    -0.277 OA
BRANCH   2   3
HETATM    3  N   UNK N   1      20.254  21.365   0.466  0.00  0.00    -0.311 N 
HETATM    4  H   UNK N   1      19.294  21.294   0.803  0.00  0.00     0.184 HD
HETATM    5  H   UNK N   1      20.610  22.259   0.125  0.00  0.00     0.184 HD
ENDBRANCH   2   3
ENDBRANCH   1   2
BRANCH   1   6
HETATM    6  C   UNK N   1      21.027  20.701   2.811  0.00  0.00     0.166 C 
HETATM    7  O   UNK N   1      20.251  20.729   3.760  0.00  0.00    -0.648 OA
BRANCH   6   8
HETATM    8  O   UNK N   1      22.037  21.583   2.752  0.00  0.00    -0.775 OA
HETATM    9  H   UNK N   1      22.509  21.808   3.530  0.00  0.00     0.167 HD
ENDBRANCH   6   8
ENDBRANCH   1   6
TORSDOF 4
ENDMDL
MODEL 2
REMARK VINA RESULT:      -3.5     15.328     15.828
REMARK  4 active torsions:
REMARK  status: ('A' for Active; 'I' for Inactive)
REMARK    1  A    between atoms: N_1  and  O_2 
REMARK    2  A    between atoms: O_2  and  C_3 
REMARK    3  A    between atoms: C_3  and  C_4 
REMARK    4  A    between atoms: C_4  and  O_5 
ROOT
HETATM    1  C   UNK N   1      33.825  17.325   8.933  0.00  0.00     0.310 C 
ENDROOT
BRANCH   1   2
HETATM    2  O   UNK N   1      34.714  16.485   9.604  0.00  0.00    -0.277 OA
BRANCH   2   3
HETATM    3  N   UNK N   1      35.105  17.193  10.688  0.00  0.00    -0.311 N 
HETATM    4  H   UNK N   1      34.640  17.051  11.585  0.00  0.00     0.184 HD
HETATM    5  H   UNK N   1      35.865  17.870  10.608  0.00  0.00     0.184 HD
ENDBRANCH   2   3
ENDBRANCH   1   2
BRANCH   1   6
HETATM    6  C   UNK N   1      34.564  18.257   8.025  0.00  0.00     0.166 C 
HETATM    7  O   UNK N   1      34.501  18.117   6.809  0.00  0.00    -0.648 OA
BRANCH   6   8
HETATM    8  O   UNK N   1      35.301  19.252   8.542  0.00  0.00    -0.775 OA
HETATM    9  H   UNK N   1      34.960  19.773   9.243  0.00  0.00     0.167 HD
ENDBRANCH   6   8
ENDBRANCH   1   6
TORSDOF 4
ENDMDL
MODEL 3
REMARK VINA RESULT:      -3.4      1.807      2.698
REMARK  4 active torsions:
REMARK  status: ('A' for Active; 'I' for Inactive)
REMARK    1  A    between atoms: N_1  and  O_2 
REMARK    2  A    between atoms: O_2  and  C_3 
REMARK    3  A    between atoms: C_3  and  C_4 
REMARK    4  A    between atoms: C_4  and  O_5 
ROOT
HETATM    1  C   UNK N   1      20.407  20.253   2.371  0.00  0.00     0.310 C 
ENDROOT
BRANCH   1   2
HETATM    2  O   UNK N   1      21.351  20.664   3.312  0.00  0.00    -0.277 OA
BRANCH   2   3
HETATM    3  N   UNK N   1      22.542  20.529   2.688  0.00  0.00    -0.311 N 
HETATM    4  H   UNK N   1      22.584  20.128   1.751  0.00  0.00     0.184 HD
HETATM    5  H   UNK N   1      23.399  20.828   3.154  0.00  0.00     0.184 HD
ENDBRANCH   2   3
ENDBRANCH   1   2
BRANCH   1   6
HETATM    6  C   UNK N   1      20.652  20.917   1.053  0.00  0.00     0.166 C 
HETATM    7  O   UNK N   1      20.951  20.249   0.069  0.00  0.00    -0.648 OA
BRANCH   6   8
HETATM    8  O   UNK N   1      20.546  22.250   0.945  0.00  0.00    -0.775 OA
HETATM    9  H   UNK N   1      20.601  22.789   1.710  0.00  0.00     0.167 HD
ENDBRANCH   6   8
ENDBRANCH   1   6
TORSDOF 4
ENDMDL
MODEL 4
REMARK VINA RESULT:      -3.4      1.933      2.789
REMARK  4 active torsions:
REMARK  status: ('A' for Active; 'I' for Inactive)
REMARK    1  A    between atoms: N_1  and  O_2 
REMARK    2  A    between atoms: O_2  and  C_3 
REMARK    3  A    between atoms: C_3  and  C_4 
REMARK    4  A    between atoms: C_4  and  O_5 
ROOT
HETATM    1  C   UNK N   1      20.745  19.750   2.427  0.00  0.00     0.310 C 
ENDROOT
BRANCH   1   2
HETATM    2  O   UNK N   1      19.454  19.528   2.907  0.00  0.00    -0.277 OA
BRANCH   2   3
HETATM    3  N   UNK N   1      18.998  18.475   2.192  0.00  0.00    -0.311 N 
HETATM    4  H   UNK N   1      18.399  17.778   2.635  0.00  0.00     0.184 HD
HETATM    5  H   UNK N   1      19.254  18.377   1.209  0.00  0.00     0.184 HD
ENDBRANCH   2   3
ENDBRANCH   1   2
BRANCH   1   6
HETATM    6  C   UNK N   1      20.705  20.483   1.125  0.00  0.00     0.166 C 
HETATM    7  O   UNK N   1      20.755  21.708   1.101  0.00  0.00    -0.648 OA
BRANCH   6   8
HETATM    8  O   UNK N   1      20.613  19.800  -0.026  0.00  0.00    -0.775 OA
HETATM    9  H   UNK N   1      21.316  19.243  -0.298  0.00  0.00     0.167 HD
ENDBRANCH   6   8
ENDBRANCH   1   6
TORSDOF 4
ENDMDL
MODEL 5
REMARK VINA RESULT:      -3.3      1.858      1.892
REMARK  4 active torsions:
REMARK  status: ('A' for Active; 'I' for Inactive)
REMARK    1  A    between atoms: N_1  and  O_2 
REMARK    2  A    between atoms: O_2  and  C_3 
REMARK    3  A    between atoms: C_3  and  C_4 
REMARK    4  A    between atoms: C_4  and  O_5 
ROOT
HETATM    1  C   UNK N   1      20.641  19.573   1.829  0.00  0.00     0.310 C 
ENDROOT
BRANCH   1   2
HETATM    2  O   UNK N   1      20.053  18.429   2.371  0.00  0.00    -0.277 OA
BRANCH   2   3
HETATM    3  N   UNK N   1      18.723  18.666   2.315  0.00  0.00    -0.311 N 
HETATM    4  H   UNK N   1      18.063  17.894   2.406  0.00  0.00     0.184 HD
HETATM    5  H   UNK N   1      18.381  19.618   2.183  0.00  0.00     0.184 HD
ENDBRANCH   2   3
ENDBRANCH   1   2
BRANCH   1   6
HETATM    6  C   UNK N   1      20.912  20.583   2.897  0.00  0.00     0.166 C 
HETATM    7  O   UNK N   1      20.416  20.455   4.011  0.00  0.00    -0.648 OA
BRANCH   6   8
HETATM    8  O   UNK N   1      21.701  21.637   2.639  0.00  0.00    -0.775 OA
HETATM    9  H   UNK N   1      22.511  21.515   2.181  0.00  0.00     0.167 HD
ENDBRANCH   6   8
ENDBRANCH   1   6
TORSDOF 4
ENDMDL
MODEL 6
REMARK VINA RESULT:      -3.2     17.198     17.619
REMARK  4 active torsions:
REMARK  status: ('A' for Active; 'I' for Inactive)
REMARK    1  A    between atoms: N_1  and  O_2 
REMARK    2  A    between atoms: O_2  and  C_3 
REMARK    3  A    between atoms: C_3  and  C_4 
REMARK    4  A    between atoms: C_4  and  O_5 
ROOT
HETATM    1  C   UNK N   1      35.547  15.021  10.265  0.00  0.00     0.310 C 
ENDROOT
BRANCH   1   2
HETATM    2  O   UNK N   1      36.163  16.248  10.514  0.00  0.00    -0.277 OA
BRANCH   2   3
HETATM    3  N   UNK N   1      35.151  17.080  10.847  0.00  0.00    -0.311 N 
HETATM    4  H   UNK N   1      34.557  16.867  11.648  0.00  0.00     0.184 HD
HETATM    5  H   UNK N   1      34.981  17.922  10.296  0.00  0.00     0.184 HD
ENDBRANCH   2   3
ENDBRANCH   1   2
BRANCH   1   6
HETATM    6  C   UNK N   1      34.524  14.722  11.314  0.00  0.00     0.166 C 
HETATM    7  O   UNK N   1      34.866  14.272  12.402  0.00  0.00    -0.648 OA
BRANCH   6   8
HETATM    8  O   UNK N   1      33.224  14.947  11.066  0.00  0.00    -0.775 OA
HETATM    9  H   UNK N   1      32.962  15.337  10.254  0.00  0.00     0.167 HD
ENDBRANCH   6   8
ENDBRANCH   1   6
TORSDOF 4
ENDMDL
MODEL 7
REMARK VINA RESULT:      -3.1     21.802     22.376
REMARK  4 active torsions:
REMARK  status: ('A' for Active; 'I' for Inactive)
REMARK    1  A    between atoms: N_1  and  O_2 
REMARK    2  A    between atoms: O_2  and  C_3 
REMARK    3  A    between atoms: C_3  and  C_4 
REMARK    4  A    between atoms: C_4  and  O_5 
ROOT
HETATM    1  C   UNK N   1      43.936  23.244   2.278  0.00  0.00     0.310 C 
ENDROOT
BRANCH   1   2
HETATM    2  O   UNK N   1      44.297  24.195   3.234  0.00  0.00    -0.277 OA
BRANCH   2   3
HETATM    3  N   UNK N   1      43.545  23.896   4.317  0.00  0.00    -0.311 N 
HETATM    4  H   UNK N   1      42.548  24.109   4.321  0.00  0.00     0.184 HD
HETATM    5  H   UNK N   1      43.976  23.457   5.132  0.00  0.00     0.184 HD
ENDBRANCH   2   3
ENDBRANCH   1   2
BRANCH   1   6
HETATM    6  C   UNK N   1      42.465  22.979   2.328  0.00  0.00     0.166 C 
HETATM    7  O   UNK N   1      42.046  21.862   2.609  0.00  0.00    -0.648 OA
BRANCH   6   8
HETATM    8  O   UNK N   1      41.597  23.968   2.063  0.00  0.00    -0.775 OA
HETATM    9  H   UNK N   1      41.308  24.116   1.184  0.00  0.00     0.167 HD
ENDBRANCH   6   8
ENDBRANCH   1   6
TORSDOF 4
ENDMDL
MODEL 8
REMARK VINA RESULT:      -3.1     23.524     24.100
REMARK  4 active torsions:
REMARK  status: ('A' for Active; 'I' for Inactive)
REMARK    1  A    between atoms: N_1  and  O_2 
REMARK    2  A    between atoms: O_2  and  C_3 
REMARK    3  A    between atoms: C_3  and  C_4 
REMARK    4  A    between atoms: C_4  and  O_5 
ROOT
HETATM    1  C   UNK N   1      44.318  23.613   1.855  0.00  0.00     0.310 C 
ENDROOT
BRANCH   1   2
HETATM    2  O   UNK N   1      43.169  23.672   2.645  0.00  0.00    -0.277 OA
BRANCH   2   3
HETATM    3  N   UNK N   1      43.623  23.933   3.892  0.00  0.00    -0.311 N 
HETATM    4  H   UNK N   1      44.539  23.593   4.184  0.00  0.00     0.184 HD
HETATM    5  H   UNK N   1      43.047  24.471   4.541  0.00  0.00     0.184 HD
ENDBRANCH   2   3
ENDBRANCH   1   2
BRANCH   1   6
HETATM    6  C   UNK N   1      45.269  24.707   2.225  0.00  0.00     0.166 C 
HETATM    7  O   UNK N   1      45.024  25.869   1.921  0.00  0.00    -0.648 OA
BRANCH   6   8
HETATM    8  O   UNK N   1      46.396  24.417   2.892  0.00  0.00    -0.775 OA
HETATM    9  H   UNK N   1      46.789  23.571   2.804  0.00  0.00     0.167 HD
ENDBRANCH   6   8
ENDBRANCH   1   6
TORSDOF 4
ENDMDL
MODEL 9
REMARK VINA RESULT:      -3.0     23.089     23.641
REMARK  4 active torsions:
REMARK  status: ('A' for Active; 'I' for Inactive)
REMARK    1  A    between atoms: N_1  and  O_2 
REMARK    2  A    between atoms: O_2  and  C_3 
REMARK    3  A    between atoms: C_3  and  C_4 
REMARK    4  A    between atoms: C_4  and  O_5 
ROOT
HETATM    1  C   UNK N   1      43.470  21.825   4.087  0.00  0.00     0.310 C 
ENDROOT
BRANCH   1   2
HETATM    2  O   UNK N   1      43.133  22.928   3.301  0.00  0.00    -0.277 OA
BRANCH   2   3
HETATM    3  N   UNK N   1      43.559  23.998   4.008  0.00  0.00    -0.311 N 
HETATM    4  H   UNK N   1      44.166  24.690   3.569  0.00  0.00     0.184 HD
HETATM    5  H   UNK N   1      43.273  24.113   4.981  0.00  0.00     0.184 HD
ENDBRANCH   2   3
ENDBRANCH   1   2
BRANCH   1   6
HETATM    6  C   UNK N   1      44.909  21.465   3.899  0.00  0.00     0.166 C 
HETATM    7  O   UNK N   1      45.219  20.379   3.421  0.00  0.00    -0.648 OA
BRANCH   6   8
HETATM    8  O   UNK N   1      45.869  22.332   4.254  0.00  0.00    -0.775 OA
HETATM    9  H   UNK N   1      46.764  22.156   4.037  0.00  0.00     0.167 HD
ENDBRANCH   6   8
ENDBRANCH   1   6
TORSDOF 4
ENDMDL
