MODEL 1
REMARK VINA RESULT:      -5.5      0.000      0.000
REMARK  8 active torsions:
REMARK  status: ('A' for Active; 'I' for Inactive)
REMARK    1  A    between atoms: C_6  and  C_7 
REMARK    2  A    between atoms: C_7  and  O_8 
REMARK    3  A    between atoms: O_8  and  P_9 
REMARK    4  A    between atoms: P_9  and  O_10 
REMARK    5  A    between atoms: P_9  and  O_11 
REMARK    6  A    between atoms: C_13  and  C_14 
REMARK    7  A    between atoms: C_14  and  O_15 
REMARK    8  A    between atoms: C_16  and  O_17 
ROOT
HETATM    1  C   UNK N   1      23.316  11.847  13.530  0.00  0.00     0.071 C 
HETATM    2  C   UNK N   1      22.920  12.063  12.109  0.00  0.00     0.039 A 
HETATM    3  N   UNK N   1      21.605  12.031  11.777  0.00  0.00    -0.367 N 
ATOM      4  HN  UNK N   1      20.913  11.840  12.503  1.00  0.00     0.165 HD
HETATM    5  C   UNK N   1      21.186  12.247  10.504  0.00  0.00     0.098 A 
HETATM    6  C   UNK N   1      22.107  12.505   9.488  0.00  0.00    -0.007 A 
HETATM    7  C   UNK N   1      23.486  12.529   9.786  0.00  0.00     0.010 A 
HETATM    8  C   UNK N   1      23.892  12.305  11.126  0.00  0.00     0.096 A 
ENDROOT
BRANCH   6   9
HETATM    9  C   UNK N   1      21.572  12.805   8.122  0.00  0.00     0.221 C 
BRANCH   9  10
HETATM   10  O   UNK N   1      20.292  13.367   8.159  0.00  0.00    -0.292 OA
BRANCH  10  11
HETATM   11  P   UNK N   1      20.578  15.065   7.901  0.00  0.00     0.391 P 
HETATM   12  O   UNK N   1      19.523  15.074   9.040  0.00  0.00    -0.632 OA
BRANCH  11  13
HETATM   13  O   UNK N   1      19.320  16.088   7.286  0.00  0.00    -0.307 OA
HETATM   14  H   UNK N   1      19.255  16.474   6.398  0.00  0.00     0.222 HD
ENDBRANCH  11  13
BRANCH  11  15
HETATM   15  O   UNK N   1      19.896  14.385   6.457  0.00  0.00    -0.307 OA
HETATM   16  H   UNK N   1      19.400  13.575   6.254  0.00  0.00     0.222 HD
ENDBRANCH  11  15
ENDBRANCH  10  11
ENDBRANCH   9  10
ENDBRANCH   6   9
BRANCH   7  17
HETATM   17  C   UNK N   1      24.468  12.807   8.668  0.00  0.00     0.206 C 
BRANCH  17  18
HETATM   18  O   UNK N   1      25.416  13.785   8.971  0.00  0.00    -0.396 OA
HETATM   19  H   UNK N   1      26.262  13.830   8.500  0.00  0.00     0.209 HD
ENDBRANCH  17  18
ENDBRANCH   7  17
BRANCH   8  20
HETATM   20  O   UNK N   1      25.191  12.336  11.476  0.00  0.00    -0.358 OA
HETATM   21  H   UNK N   1      25.435  12.479  12.369  0.00  0.00     0.217 HD
ENDBRANCH   8  20
TORSDOF 8
ENDMDL
MODEL 2
REMARK VINA RESULT:      -5.4      8.316      9.694
REMARK  8 active torsions:
REMARK  status: ('A' for Active; 'I' for Inactive)
REMARK    1  A    between atoms: C_6  and  C_7 
REMARK    2  A    between atoms: C_7  and  O_8 
REMARK    3  A    between atoms: O_8  and  P_9 
REMARK    4  A    between atoms: P_9  and  O_10 
REMARK    5  A    between atoms: P_9  and  O_11 
REMARK    6  A    between atoms: C_13  and  C_14 
REMARK    7  A    between atoms: C_14  and  O_15 
REMARK    8  A    between atoms: C_16  and  O_17 
ROOT
HETATM    1  C   UNK N   1      28.102  19.401   4.403  0.00  0.00     0.071 C 
HETATM    2  C   UNK N   1      26.646  19.541   4.110  0.00  0.00     0.039 A 
HETATM    3  N   UNK N   1      26.241  20.463   3.202  0.00  0.00    -0.367 N 
ATOM      4  HN  UNK N   1      26.937  21.058   2.752  1.00  0.00     0.165 HD
HETATM    5  C   UNK N   1      24.932  20.615   2.877  0.00  0.00     0.098 A 
HETATM    6  C   UNK N   1      23.955  19.822   3.478  0.00  0.00    -0.007 A 
HETATM    7  C   UNK N   1      24.331  18.861   4.442  0.00  0.00     0.010 A 
HETATM    8  C   UNK N   1      25.707  18.722   4.756  0.00  0.00     0.096 A 
ENDROOT
BRANCH   6   9
HETATM    9  C   UNK N   1      22.539  19.992   3.021  0.00  0.00     0.221 C 
BRANCH   9  10
HETATM   10  O   UNK N   1      22.447  20.259   1.652  0.00  0.00    -0.292 OA
BRANCH  10  11
HETATM   11  P   UNK N   1      20.763  20.636   1.415  0.00  0.00     0.391 P 
HETATM   12  O   UNK N   1      21.338  20.767  -0.021  0.00  0.00    -0.632 OA
BRANCH  11  13
HETATM   13  O   UNK N   1      20.275  22.225   0.923  0.00  0.00    -0.307 OA
HETATM   14  H   UNK N   1      19.394  22.509   0.635  0.00  0.00     0.222 HD
ENDBRANCH  11  13
BRANCH  11  15
HETATM   15  O   UNK N   1      21.466  21.834   2.455  0.00  0.00    -0.307 OA
HETATM   16  H   UNK N   1      22.250  22.405   2.404  0.00  0.00     0.222 HD
ENDBRANCH  11  15
ENDBRANCH  10  11
ENDBRANCH   9  10
ENDBRANCH   6   9
BRANCH   7  17
HETATM   17  C   UNK N   1      23.254  18.013   5.085  0.00  0.00     0.206 C 
BRANCH  17  18
HETATM   18  O   UNK N   1      23.490  16.640   5.012  0.00  0.00    -0.396 OA
HETATM   19  H   UNK N   1      22.770  16.014   4.837  0.00  0.00     0.209 HD
ENDBRANCH  17  18
ENDBRANCH   7  17
BRANCH   8  20
HETATM   20  O   UNK N   1      26.129  17.811   5.651  0.00  0.00    -0.358 OA
HETATM   21  H   UNK N   1      25.829  17.848   6.538  0.00  0.00     0.217 HD
ENDBRANCH   8  20
TORSDOF 8
ENDMDL
MODEL 3
REMARK VINA RESULT:      -5.4      8.868     11.053
REMARK  8 active torsions:
REMARK  status: ('A' for Active; 'I' for Inactive)
REMARK    1  A    between atoms: C_6  and  C_7 
REMARK    2  A    between atoms: C_7  and  O_8 
REMARK    3  A    between atoms: O_8  and  P_9 
REMARK    4  A    between atoms: P_9  and  O_10 
REMARK    5  A    between atoms: P_9  and  O_11 
REMARK    6  A    between atoms: C_13  and  C_14 
REMARK    7  A    between atoms: C_14  and  O_15 
REMARK    8  A    between atoms: C_16  and  O_17 
ROOT
HETATM    1  C   UNK N   1      27.267  20.083   4.396  0.00  0.00     0.071 C 
HETATM    2  C   UNK N   1      28.101  19.175   5.234  0.00  0.00     0.039 A 
HETATM    3  N   UNK N   1      29.009  18.368   4.630  0.00  0.00    -0.367 N 
ATOM      4  HN  UNK N   1      29.090  18.383   3.613  1.00  0.00     0.165 HD
HETATM    5  C   UNK N   1      29.813  17.540   5.346  0.00  0.00     0.098 A 
HETATM    6  C   UNK N   1      29.724  17.492   6.737  0.00  0.00    -0.007 A 
HETATM    7  C   UNK N   1      28.780  18.302   7.404  0.00  0.00     0.010 A 
HETATM    8  C   UNK N   1      27.958  19.160   6.630  0.00  0.00     0.096 A 
ENDROOT
BRANCH   6   9
HETATM    9  C   UNK N   1      30.689  16.611   7.468  0.00  0.00     0.221 C 
BRANCH   9  10
HETATM   10  O   UNK N   1      32.013  16.824   7.073  0.00  0.00    -0.292 OA
BRANCH  10  11
HETATM   11  P   UNK N   1      32.627  17.939   8.261  0.00  0.00     0.391 P 
HETATM   12  O   UNK N   1      33.867  17.699   7.358  0.00  0.00    -0.632 OA
BRANCH  11  13
HETATM   13  O   UNK N   1      33.859  17.449   9.379  0.00  0.00    -0.307 OA
HETATM   14  H   UNK N   1      34.339  16.607   9.394  0.00  0.00     0.222 HD
ENDBRANCH  11  13
BRANCH  11  15
HETATM   15  O   UNK N   1      32.170  16.466   9.057  0.00  0.00    -0.307 OA
HETATM   16  H   UNK N   1      31.438  15.837   8.957  0.00  0.00     0.222 HD
ENDBRANCH  11  15
ENDBRANCH  10  11
ENDBRANCH   9  10
ENDBRANCH   6   9
BRANCH   7  17
HETATM   17  C   UNK N   1      28.697  18.232   8.914  0.00  0.00     0.206 C 
BRANCH  17  18
HETATM   18  O   UNK N   1      27.400  18.089   9.409  0.00  0.00    -0.396 OA
HETATM   19  H   UNK N   1      26.686  18.683   9.129  0.00  0.00     0.209 HD
ENDBRANCH  17  18
ENDBRANCH   7  17
BRANCH   8  20
HETATM   20  O   UNK N   1      27.054  19.970   7.210  0.00  0.00    -0.358 OA
HETATM   21  H   UNK N   1      26.161  19.698   7.292  0.00  0.00     0.217 HD
ENDBRANCH   8  20
TORSDOF 8
ENDMDL
MODEL 4
REMARK VINA RESULT:      -5.1      8.879     10.770
REMARK  8 active torsions:
REMARK  status: ('A' for Active; 'I' for Inactive)
REMARK    1  A    between atoms: C_6  and  C_7 
REMARK    2  A    between atoms: C_7  and  O_8 
REMARK    3  A    between atoms: O_8  and  P_9 
REMARK    4  A    between atoms: P_9  and  O_10 
REMARK    5  A    between atoms: P_9  and  O_11 
REMARK    6  A    between atoms: C_13  and  C_14 
REMARK    7  A    between atoms: C_14  and  O_15 
REMARK    8  A    between atoms: C_16  and  O_17 
ROOT
HETATM    1  C   UNK N   1      27.532  19.474   4.181  0.00  0.00     0.071 C 
HETATM    2  C   UNK N   1      28.361  18.749   5.187  0.00  0.00     0.039 A 
HETATM    3  N   UNK N   1      29.386  17.970   4.760  0.00  0.00    -0.367 N 
ATOM      4  HN  UNK N   1      29.559  17.880   3.759  1.00  0.00     0.165 HD
HETATM    5  C   UNK N   1      30.189  17.309   5.633  0.00  0.00     0.098 A 
HETATM    6  C   UNK N   1      29.977  17.408   7.008  0.00  0.00    -0.007 A 
HETATM    7  C   UNK N   1      28.909  18.193   7.494  0.00  0.00     0.010 A 
HETATM    8  C   UNK N   1      28.091  18.876   6.559  0.00  0.00     0.096 A 
ENDROOT
BRANCH   6   9
HETATM    9  C   UNK N   1      30.943  16.712   7.915  0.00  0.00     0.221 C 
BRANCH   9  10
HETATM   10  O   UNK N   1      32.110  16.317   7.254  0.00  0.00    -0.292 OA
BRANCH  10  11
HETATM   11  P   UNK N   1      33.015  15.471   8.478  0.00  0.00     0.391 P 
HETATM   12  O   UNK N   1      31.936  14.427   8.079  0.00  0.00    -0.632 OA
BRANCH  11  13
HETATM   13  O   UNK N   1      32.275  15.049   9.988  0.00  0.00    -0.307 OA
HETATM   14  H   UNK N   1      31.420  14.612  10.125  0.00  0.00     0.222 HD
ENDBRANCH  11  13
BRANCH  11  15
HETATM   15  O   UNK N   1      32.267  16.863   9.195  0.00  0.00    -0.307 OA
HETATM   16  H   UNK N   1      32.585  17.730   9.492  0.00  0.00     0.222 HD
ENDBRANCH  11  15
ENDBRANCH  10  11
ENDBRANCH   9  10
ENDBRANCH   6   9
BRANCH   7  17
HETATM   17  C   UNK N   1      28.694  18.285   8.990  0.00  0.00     0.206 C 
BRANCH  17  18
HETATM   18  O   UNK N   1      27.363  18.146   9.385  0.00  0.00    -0.396 OA
HETATM   19  H   UNK N   1      27.077  17.403   9.940  0.00  0.00     0.209 HD
ENDBRANCH  17  18
ENDBRANCH   7  17
BRANCH   8  20
HETATM   20  O   UNK N   1      27.072  19.656   6.962  0.00  0.00    -0.358 OA
HETATM   21  H   UNK N   1      27.241  20.434   7.457  0.00  0.00     0.217 HD
ENDBRANCH   8  20
TORSDOF 8
ENDMDL
MODEL 5
REMARK VINA RESULT:      -5.1      8.189     10.876
REMARK  8 active torsions:
REMARK  status: ('A' for Active; 'I' for Inactive)
REMARK    1  A    between atoms: C_6  and  C_7 
REMARK    2  A    between atoms: C_7  and  O_8 
REMARK    3  A    between atoms: O_8  and  P_9 
REMARK    4  A    between atoms: P_9  and  O_10 
REMARK    5  A    between atoms: P_9  and  O_11 
REMARK    6  A    between atoms: C_13  and  C_14 
REMARK    7  A    between atoms: C_14  and  O_15 
REMARK    8  A    between atoms: C_16  and  O_17 
ROOT
HETATM    1  C   UNK N   1      27.154  15.203   4.785  0.00  0.00     0.071 C 
HETATM    2  C   UNK N   1      28.225  15.785   5.644  0.00  0.00     0.039 A 
HETATM    3  N   UNK N   1      29.507  15.378   5.468  0.00  0.00    -0.367 N 
ATOM      4  HN  UNK N   1      29.711  14.668   4.764  1.00  0.00     0.165 HD
HETATM    5  C   UNK N   1      30.525  15.894   6.204  0.00  0.00     0.098 A 
HETATM    6  C   UNK N   1      30.278  16.862   7.176  0.00  0.00    -0.007 A 
HETATM    7  C   UNK N   1      28.956  17.301   7.405  0.00  0.00     0.010 A 
HETATM    8  C   UNK N   1      27.914  16.748   6.617  0.00  0.00     0.096 A 
ENDROOT
BRANCH   6   9
HETATM    9  C   UNK N   1      31.455  17.440   7.900  0.00  0.00     0.221 C 
BRANCH   9  10
HETATM   10  O   UNK N   1      32.585  17.549   7.085  0.00  0.00    -0.292 OA
BRANCH  10  11
HETATM   11  P   UNK N   1      33.905  17.647   8.216  0.00  0.00     0.391 P 
HETATM   12  O   UNK N   1      32.978  18.801   8.685  0.00  0.00    -0.632 OA
BRANCH  11  13
HETATM   13  O   UNK N   1      34.951  19.029   8.235  0.00  0.00    -0.307 OA
HETATM   14  H   UNK N   1      35.821  19.116   7.816  0.00  0.00     0.222 HD
ENDBRANCH  11  13
BRANCH  11  15
HETATM   15  O   UNK N   1      34.508  17.971   6.622  0.00  0.00    -0.307 OA
HETATM   16  H   UNK N   1      34.807  18.769   6.156  0.00  0.00     0.222 HD
ENDBRANCH  11  15
ENDBRANCH  10  11
ENDBRANCH   9  10
ENDBRANCH   6   9
BRANCH   7  17
HETATM   17  C   UNK N   1      28.710  18.350   8.468  0.00  0.00     0.206 C 
BRANCH  17  18
HETATM   18  O   UNK N   1      27.615  18.084   9.291  0.00  0.00    -0.396 OA
HETATM   19  H   UNK N   1      27.265  18.756   9.896  0.00  0.00     0.209 HD
ENDBRANCH  17  18
ENDBRANCH   7  17
BRANCH   8  20
HETATM   20  O   UNK N   1      26.638  17.140   6.774  0.00  0.00    -0.358 OA
HETATM   21  H   UNK N   1      26.002  16.548   7.124  0.00  0.00     0.217 HD
ENDBRANCH   8  20
TORSDOF 8
ENDMDL
MODEL 6
REMARK VINA RESULT:      -5.0      6.729      8.687
REMARK  8 active torsions:
REMARK  status: ('A' for Active; 'I' for Inactive)
REMARK    1  A    between atoms: C_6  and  C_7 
REMARK    2  A    between atoms: C_7  and  O_8 
REMARK    3  A    between atoms: O_8  and  P_9 
REMARK    4  A    between atoms: P_9  and  O_10 
REMARK    5  A    between atoms: P_9  and  O_11 
REMARK    6  A    between atoms: C_13  and  C_14 
REMARK    7  A    between atoms: C_14  and  O_15 
REMARK    8  A    between atoms: C_16  and  O_17 
ROOT
HETATM    1  C   UNK N   1      25.646  20.589   2.789  0.00  0.00     0.071 C 
HETATM    2  C   UNK N   1      24.582  19.771   3.440  0.00  0.00     0.039 A 
HETATM    3  N   UNK N   1      24.939  18.795   4.311  0.00  0.00    -0.367 N 
ATOM      4  HN  UNK N   1      25.929  18.626   4.490  1.00  0.00     0.165 HD
HETATM    5  C   UNK N   1      24.011  18.039   4.952  0.00  0.00     0.098 A 
HETATM    6  C   UNK N   1      22.650  18.242   4.725  0.00  0.00    -0.007 A 
HETATM    7  C   UNK N   1      22.236  19.235   3.812  0.00  0.00     0.010 A 
HETATM    8  C   UNK N   1      23.227  20.013   3.162  0.00  0.00     0.096 A 
ENDROOT
BRANCH   6   9
HETATM    9  C   UNK N   1      21.680  17.422   5.519  0.00  0.00     0.221 C 
BRANCH   9  10
HETATM   10  O   UNK N   1      21.395  17.987   6.765  0.00  0.00    -0.292 OA
BRANCH  10  11
HETATM   11  P   UNK N   1      20.274  16.865   7.483  0.00  0.00     0.391 P 
HETATM   12  O   UNK N   1      20.362  17.980   8.559  0.00  0.00    -0.632 OA
BRANCH  11  13
HETATM   13  O   UNK N   1      20.689  16.005   8.930  0.00  0.00    -0.307 OA
HETATM   14  H   UNK N   1      20.555  15.062   9.115  0.00  0.00     0.222 HD
ENDBRANCH  11  13
BRANCH  11  15
HETATM   15  O   UNK N   1      21.812  16.082   7.301  0.00  0.00    -0.307 OA
HETATM   16  H   UNK N   1      22.438  15.974   6.567  0.00  0.00     0.222 HD
ENDBRANCH  11  15
ENDBRANCH  10  11
ENDBRANCH   9  10
ENDBRANCH   6   9
BRANCH   7  17
HETATM   17  C   UNK N   1      20.753  19.437   3.578  0.00  0.00     0.206 C 
BRANCH  17  18
HETATM   18  O   UNK N   1      20.311  20.740   3.809  0.00  0.00    -0.396 OA
HETATM   19  H   UNK N   1      20.572  21.471   3.227  0.00  0.00     0.209 HD
ENDBRANCH  17  18
ENDBRANCH   7  17
BRANCH   8  20
HETATM   20  O   UNK N   1      22.894  20.988   2.298  0.00  0.00    -0.358 OA
HETATM   21  H   UNK N   1      22.000  21.259   2.215  0.00  0.00     0.217 HD
ENDBRANCH   8  20
TORSDOF 8
ENDMDL
MODEL 7
REMARK VINA RESULT:      -4.9     18.615     19.706
REMARK  8 active torsions:
REMARK  status: ('A' for Active; 'I' for Inactive)
REMARK    1  A    between atoms: C_6  and  C_7 
REMARK    2  A    between atoms: C_7  and  O_8 
REMARK    3  A    between atoms: O_8  and  P_9 
REMARK    4  A    between atoms: P_9  and  O_10 
REMARK    5  A    between atoms: P_9  and  O_11 
REMARK    6  A    between atoms: C_13  and  C_14 
REMARK    7  A    between atoms: C_14  and  O_15 
REMARK    8  A    between atoms: C_16  and  O_17 
ROOT
HETATM    1  C   UNK N   1      24.868  26.608  -5.524  0.00  0.00     0.071 C 
HETATM    2  C   UNK N   1      26.023  25.674  -5.392  0.00  0.00     0.039 A 
HETATM    3  N   UNK N   1      26.892  25.839  -4.365  0.00  0.00    -0.367 N 
ATOM      4  HN  UNK N   1      26.751  26.611  -3.713  1.00  0.00     0.165 HD
HETATM    5  C   UNK N   1      27.945  25.002  -4.181  0.00  0.00     0.098 A 
HETATM    6  C   UNK N   1      28.168  23.940  -5.057  0.00  0.00    -0.007 A 
HETATM    7  C   UNK N   1      27.298  23.742  -6.151  0.00  0.00     0.010 A 
HETATM    8  C   UNK N   1      26.204  24.629  -6.313  0.00  0.00     0.096 A 
ENDROOT
BRANCH   6   9
HETATM    9  C   UNK N   1      29.305  23.013  -4.755  0.00  0.00     0.221 C 
BRANCH   9  10
HETATM   10  O   UNK N   1      29.560  22.907  -3.385  0.00  0.00    -0.292 OA
BRANCH  10  11
HETATM   11  P   UNK N   1      31.278  22.631  -3.303  0.00  0.00     0.391 P 
HETATM   12  O   UNK N   1      30.739  21.248  -3.760  0.00  0.00    -0.632 OA
BRANCH  11  13
HETATM   13  O   UNK N   1      31.940  21.529  -2.139  0.00  0.00    -0.307 OA
HETATM   14  H   UNK N   1      32.499  20.756  -2.311  0.00  0.00     0.222 HD
ENDBRANCH  11  13
BRANCH  11  15
HETATM   15  O   UNK N   1      30.694  23.007  -1.713  0.00  0.00    -0.307 OA
HETATM   16  H   UNK N   1      30.199  23.747  -1.326  0.00  0.00     0.222 HD
ENDBRANCH  11  15
ENDBRANCH  10  11
ENDBRANCH   9  10
ENDBRANCH   6   9
BRANCH   7  17
HETATM   17  C   UNK N   1      27.560  22.585  -7.091  0.00  0.00     0.206 C 
BRANCH  17  18
HETATM   18  O   UNK N   1      26.416  21.871  -7.451  0.00  0.00    -0.396 OA
HETATM   19  H   UNK N   1      26.371  21.381  -8.287  0.00  0.00     0.209 HD
ENDBRANCH  17  18
ENDBRANCH   7  17
BRANCH   8  20
HETATM   20  O   UNK N   1      25.328  24.480  -7.322  0.00  0.00    -0.358 OA
HETATM   21  H   UNK N   1      24.873  25.224  -7.666  0.00  0.00     0.217 HD
ENDBRANCH   8  20
TORSDOF 8
ENDMDL
MODEL 8
REMARK VINA RESULT:      -4.9     12.386     13.191
REMARK  8 active torsions:
REMARK  status: ('A' for Active; 'I' for Inactive)
REMARK    1  A    between atoms: C_6  and  C_7 
REMARK    2  A    between atoms: C_7  and  O_8 
REMARK    3  A    between atoms: O_8  and  P_9 
REMARK    4  A    between atoms: P_9  and  O_10 
REMARK    5  A    between atoms: P_9  and  O_11 
REMARK    6  A    between atoms: C_13  and  C_14 
REMARK    7  A    between atoms: C_14  and  O_15 
REMARK    8  A    between atoms: C_16  and  O_17 
ROOT
HETATM    1  C   UNK N   1      35.229  10.448  11.521  0.00  0.00     0.071 C 
HETATM    2  C   UNK N   1      34.933  11.821  11.022  0.00  0.00     0.039 A 
HETATM    3  N   UNK N   1      34.039  11.979  10.014  0.00  0.00    -0.367 N 
ATOM      4  HN  UNK N   1      33.602  11.154   9.603  1.00  0.00     0.165 HD
HETATM    5  C   UNK N   1      33.712  13.208   9.538  0.00  0.00     0.098 A 
HETATM    6  C   UNK N   1      34.296  14.355  10.075  0.00  0.00    -0.007 A 
HETATM    7  C   UNK N   1      35.245  14.235  11.113  0.00  0.00     0.010 A 
HETATM    8  C   UNK N   1      35.562  12.939  11.592  0.00  0.00     0.096 A 
ENDROOT
BRANCH   6   9
HETATM    9  C   UNK N   1      33.837  15.682   9.554  0.00  0.00     0.221 C 
BRANCH   9  10
HETATM   10  O   UNK N   1      34.720  16.224   8.615  0.00  0.00    -0.292 OA
BRANCH  10  11
HETATM   11  P   UNK N   1      34.077  17.813   8.309  0.00  0.00     0.391 P 
HETATM   12  O   UNK N   1      34.695  17.434   6.936  0.00  0.00    -0.632 OA
BRANCH  11  13
HETATM   13  O   UNK N   1      35.134  19.141   7.956  0.00  0.00    -0.307 OA
HETATM   14  H   UNK N   1      35.913  19.424   8.460  0.00  0.00     0.222 HD
ENDBRANCH  11  13
BRANCH  11  15
HETATM   15  O   UNK N   1      35.319  17.933   9.514  0.00  0.00    -0.307 OA
HETATM   16  H   UNK N   1      36.288  17.985   9.491  0.00  0.00     0.222 HD
ENDBRANCH  11  15
ENDBRANCH  10  11
ENDBRANCH   9  10
ENDBRANCH   6   9
BRANCH   7  17
HETATM   17  C   UNK N   1      35.869  15.493  11.679  0.00  0.00     0.206 C 
BRANCH  17  18
HETATM   18  O   UNK N   1      36.904  16.016  10.903  0.00  0.00    -0.396 OA
HETATM   19  H   UNK N   1      37.310  15.498  10.190  0.00  0.00     0.209 HD
ENDBRANCH  17  18
ENDBRANCH   7  17
BRANCH   8  20
HETATM   20  O   UNK N   1      36.442  12.761  12.593  0.00  0.00    -0.358 OA
HETATM   21  H   UNK N   1      37.172  13.342  12.688  0.00  0.00     0.217 HD
ENDBRANCH   8  20
TORSDOF 8
ENDMDL
MODEL 9
REMARK VINA RESULT:      -4.9     10.049     11.543
REMARK  8 active torsions:
REMARK  status: ('A' for Active; 'I' for Inactive)
REMARK    1  A    between atoms: C_6  and  C_7 
REMARK    2  A    between atoms: C_7  and  O_8 
REMARK    3  A    between atoms: O_8  and  P_9 
REMARK    4  A    between atoms: P_9  and  O_10 
REMARK    5  A    between atoms: P_9  and  O_11 
REMARK    6  A    between atoms: C_13  and  C_14 
REMARK    7  A    between atoms: C_14  and  O_15 
REMARK    8  A    between atoms: C_16  and  O_17 
ROOT
HETATM    1  C   UNK N   1      35.281  15.082  11.914  0.00  0.00     0.071 C 
HETATM    2  C   UNK N   1      34.464  15.561  10.762  0.00  0.00     0.039 A 
HETATM    3  N   UNK N   1      33.307  14.922  10.461  0.00  0.00    -0.367 N 
ATOM      4  HN  UNK N   1      33.026  14.113  11.017  1.00  0.00     0.165 HD
HETATM    5  C   UNK N   1      32.511  15.331   9.440  0.00  0.00     0.098 A 
HETATM    6  C   UNK N   1      32.868  16.429   8.659  0.00  0.00    -0.007 A 
HETATM    7  C   UNK N   1      34.075  17.112   8.925  0.00  0.00     0.010 A 
HETATM    8  C   UNK N   1      34.882  16.665  10.002  0.00  0.00     0.096 A 
ENDROOT
BRANCH   6   9
HETATM    9  C   UNK N   1      31.911  16.871   7.595  0.00  0.00     0.221 C 
BRANCH   9  10
HETATM   10  O   UNK N   1      31.175  15.808   7.062  0.00  0.00    -0.292 OA
BRANCH  10  11
HETATM   11  P   UNK N   1      30.031  16.585   6.004  0.00  0.00     0.391 P 
HETATM   12  O   UNK N   1      29.810  15.081   5.686  0.00  0.00    -0.632 OA
BRANCH  11  13
HETATM   13  O   UNK N   1      30.221  16.498   4.283  0.00  0.00    -0.307 OA
HETATM   14  H   UNK N   1      30.629  15.783   3.770  0.00  0.00     0.222 HD
ENDBRANCH  11  13
BRANCH  11  15
HETATM   15  O   UNK N   1      31.635  17.065   5.547  0.00  0.00    -0.307 OA
HETATM   16  H   UNK N   1      32.066  17.289   4.706  0.00  0.00     0.222 HD
ENDBRANCH  11  15
ENDBRANCH  10  11
ENDBRANCH   9  10
ENDBRANCH   6   9
BRANCH   7  17
HETATM   17  C   UNK N   1      34.445  18.300   8.062  0.00  0.00     0.206 C 
BRANCH  17  18
HETATM   18  O   UNK N   1      35.271  19.230   8.695  0.00  0.00    -0.396 OA
HETATM   19  H   UNK N   1      34.918  20.068   9.035  0.00  0.00     0.209 HD
ENDBRANCH  17  18
ENDBRANCH   7  17
BRANCH   8  20
HETATM   20  O   UNK N   1      36.031  17.288  10.317  0.00  0.00    -0.358 OA
HETATM   21  H   UNK N   1      36.013  18.127  10.734  0.00  0.00     0.217 HD
ENDBRANCH   8  20
TORSDOF 8
ENDMDL
