REMARK  4 active torsions:
REMARK  status: ('A' for Active; 'I' for Inactive)
REMARK    1  A    between atoms: C_2  and  C_4 
REMARK    2  A    between atoms: C_4  and  C_5 
REMARK    3  A    between atoms: C_5  and  C_6 
REMARK    4  A    between atoms: C_6  and  O_7 
ROOT
HETATM    1  C   UNK N   1       2.230   1.348  -0.000  0.00  0.00     0.117 C 
ENDROOT
BRANCH   1   2
HETATM    2  C   UNK N   1       1.017   0.423  -0.000  0.00  0.00     0.088 C 
BRANCH   2   3
HETATM    3  C   UNK N   1      -0.294   1.144  -0.000  0.00  0.00     0.123 C 
HETATM    4  C   UNK N   1      -1.551   0.347   0.000  0.00  0.00     0.091 C 
HETATM    5  O   UNK N   1      -0.349   2.364   0.000  0.00  0.00    -0.298 OA
ENDBRANCH   2   3
ENDBRANCH   1   2
BRANCH   1   6
HETATM    6  C   UNK N   1       3.513   0.570  -0.000  0.00  0.00     0.139 C 
HETATM    7  O   UNK N   1       3.505  -0.654   0.000  0.00  0.00    -0.650 OA
BRANCH   6   8
HETATM    8  O   UNK N   1       4.687   1.224   0.000  0.00  0.00    -0.776 OA
HETATM    9  H   UNK N   1       5.491   0.744   0.000  0.00  0.00     0.167 HD
ENDBRANCH   6   8
ENDBRANCH   1   6
TORSDOF 4
