MODEL 1
REMARK VINA RESULT:      -4.7      0.000      0.000
REMARK  6 active torsions:
REMARK  status: ('A' for Active; 'I' for Inactive)
REMARK    1  A    between atoms: C_2  and  O_1 
REMARK    2  A    between atoms: C_2  and  C_3 
REMARK    3  A    between atoms: C_2  and  C_8 
REMARK    4  A    between atoms: C_3  and  S_4 
REMARK    5  A    between atoms: S_4  and  O_5 
REMARK    6  A    between atoms: C_8  and  O_9 
ROOT
HETATM    1  C   UNK N   1      19.659  17.950   2.564  0.00  0.00     0.231 C 
ENDROOT
BRANCH   1   2
HETATM    2  O   UNK N   1      18.544  18.770   2.367  0.00  0.00    -0.384 OA
HETATM    3  H   UNK N   1      17.821  18.486   1.788  0.00  0.00     0.210 HD
ENDBRANCH   1   2
BRANCH   1   4
HETATM    4  C   UNK N   1      20.779  18.755   3.219  0.00  0.00     0.198 C 
BRANCH   4   5
HETATM    5  S   UNK N   1      20.902  20.400   2.441  0.00  0.00     0.097 S 
HETATM    6  O   UNK N   1      20.341  20.681   3.844  0.00  0.00    -0.601 OA
HETATM    7  O   UNK N   1      22.306  19.918   2.837  0.00  0.00    -0.601 OA
BRANCH   5   8
HETATM    8  O   UNK N   1      21.756  21.842   2.809  0.00  0.00    -0.296 OA
HETATM    9  H   UNK N   1      21.413  22.509   3.425  0.00  0.00     0.232 HD
ENDBRANCH   5   8
ENDBRANCH   4   5
ENDBRANCH   1   4
BRANCH   1  10
HETATM   10  C   UNK N   1      20.101  17.346   1.265  0.00  0.00     0.170 C 
HETATM   11  O   UNK N   1      20.346  16.152   1.202  0.00  0.00    -0.648 OA
BRANCH  10  12
HETATM   12  O   UNK N   1      20.194  18.103   0.154  0.00  0.00    -0.774 OA
HETATM   13  H   UNK N   1      21.006  18.399  -0.207  0.00  0.00     0.167 HD
ENDBRANCH  10  12
ENDBRANCH   1  10
TORSDOF 6
ENDMDL
MODEL 2
REMARK VINA RESULT:      -4.6     14.888     15.795
REMARK  6 active torsions:
REMARK  status: ('A' for Active; 'I' for Inactive)
REMARK    1  A    between atoms: C_2  and  O_1 
REMARK    2  A    between atoms: C_2  and  C_3 
REMARK    3  A    between atoms: C_2  and  C_8 
REMARK    4  A    between atoms: C_3  and  S_4 
REMARK    5  A    between atoms: S_4  and  O_5 
REMARK    6  A    between atoms: C_8  and  O_9 
ROOT
HETATM    1  C   UNK N   1      34.509  17.247   9.264  0.00  0.00     0.231 C 
ENDROOT
BRANCH   1   2
HETATM    2  O   UNK N   1      35.434  17.366  10.305  0.00  0.00    -0.384 OA
HETATM    3  H   UNK N   1      35.180  17.780  11.144  0.00  0.00     0.210 HD
ENDBRANCH   1   2
BRANCH   1   4
HETATM    4  C   UNK N   1      34.581  15.842   8.671  0.00  0.00     0.198 C 
BRANCH   4   5
HETATM    5  S   UNK N   1      33.142  14.862   9.212  0.00  0.00     0.097 S 
HETATM    6  O   UNK N   1      33.964  15.073  10.493  0.00  0.00    -0.601 OA
HETATM    7  O   UNK N   1      32.705  16.314   8.964  0.00  0.00    -0.601 OA
BRANCH   5   8
HETATM    8  O   UNK N   1      31.868  15.116  10.332  0.00  0.00    -0.296 OA
HETATM    9  H   UNK N   1      31.263  15.872  10.272  0.00  0.00     0.232 HD
ENDBRANCH   5   8
ENDBRANCH   4   5
ENDBRANCH   1   4
BRANCH   1  10
HETATM   10  C   UNK N   1      34.753  18.299   8.223  0.00  0.00     0.170 C 
HETATM   11  O   UNK N   1      35.342  19.325   8.524  0.00  0.00    -0.648 OA
BRANCH  10  12
HETATM   12  O   UNK N   1      34.364  18.104   6.948  0.00  0.00    -0.774 OA
HETATM   13  H   UNK N   1      34.866  18.372   6.204  0.00  0.00     0.167 HD
ENDBRANCH  10  12
ENDBRANCH   1  10
TORSDOF 6
ENDMDL
MODEL 3
REMARK VINA RESULT:      -4.6      9.919     10.682
REMARK  6 active torsions:
REMARK  status: ('A' for Active; 'I' for Inactive)
REMARK    1  A    between atoms: C_2  and  O_1 
REMARK    2  A    between atoms: C_2  and  C_3 
REMARK    3  A    between atoms: C_2  and  C_8 
REMARK    4  A    between atoms: C_3  and  S_4 
REMARK    5  A    between atoms: S_4  and  O_5 
REMARK    6  A    between atoms: C_8  and  O_9 
ROOT
HETATM    1  C   UNK N   1      22.688  12.456  10.881  0.00  0.00     0.231 C 
ENDROOT
BRANCH   1   2
HETATM    2  O   UNK N   1      22.267  11.409  11.704  0.00  0.00    -0.384 OA
HETATM    3  H   UNK N   1      22.623  11.314  12.601  0.00  0.00     0.210 HD
ENDBRANCH   1   2
BRANCH   1   4
HETATM    4  C   UNK N   1      21.791  12.533   9.647  0.00  0.00     0.198 C 
BRANCH   4   5
HETATM    5  S   UNK N   1      20.808  14.069   9.687  0.00  0.00     0.097 S 
HETATM    6  O   UNK N   1      20.468  13.432   8.330  0.00  0.00    -0.601 OA
HETATM    7  O   UNK N   1      20.160  13.026  10.611  0.00  0.00    -0.601 OA
BRANCH   5   8
HETATM    8  O   UNK N   1      19.131  14.424   9.614  0.00  0.00    -0.296 OA
HETATM    9  H   UNK N   1      18.730  15.156  10.110  0.00  0.00     0.232 HD
ENDBRANCH   5   8
ENDBRANCH   4   5
ENDBRANCH   1   4
BRANCH   1  10
HETATM   10  C   UNK N   1      24.129  12.280  10.504  0.00  0.00     0.170 C 
HETATM   11  O   UNK N   1      24.426  11.993   9.356  0.00  0.00    -0.648 OA
BRANCH  10  12
HETATM   12  O   UNK N   1      25.103  12.473  11.415  0.00  0.00    -0.774 OA
HETATM   13  H   UNK N   1      25.841  11.904  11.515  0.00  0.00     0.167 HD
ENDBRANCH  10  12
ENDBRANCH   1  10
TORSDOF 6
ENDMDL
MODEL 4
REMARK VINA RESULT:      -4.6      1.086      1.667
REMARK  6 active torsions:
REMARK  status: ('A' for Active; 'I' for Inactive)
REMARK    1  A    between atoms: C_2  and  O_1 
REMARK    2  A    between atoms: C_2  and  C_3 
REMARK    3  A    between atoms: C_2  and  C_8 
REMARK    4  A    between atoms: C_3  and  S_4 
REMARK    5  A    between atoms: S_4  and  O_5 
REMARK    6  A    between atoms: C_8  and  O_9 
ROOT
HETATM    1  C   UNK N   1      20.173  17.895   2.341  0.00  0.00     0.231 C 
ENDROOT
BRANCH   1   2
HETATM    2  O   UNK N   1      19.241  17.453   3.284  0.00  0.00    -0.384 OA
HETATM    3  H   UNK N   1      18.923  16.538   3.270  0.00  0.00     0.210 HD
ENDBRANCH   1   2
BRANCH   1   4
HETATM    4  C   UNK N   1      20.079  19.413   2.198  0.00  0.00     0.198 C 
BRANCH   4   5
HETATM    5  S   UNK N   1      21.680  20.179   2.617  0.00  0.00     0.097 S 
HETATM    6  O   UNK N   1      21.320  20.771   1.246  0.00  0.00    -0.601 OA
HETATM    7  O   UNK N   1      20.569  20.828   3.458  0.00  0.00    -0.601 OA
BRANCH   5   8
HETATM    8  O   UNK N   1      22.215  21.792   2.851  0.00  0.00    -0.296 OA
HETATM    9  H   UNK N   1      22.938  22.182   2.334  0.00  0.00     0.232 HD
ENDBRANCH   5   8
ENDBRANCH   4   5
ENDBRANCH   1   4
BRANCH   1  10
HETATM   10  C   UNK N   1      19.959  17.203   1.028  0.00  0.00     0.170 C 
HETATM   11  O   UNK N   1      20.433  17.677   0.008  0.00  0.00    -0.648 OA
BRANCH  10  12
HETATM   12  O   UNK N   1      19.281  16.040   0.970  0.00  0.00    -0.774 OA
HETATM   13  H   UNK N   1      19.121  15.494   1.714  0.00  0.00     0.167 HD
ENDBRANCH  10  12
ENDBRANCH   1  10
TORSDOF 6
ENDMDL
MODEL 5
REMARK VINA RESULT:      -4.5     15.072     16.396
REMARK  6 active torsions:
REMARK  status: ('A' for Active; 'I' for Inactive)
REMARK    1  A    between atoms: C_2  and  O_1 
REMARK    2  A    between atoms: C_2  and  C_3 
REMARK    3  A    between atoms: C_2  and  C_8 
REMARK    4  A    between atoms: C_3  and  S_4 
REMARK    5  A    between atoms: S_4  and  O_5 
REMARK    6  A    between atoms: C_8  and  O_9 
ROOT
HETATM    1  C   UNK N   1      34.562  16.615   8.310  0.00  0.00     0.231 C 
ENDROOT
BRANCH   1   2
HETATM    2  O   UNK N   1      33.701  15.732   7.654  0.00  0.00    -0.384 OA
HETATM    3  H   UNK N   1      32.784  15.627   7.951  0.00  0.00     0.210 HD
ENDBRANCH   1   2
BRANCH   1   4
HETATM    4  C   UNK N   1      34.167  16.720   9.781  0.00  0.00     0.198 C 
BRANCH   4   5
HETATM    5  S   UNK N   1      35.459  15.971  10.829  0.00  0.00     0.097 S 
HETATM    6  O   UNK N   1      35.699  15.369   9.436  0.00  0.00    -0.601 OA
HETATM    7  O   UNK N   1      35.831  17.431  10.527  0.00  0.00    -0.601 OA
BRANCH   5   8
HETATM    8  O   UNK N   1      37.174  15.974  10.807  0.00  0.00    -0.296 OA
HETATM    9  H   UNK N   1      37.691  16.722  10.468  0.00  0.00     0.232 HD
ENDBRANCH   5   8
ENDBRANCH   4   5
ENDBRANCH   1   4
BRANCH   1  10
HETATM   10  C   UNK N   1      34.549  17.955   7.638  0.00  0.00     0.170 C 
HETATM   11  O   UNK N   1      34.177  18.050   6.480  0.00  0.00    -0.648 OA
BRANCH  10  12
HETATM   12  O   UNK N   1      34.908  19.064   8.315  0.00  0.00    -0.774 OA
HETATM   13  H   UNK N   1      35.701  19.537   8.154  0.00  0.00     0.167 HD
ENDBRANCH  10  12
ENDBRANCH   1  10
TORSDOF 6
ENDMDL
MODEL 6
REMARK VINA RESULT:      -4.5     13.794     15.291
REMARK  6 active torsions:
REMARK  status: ('A' for Active; 'I' for Inactive)
REMARK    1  A    between atoms: C_2  and  O_1 
REMARK    2  A    between atoms: C_2  and  C_3 
REMARK    3  A    between atoms: C_2  and  C_8 
REMARK    4  A    between atoms: C_3  and  S_4 
REMARK    5  A    between atoms: S_4  and  O_5 
REMARK    6  A    between atoms: C_8  and  O_9 
ROOT
HETATM    1  C   UNK N   1      34.595  17.911   8.285  0.00  0.00     0.231 C 
ENDROOT
BRANCH   1   2
HETATM    2  O   UNK N   1      35.086  19.211   8.433  0.00  0.00    -0.384 OA
HETATM    3  H   UNK N   1      34.672  19.950   7.961  0.00  0.00     0.210 HD
ENDBRANCH   1   2
BRANCH   1   4
HETATM    4  C   UNK N   1      33.146  17.960   7.806  0.00  0.00     0.198 C 
BRANCH   4   5
HETATM    5  S   UNK N   1      33.040  17.383   6.079  0.00  0.00     0.097 S 
HETATM    6  O   UNK N   1      34.539  17.629   6.309  0.00  0.00    -0.601 OA
HETATM    7  O   UNK N   1      32.845  16.190   7.028  0.00  0.00    -0.601 OA
BRANCH   5   8
HETATM    8  O   UNK N   1      33.687  16.048   5.217  0.00  0.00    -0.296 OA
HETATM    9  H   UNK N   1      34.522  15.621   5.466  0.00  0.00     0.232 HD
ENDBRANCH   5   8
ENDBRANCH   4   5
ENDBRANCH   1   4
BRANCH   1  10
HETATM   10  C   UNK N   1      34.725  17.152   9.572  0.00  0.00     0.170 C 
HETATM   11  O   UNK N   1      35.639  17.410  10.339  0.00  0.00    -0.648 OA
BRANCH  10  12
HETATM   12  O   UNK N   1      33.818  16.215   9.909  0.00  0.00    -0.774 OA
HETATM   13  H   UNK N   1      33.878  15.687  10.681  0.00  0.00     0.167 HD
ENDBRANCH  10  12
ENDBRANCH   1  10
TORSDOF 6
ENDMDL
MODEL 7
REMARK VINA RESULT:      -4.5      2.225      3.345
REMARK  6 active torsions:
REMARK  status: ('A' for Active; 'I' for Inactive)
REMARK    1  A    between atoms: C_2  and  O_1 
REMARK    2  A    between atoms: C_2  and  C_3 
REMARK    3  A    between atoms: C_2  and  C_8 
REMARK    4  A    between atoms: C_3  and  S_4 
REMARK    5  A    between atoms: S_4  and  O_5 
REMARK    6  A    between atoms: C_8  and  O_9 
ROOT
HETATM    1  C   UNK N   1      21.189  20.453   2.519  0.00  0.00     0.231 C 
ENDROOT
BRANCH   1   2
HETATM    2  O   UNK N   1      21.583  21.783   2.694  0.00  0.00    -0.384 OA
HETATM    3  H   UNK N   1      22.152  22.034   3.438  0.00  0.00     0.210 HD
ENDBRANCH   1   2
BRANCH   1   4
HETATM    4  C   UNK N   1      22.238  19.523   3.122  0.00  0.00     0.198 C 
BRANCH   4   5
HETATM    5  S   UNK N   1      21.449  18.368   4.293  0.00  0.00     0.097 S 
HETATM    6  O   UNK N   1      22.885  18.519   4.816  0.00  0.00    -0.601 OA
HETATM    7  O   UNK N   1      20.942  19.793   4.564  0.00  0.00    -0.601 OA
BRANCH   5   8
HETATM    8  O   UNK N   1      21.139  18.391   5.980  0.00  0.00    -0.296 OA
HETATM    9  H   UNK N   1      21.688  17.908   6.618  0.00  0.00     0.232 HD
ENDBRANCH   5   8
ENDBRANCH   4   5
ENDBRANCH   1   4
BRANCH   1  10
HETATM   10  C   UNK N   1      20.962  20.161   1.066  0.00  0.00     0.170 C 
HETATM   11  O   UNK N   1      21.302  20.975   0.222  0.00  0.00    -0.648 OA
BRANCH  10  12
HETATM   12  O   UNK N   1      20.421  18.989   0.679  0.00  0.00    -0.774 OA
HETATM   13  H   UNK N   1      20.848  18.161   0.780  0.00  0.00     0.167 HD
ENDBRANCH  10  12
ENDBRANCH   1  10
TORSDOF 6
ENDMDL
MODEL 8
REMARK VINA RESULT:      -4.4     15.578     16.905
REMARK  6 active torsions:
REMARK  status: ('A' for Active; 'I' for Inactive)
REMARK    1  A    between atoms: C_2  and  O_1 
REMARK    2  A    between atoms: C_2  and  C_3 
REMARK    3  A    between atoms: C_2  and  C_8 
REMARK    4  A    between atoms: C_3  and  S_4 
REMARK    5  A    between atoms: S_4  and  O_5 
REMARK    6  A    between atoms: C_8  and  O_9 
ROOT
HETATM    1  C   UNK N   1      34.592  15.858  10.820  0.00  0.00     0.231 C 
ENDROOT
BRANCH   1   2
HETATM    2  O   UNK N   1      33.616  14.958  11.256  0.00  0.00    -0.384 OA
HETATM    3  H   UNK N   1      32.703  15.029  10.937  0.00  0.00     0.210 HD
ENDBRANCH   1   2
BRANCH   1   4
HETATM    4  C   UNK N   1      34.729  15.772   9.301  0.00  0.00     0.198 C 
BRANCH   4   5
HETATM    5  S   UNK N   1      34.017  17.261   8.526  0.00  0.00     0.097 S 
HETATM    6  O   UNK N   1      35.220  17.785   9.325  0.00  0.00    -0.601 OA
HETATM    7  O   UNK N   1      34.770  16.445   7.464  0.00  0.00    -0.601 OA
BRANCH   5   8
HETATM    8  O   UNK N   1      34.602  18.439   7.425  0.00  0.00    -0.296 OA
HETATM    9  H   UNK N   1      34.725  18.255   6.480  0.00  0.00     0.232 HD
ENDBRANCH   5   8
ENDBRANCH   4   5
ENDBRANCH   1   4
BRANCH   1  10
HETATM   10  C   UNK N   1      35.897  15.589  11.508  0.00  0.00     0.170 C 
HETATM   11  O   UNK N   1      35.914  14.956  12.552  0.00  0.00    -0.648 OA
BRANCH  10  12
HETATM   12  O   UNK N   1      37.057  16.006  10.964  0.00  0.00    -0.774 OA
HETATM   13  H   UNK N   1      37.525  16.763  11.256  0.00  0.00     0.167 HD
ENDBRANCH  10  12
ENDBRANCH   1  10
TORSDOF 6
ENDMDL
MODEL 9
REMARK VINA RESULT:      -4.3     12.733     14.214
REMARK  6 active torsions:
REMARK  status: ('A' for Active; 'I' for Inactive)
REMARK    1  A    between atoms: C_2  and  O_1 
REMARK    2  A    between atoms: C_2  and  C_3 
REMARK    3  A    between atoms: C_2  and  C_8 
REMARK    4  A    between atoms: C_3  and  S_4 
REMARK    5  A    between atoms: S_4  and  O_5 
REMARK    6  A    between atoms: C_8  and  O_9 
ROOT
HETATM    1  C   UNK N   1      33.293  17.676   8.653  0.00  0.00     0.231 C 
ENDROOT
BRANCH   1   2
HETATM    2  O   UNK N   1      33.784  16.826   9.648  0.00  0.00    -0.384 OA
HETATM    3  H   UNK N   1      33.373  16.807  10.526  0.00  0.00     0.210 HD
ENDBRANCH   1   2
BRANCH   1   4
HETATM    4  C   UNK N   1      32.348  16.902   7.737  0.00  0.00     0.198 C 
BRANCH   4   5
HETATM    5  S   UNK N   1      30.631  17.064   8.331  0.00  0.00     0.097 S 
HETATM    6  O   UNK N   1      31.250  15.987   9.236  0.00  0.00    -0.601 OA
HETATM    7  O   UNK N   1      31.450  18.275   8.805  0.00  0.00    -0.601 OA
BRANCH   5   8
HETATM    8  O   UNK N   1      29.914  17.499   9.827  0.00  0.00    -0.296 OA
HETATM    9  H   UNK N   1      29.761  16.857  10.539  0.00  0.00     0.232 HD
ENDBRANCH   5   8
ENDBRANCH   4   5
ENDBRANCH   1   4
BRANCH   1  10
HETATM   10  C   UNK N   1      34.424  18.293   7.886  0.00  0.00     0.170 C 
HETATM   11  O   UNK N   1      34.570  18.029   6.703  0.00  0.00    -0.648 OA
BRANCH  10  12
HETATM   12  O   UNK N   1      35.259  19.168   8.480  0.00  0.00    -0.774 OA
HETATM   13  H   UNK N   1      36.019  19.525   8.065  0.00  0.00     0.167 HD
ENDBRANCH  10  12
ENDBRANCH   1  10
TORSDOF 6
ENDMDL
