MODEL 1
REMARK VINA RESULT:      -5.0      0.000      0.000
REMARK  4 active torsions:
REMARK  status: ('A' for Active; 'I' for Inactive)
REMARK    1  A    between atoms: C_2  and  C_1 
REMARK    2  A    between atoms: O_9  and  C_1 
REMARK    3  A    between atoms: C_4  and  O_10 
REMARK    4  A    between atoms: C_5  and  O_11 
ROOT
HETATM    1  C   UNK N   1      20.974  19.451   2.308  0.00  0.00     0.179 C 
HETATM    2  C   UNK N   1      20.959  18.031   4.799  0.00  0.00     0.261 C 
HETATM    3  C   UNK N   1      19.713  18.659   2.726  0.00  0.00     0.180 C 
HETATM    4  C   UNK N   1      20.140  17.491   3.622  0.00  0.00     0.188 C 
HETATM    5  C   UNK N   1      22.122  18.882   4.266  0.00  0.00     0.344 C 
HETATM    6  F   UNK N   1      21.444  16.985   5.566  0.00  0.00    -0.241 F 
HETATM    7  F   UNK N   1      23.042  18.109   3.571  0.00  0.00    -0.216 F 
HETATM    8  O   UNK N   1      21.645  19.946   3.459  0.00  0.00    -0.344 OA
ENDROOT
BRANCH   1   9
HETATM    9  C   UNK N   1      20.617  20.649   1.432  0.00  0.00     0.198 C 
BRANCH   9  10
HETATM   10  O   UNK N   1      20.579  20.289   0.083  0.00  0.00    -0.398 OA
HETATM   11  H   UNK N   1      21.128  19.664  -0.417  0.00  0.00     0.209 HD
ENDBRANCH   9  10
ENDBRANCH   1   9
BRANCH   3  12
HETATM   12  O   UNK N   1      19.039  18.164   1.605  0.00  0.00    -0.390 OA
HETATM   13  H   UNK N   1      18.267  17.578   1.589  0.00  0.00     0.210 HD
ENDBRANCH   3  12
BRANCH   4  14
HETATM   14  O   UNK N   1      19.018  16.805   4.095  0.00  0.00    -0.390 OA
HETATM   15  H   UNK N   1      18.314  16.531   3.486  0.00  0.00     0.210 HD
ENDBRANCH   4  14
TORSDOF 4
ENDMDL
MODEL 2
REMARK VINA RESULT:      -4.9      8.982     10.275
REMARK  4 active torsions:
REMARK  status: ('A' for Active; 'I' for Inactive)
REMARK    1  A    between atoms: C_2  and  C_1 
REMARK    2  A    between atoms: O_9  and  C_1 
REMARK    3  A    between atoms: C_4  and  O_10 
REMARK    4  A    between atoms: C_5  and  O_11 
ROOT
HETATM    1  C   UNK N   1      23.485  12.955   9.751  0.00  0.00     0.179 C 
HETATM    2  C   UNK N   1      21.251  11.940  11.234  0.00  0.00     0.261 C 
HETATM    3  C   UNK N   1      23.734  12.054  10.985  0.00  0.00     0.180 C 
HETATM    4  C   UNK N   1      22.566  12.228  11.963  0.00  0.00     0.188 C 
HETATM    5  C   UNK N   1      21.160  12.817   9.976  0.00  0.00     0.344 C 
HETATM    6  F   UNK N   1      20.175  12.191  12.070  0.00  0.00    -0.241 F 
HETATM    7  F   UNK N   1      21.053  14.163  10.299  0.00  0.00    -0.216 F 
HETATM    8  O   UNK N   1      22.267  12.590   9.118  0.00  0.00    -0.344 OA
ENDROOT
BRANCH   1   9
HETATM    9  C   UNK N   1      24.602  12.810   8.720  0.00  0.00     0.198 C 
BRANCH   9  10
HETATM   10  O   UNK N   1      25.527  13.851   8.836  0.00  0.00    -0.398 OA
HETATM   11  H   UNK N   1      26.074  14.283   8.163  0.00  0.00     0.209 HD
ENDBRANCH   9  10
ENDBRANCH   1   9
BRANCH   3  12
HETATM   12  O   UNK N   1      24.930  12.400  11.621  0.00  0.00    -0.390 OA
HETATM   13  H   UNK N   1      25.257  12.086  12.479  0.00  0.00     0.210 HD
ENDBRANCH   3  12
BRANCH   4  14
HETATM   14  O   UNK N   1      22.710  11.361  13.050  0.00  0.00    -0.390 OA
HETATM   15  H   UNK N   1      22.408  11.624  13.935  0.00  0.00     0.210 HD
ENDBRANCH   4  14
TORSDOF 4
ENDMDL
MODEL 3
REMARK VINA RESULT:      -4.9     13.857     15.188
REMARK  4 active torsions:
REMARK  status: ('A' for Active; 'I' for Inactive)
REMARK    1  A    between atoms: C_2  and  C_1 
REMARK    2  A    between atoms: O_9  and  C_1 
REMARK    3  A    between atoms: C_4  and  O_10 
REMARK    4  A    between atoms: C_5  and  O_11 
ROOT
HETATM    1  C   UNK N   1      34.392  15.605   9.303  0.00  0.00     0.179 C 
HETATM    2  C   UNK N   1      33.569  17.440   7.259  0.00  0.00     0.261 C 
HETATM    3  C   UNK N   1      34.567  17.126   9.528  0.00  0.00     0.180 C 
HETATM    4  C   UNK N   1      34.748  17.806   8.165  0.00  0.00     0.188 C 
HETATM    5  C   UNK N   1      33.430  15.911   7.191  0.00  0.00     0.344 C 
HETATM    6  F   UNK N   1      33.761  17.958   5.989  0.00  0.00    -0.241 F 
HETATM    7  F   UNK N   1      34.513  15.329   6.549  0.00  0.00    -0.216 F 
HETATM    8  O   UNK N   1      33.254  15.360   8.487  0.00  0.00    -0.344 OA
ENDROOT
BRANCH   1   9
HETATM    9  C   UNK N   1      34.180  14.867  10.622  0.00  0.00     0.198 C 
BRANCH   9  10
HETATM   10  O   UNK N   1      32.858  14.989  11.057  0.00  0.00    -0.398 OA
HETATM   11  H   UNK N   1      32.333  14.420  11.641  0.00  0.00     0.209 HD
ENDBRANCH   9  10
ENDBRANCH   1   9
BRANCH   3  12
HETATM   12  O   UNK N   1      35.683  17.387  10.329  0.00  0.00    -0.390 OA
HETATM   13  H   UNK N   1      35.693  17.679  11.254  0.00  0.00     0.210 HD
ENDBRANCH   3  12
BRANCH   4  14
HETATM   14  O   UNK N   1      34.819  19.193   8.320  0.00  0.00    -0.390 OA
HETATM   15  H   UNK N   1      35.227  19.581   9.111  0.00  0.00     0.210 HD
ENDBRANCH   4  14
TORSDOF 4
ENDMDL
MODEL 4
REMARK VINA RESULT:      -4.9     21.780     23.221
REMARK  4 active torsions:
REMARK  status: ('A' for Active; 'I' for Inactive)
REMARK    1  A    between atoms: C_2  and  C_1 
REMARK    2  A    between atoms: O_9  and  C_1 
REMARK    3  A    between atoms: C_4  and  O_10 
REMARK    4  A    between atoms: C_5  and  O_11 
ROOT
HETATM    1  C   UNK N   1      42.451  22.217   2.658  0.00  0.00     0.179 C 
HETATM    2  C   UNK N   1      44.809  20.614   2.958  0.00  0.00     0.261 C 
HETATM    3  C   UNK N   1      43.762  22.874   3.152  0.00  0.00     0.180 C 
HETATM    4  C   UNK N   1      44.596  21.816   3.883  0.00  0.00     0.188 C 
HETATM    5  C   UNK N   1      43.449  20.110   2.451  0.00  0.00     0.344 C 
HETATM    6  F   UNK N   1      45.472  19.602   3.632  0.00  0.00    -0.241 F 
HETATM    7  F   UNK N   1      42.685  19.582   3.483  0.00  0.00    -0.216 F 
HETATM    8  O   UNK N   1      42.745  21.141   1.778  0.00  0.00    -0.344 OA
ENDROOT
BRANCH   1   9
HETATM    9  C   UNK N   1      41.580  23.212   1.895  0.00  0.00     0.198 C 
BRANCH   9  10
HETATM   10  O   UNK N   1      42.358  24.221   1.323  0.00  0.00    -0.398 OA
HETATM   11  H   UNK N   1      42.961  24.859   1.734  0.00  0.00     0.209 HD
ENDBRANCH   9  10
ENDBRANCH   1   9
BRANCH   3  12
HETATM   12  O   UNK N   1      43.491  23.935   4.021  0.00  0.00    -0.390 OA
HETATM   13  H   UNK N   1      44.129  24.481   4.507  0.00  0.00     0.210 HD
ENDBRANCH   3  12
BRANCH   4  14
HETATM   14  O   UNK N   1      45.830  22.349   4.266  0.00  0.00    -0.390 OA
HETATM   15  H   UNK N   1      45.917  22.849   5.093  0.00  0.00     0.210 HD
ENDBRANCH   4  14
TORSDOF 4
ENDMDL
MODEL 5
REMARK VINA RESULT:      -4.7     14.344     15.459
REMARK  4 active torsions:
REMARK  status: ('A' for Active; 'I' for Inactive)
REMARK    1  A    between atoms: C_2  and  C_1 
REMARK    2  A    between atoms: O_9  and  C_1 
REMARK    3  A    between atoms: C_4  and  O_10 
REMARK    4  A    between atoms: C_5  and  O_11 
ROOT
HETATM    1  C   UNK N   1      34.713  16.739   9.775  0.00  0.00     0.179 C 
HETATM    2  C   UNK N   1      34.427  17.285   6.975  0.00  0.00     0.261 C 
HETATM    3  C   UNK N   1      34.970  15.610   8.748  0.00  0.00     0.180 C 
HETATM    4  C   UNK N   1      34.120  15.880   7.501  0.00  0.00     0.188 C 
HETATM    5  C   UNK N   1      34.237  18.308   8.106  0.00  0.00     0.344 C 
HETATM    6  F   UNK N   1      33.597  17.591   5.910  0.00  0.00    -0.241 F 
HETATM    7  F   UNK N   1      32.906  18.400   8.491  0.00  0.00    -0.216 F 
HETATM    8  O   UNK N   1      35.064  17.997   9.216  0.00  0.00    -0.344 OA
ENDROOT
BRANCH   1   9
HETATM    9  C   UNK N   1      35.551  16.546  11.037  0.00  0.00     0.198 C 
BRANCH   9  10
HETATM   10  O   UNK N   1      36.835  16.097  10.721  0.00  0.00    -0.398 OA
HETATM   11  H   UNK N   1      37.304  15.292  10.991  0.00  0.00     0.209 HD
ENDBRANCH   9  10
ENDBRANCH   1   9
BRANCH   3  12
HETATM   12  O   UNK N   1      34.630  14.363   9.282  0.00  0.00    -0.390 OA
HETATM   13  H   UNK N   1      33.828  14.128   9.774  0.00  0.00     0.210 HD
ENDBRANCH   3  12
BRANCH   4  14
HETATM   14  O   UNK N   1      34.392  14.930   6.513  0.00  0.00    -0.390 OA
HETATM   15  H   UNK N   1      34.132  14.002   6.635  0.00  0.00     0.210 HD
ENDBRANCH   4  14
TORSDOF 4
ENDMDL
MODEL 6
REMARK VINA RESULT:      -4.6     22.298     23.775
REMARK  4 active torsions:
REMARK  status: ('A' for Active; 'I' for Inactive)
REMARK    1  A    between atoms: C_2  and  C_1 
REMARK    2  A    between atoms: O_9  and  C_1 
REMARK    3  A    between atoms: C_4  and  O_10 
REMARK    4  A    between atoms: C_5  and  O_11 
ROOT
HETATM    1  C   UNK N   1      44.676  20.738   2.742  0.00  0.00     0.179 C 
HETATM    2  C   UNK N   1      42.412  22.497   2.711  0.00  0.00     0.261 C 
HETATM    3  C   UNK N   1      44.539  21.824   3.835  0.00  0.00     0.180 C 
HETATM    4  C   UNK N   1      43.749  23.005   3.258  0.00  0.00     0.188 C 
HETATM    5  C   UNK N   1      42.666  21.356   1.714  0.00  0.00     0.344 C 
HETATM    6  F   UNK N   1      41.725  23.528   2.091  0.00  0.00    -0.241 F 
HETATM    7  F   UNK N   1      43.320  21.809   0.577  0.00  0.00    -0.216 F 
HETATM    8  O   UNK N   1      43.390  20.300   2.325  0.00  0.00    -0.344 OA
ENDROOT
BRANCH   1   9
HETATM    9  C   UNK N   1      45.433  19.517   3.259  0.00  0.00     0.198 C 
BRANCH   9  10
HETATM   10  O   UNK N   1      46.773  19.826   3.505  0.00  0.00    -0.398 OA
HETATM   11  H   UNK N   1      47.541  19.804   2.914  0.00  0.00     0.209 HD
ENDBRANCH   9  10
ENDBRANCH   1   9
BRANCH   3  12
HETATM   12  O   UNK N   1      45.797  22.268   4.258  0.00  0.00    -0.390 OA
HETATM   13  H   UNK N   1      46.243  22.072   5.096  0.00  0.00     0.210 HD
ENDBRANCH   3  12
BRANCH   4  14
HETATM   14  O   UNK N   1      43.527  23.969   4.245  0.00  0.00    -0.390 OA
HETATM   15  H   UNK N   1      43.607  23.742   5.185  0.00  0.00     0.210 HD
ENDBRANCH   4  14
TORSDOF 4
ENDMDL
MODEL 7
REMARK VINA RESULT:      -4.6     16.086     17.339
REMARK  4 active torsions:
REMARK  status: ('A' for Active; 'I' for Inactive)
REMARK    1  A    between atoms: C_2  and  C_1 
REMARK    2  A    between atoms: O_9  and  C_1 
REMARK    3  A    between atoms: C_4  and  O_10 
REMARK    4  A    between atoms: C_5  and  O_11 
ROOT
HETATM    1  C   UNK N   1      35.354  15.148   9.922  0.00  0.00     0.179 C 
HETATM    2  C   UNK N   1      36.618  13.539  11.930  0.00  0.00     0.261 C 
HETATM    3  C   UNK N   1      34.629  14.896  11.266  0.00  0.00     0.180 C 
HETATM    4  C   UNK N   1      35.090  13.546  11.827  0.00  0.00     0.188 C 
HETATM    5  C   UNK N   1      37.226  13.899  10.566  0.00  0.00     0.344 C 
HETATM    6  F   UNK N   1      37.065  12.293  12.337  0.00  0.00    -0.241 F 
HETATM    7  F   UNK N   1      36.969  12.918   9.619  0.00  0.00    -0.216 F 
HETATM    8  O   UNK N   1      36.761  15.164  10.122  0.00  0.00    -0.344 OA
ENDROOT
BRANCH   1   9
HETATM    9  C   UNK N   1      34.959  16.494   9.318  0.00  0.00     0.198 C 
BRANCH   9  10
HETATM   10  O   UNK N   1      34.733  17.443  10.318  0.00  0.00    -0.398 OA
HETATM   11  H   UNK N   1      35.295  18.165  10.638  0.00  0.00     0.209 HD
ENDBRANCH   9  10
ENDBRANCH   1   9
BRANCH   3  12
HETATM   12  O   UNK N   1      33.242  14.877  11.089  0.00  0.00    -0.390 OA
HETATM   13  H   UNK N   1      32.746  15.070  10.278  0.00  0.00     0.210 HD
ENDBRANCH   3  12
BRANCH   4  14
HETATM   14  O   UNK N   1      34.525  13.324  13.086  0.00  0.00    -0.390 OA
HETATM   15  H   UNK N   1      35.005  12.817  13.760  0.00  0.00     0.210 HD
ENDBRANCH   4  14
TORSDOF 4
ENDMDL
MODEL 8
REMARK VINA RESULT:      -4.5     18.694     19.787
REMARK  4 active torsions:
REMARK  status: ('A' for Active; 'I' for Inactive)
REMARK    1  A    between atoms: C_2  and  C_1 
REMARK    2  A    between atoms: O_9  and  C_1 
REMARK    3  A    between atoms: C_4  and  O_10 
REMARK    4  A    between atoms: C_5  and  O_11 
ROOT
HETATM    1  C   UNK N   1      34.389  12.007  14.760  0.00  0.00     0.179 C 
HETATM    2  C   UNK N   1      36.802  13.462  15.293  0.00  0.00     0.261 C 
HETATM    3  C   UNK N   1      35.203  12.590  13.581  0.00  0.00     0.180 C 
HETATM    4  C   UNK N   1      35.955  13.833  14.072  0.00  0.00     0.188 C 
HETATM    5  C   UNK N   1      35.908  12.801  16.354  0.00  0.00     0.344 C 
HETATM    6  F   UNK N   1      37.410  14.590  15.816  0.00  0.00    -0.241 F 
HETATM    7  F   UNK N   1      34.984  13.698  16.872  0.00  0.00    -0.216 F 
HETATM    8  O   UNK N   1      35.259  11.655  15.828  0.00  0.00    -0.344 OA
ENDROOT
BRANCH   1   9
HETATM    9  C   UNK N   1      33.633  10.746  14.347  0.00  0.00     0.198 C 
BRANCH   9  10
HETATM   10  O   UNK N   1      34.146  10.223  13.158  0.00  0.00    -0.398 OA
HETATM   11  H   UNK N   1      35.046  10.247  12.797  0.00  0.00     0.209 HD
ENDBRANCH   9  10
ENDBRANCH   1   9
BRANCH   3  12
HETATM   12  O   UNK N   1      34.363  12.943  12.521  0.00  0.00    -0.390 OA
HETATM   13  H   UNK N   1      33.701  12.388  12.080  0.00  0.00     0.210 HD
ENDBRANCH   3  12
BRANCH   4  14
HETATM   14  O   UNK N   1      36.774  14.337  13.057  0.00  0.00    -0.390 OA
HETATM   15  H   UNK N   1      36.470  14.346  12.136  0.00  0.00     0.210 HD
ENDBRANCH   4  14
TORSDOF 4
ENDMDL
MODEL 9
REMARK VINA RESULT:      -4.5      2.067      3.672
REMARK  4 active torsions:
REMARK  status: ('A' for Active; 'I' for Inactive)
REMARK    1  A    between atoms: C_2  and  C_1 
REMARK    2  A    between atoms: O_9  and  C_1 
REMARK    3  A    between atoms: C_4  and  O_10 
REMARK    4  A    between atoms: C_5  and  O_11 
ROOT
HETATM    1  C   UNK N   1      21.489  19.487   3.601  0.00  0.00     0.179 C 
HETATM    2  C   UNK N   1      24.283  18.883   3.382  0.00  0.00     0.261 C 
HETATM    3  C   UNK N   1      22.384  20.345   2.676  0.00  0.00     0.180 C 
HETATM    4  C   UNK N   1      23.815  20.333   3.228  0.00  0.00     0.188 C 
HETATM    5  C   UNK N   1      23.268  18.104   4.234  0.00  0.00     0.344 C 
HETATM    6  F   UNK N   1      25.533  18.844   3.977  0.00  0.00    -0.241 F 
HETATM    7  F   UNK N   1      23.238  18.567   5.541  0.00  0.00    -0.216 F 
HETATM    8  O   UNK N   1      21.975  18.153   3.651  0.00  0.00    -0.344 OA
ENDROOT
BRANCH   1   9
HETATM    9  C   UNK N   1      20.050  19.434   3.093  0.00  0.00     0.198 C 
BRANCH   9  10
HETATM   10  O   UNK N   1      19.996  19.675   1.718  0.00  0.00    -0.398 OA
HETATM   11  H   UNK N   1      19.253  19.617   1.098  0.00  0.00     0.209 HD
ENDBRANCH   9  10
ENDBRANCH   1   9
BRANCH   3  12
HETATM   12  O   UNK N   1      21.920  21.663   2.614  0.00  0.00    -0.390 OA
HETATM   13  H   UNK N   1      22.420  22.455   2.364  0.00  0.00     0.210 HD
ENDBRANCH   3  12
BRANCH   4  14
HETATM   14  O   UNK N   1      24.673  21.024   2.368  0.00  0.00    -0.390 OA
HETATM   15  H   UNK N   1      25.232  21.744   2.703  0.00  0.00     0.210 HD
ENDBRANCH   4  14
TORSDOF 4
ENDMDL
