MODEL 1
REMARK VINA RESULT:      -5.1      0.000      0.000
REMARK  3 active torsions:
REMARK  status: ('A' for Active; 'I' for Inactive)
REMARK    1  A    between atoms: O_1  and  C_2 
REMARK    2  A    between atoms: C_2  and  C_4 
REMARK    3  A    between atoms: C_9  and  O_10 
ROOT
HETATM    1  C   UNK N   1      20.516  19.182   1.943  0.00  0.00     0.114 A 
HETATM    2  C   UNK N   1      20.621  19.460   3.292  0.00  0.00     0.190 A 
HETATM    3  O   UNK N   1      20.855  20.757   3.404  0.00  0.00    -0.247 OA
HETATM    4  N   UNK N   1      20.909  21.337   2.237  0.00  0.00    -0.239 N 
ATOM      5  HN  UNK N   1      21.077  22.328   2.058  1.00  0.00     0.197 HD
HETATM    6  C   UNK N   1      20.703  20.386   1.316  0.00  0.00     0.179 A 
ENDROOT
BRANCH   1   7
HETATM    7  C   UNK N   1      20.260  17.877   1.312  0.00  0.00     0.182 C 
HETATM    8  O   UNK N   1      20.015  16.899   2.001  0.00  0.00    -0.646 OA
BRANCH   7   9
HETATM    9  O   UNK N   1      20.293  17.755  -0.028  0.00  0.00    -0.772 OA
HETATM   10  H   UNK N   1      20.183  16.914  -0.426  0.00  0.00     0.167 HD
ENDBRANCH   7   9
ENDBRANCH   1   7
BRANCH   6  11
HETATM   11  O   UNK N   1      20.687  20.607  -0.009  0.00  0.00    -0.344 OA
HETATM   12  H   UNK N   1      19.969  20.300  -0.526  0.00  0.00     0.219 HD
ENDBRANCH   6  11
TORSDOF 3
ENDMDL
MODEL 2
REMARK VINA RESULT:      -4.9      1.716      3.028
REMARK  3 active torsions:
REMARK  status: ('A' for Active; 'I' for Inactive)
REMARK    1  A    between atoms: O_1  and  C_2 
REMARK    2  A    between atoms: C_2  and  C_4 
REMARK    3  A    between atoms: C_9  and  O_10 
ROOT
HETATM    1  C   UNK N   1      20.403  19.075   1.820  0.00  0.00     0.114 A 
HETATM    2  C   UNK N   1      20.074  18.875   3.147  0.00  0.00     0.190 A 
HETATM    3  O   UNK N   1      19.640  17.631   3.256  0.00  0.00    -0.247 OA
HETATM    4  N   UNK N   1      19.662  17.013   2.108  0.00  0.00    -0.239 N 
ATOM      5  HN  UNK N   1      19.378  16.048   1.931  1.00  0.00     0.197 HD
HETATM    6  C   UNK N   1      20.130  17.883   1.202  0.00  0.00     0.179 A 
ENDROOT
BRANCH   1   7
HETATM    7  C   UNK N   1      20.932  20.301   1.201  0.00  0.00     0.182 C 
HETATM    8  O   UNK N   1      21.643  21.056   1.844  0.00  0.00    -0.646 OA
BRANCH   7   9
HETATM    9  O   UNK N   1      20.633  20.596  -0.078  0.00  0.00    -0.772 OA
HETATM   10  H   UNK N   1      19.858  21.083  -0.279  0.00  0.00     0.167 HD
ENDBRANCH   7   9
ENDBRANCH   1   7
BRANCH   6  11
HETATM   11  O   UNK N   1      20.295  17.602  -0.101  0.00  0.00    -0.344 OA
HETATM   12  H   UNK N   1      20.523  18.284  -0.701  0.00  0.00     0.219 HD
ENDBRANCH   6  11
TORSDOF 3
ENDMDL
MODEL 3
REMARK VINA RESULT:      -4.8      1.567      3.096
REMARK  3 active torsions:
REMARK  status: ('A' for Active; 'I' for Inactive)
REMARK    1  A    between atoms: O_1  and  C_2 
REMARK    2  A    between atoms: C_2  and  C_4 
REMARK    3  A    between atoms: C_9  and  O_10 
ROOT
HETATM    1  C   UNK N   1      20.523  19.458   2.135  0.00  0.00     0.114 A 
HETATM    2  C   UNK N   1      20.261  18.163   2.539  0.00  0.00     0.190 A 
HETATM    3  O   UNK N   1      20.057  17.449   1.445  0.00  0.00    -0.247 OA
HETATM    4  N   UNK N   1      20.166  18.178   0.369  0.00  0.00    -0.239 N 
ATOM      5  HN  UNK N   1      20.054  17.860  -0.594  1.00  0.00     0.197 HD
HETATM    6  C   UNK N   1      20.454  19.425   0.768  0.00  0.00     0.179 A 
ENDROOT
BRANCH   1   7
HETATM    7  C   UNK N   1      20.813  20.623   2.987  0.00  0.00     0.182 C 
HETATM    8  O   UNK N   1      20.242  20.759   4.058  0.00  0.00    -0.646 OA
BRANCH   7   9
HETATM    9  O   UNK N   1      21.709  21.545   2.589  0.00  0.00    -0.772 OA
HETATM   10  H   UNK N   1      21.450  22.231   2.005  0.00  0.00     0.167 HD
ENDBRANCH   7   9
ENDBRANCH   1   7
BRANCH   6  11
HETATM   11  O   UNK N   1      20.640  20.461  -0.067  0.00  0.00    -0.344 OA
HETATM   12  H   UNK N   1      20.255  20.448  -0.922  0.00  0.00     0.219 HD
ENDBRANCH   6  11
TORSDOF 3
ENDMDL
MODEL 4
REMARK VINA RESULT:      -4.8     15.311     16.140
REMARK  3 active torsions:
REMARK  status: ('A' for Active; 'I' for Inactive)
REMARK    1  A    between atoms: O_1  and  C_2 
REMARK    2  A    between atoms: C_2  and  C_4 
REMARK    3  A    between atoms: C_9  and  O_10 
ROOT
HETATM    1  C   UNK N   1      34.196  17.087   8.875  0.00  0.00     0.114 A 
HETATM    2  C   UNK N   1      33.147  16.199   8.737  0.00  0.00     0.190 A 
HETATM    3  O   UNK N   1      33.200  15.373   9.768  0.00  0.00    -0.247 OA
HETATM    4  N   UNK N   1      34.198  15.656  10.559  0.00  0.00    -0.239 N 
ATOM      5  HN  UNK N   1      34.449  15.166  11.419  1.00  0.00     0.197 HD
HETATM    6  C   UNK N   1      34.830  16.712  10.031  0.00  0.00     0.179 A 
ENDROOT
BRANCH   1   7
HETATM    7  C   UNK N   1      34.558  18.196   7.978  0.00  0.00     0.182 C 
HETATM    8  O   UNK N   1      35.083  19.203   8.426  0.00  0.00    -0.646 OA
BRANCH   7   9
HETATM    9  O   UNK N   1      34.310  18.106   6.658  0.00  0.00    -0.772 OA
HETATM   10  H   UNK N   1      34.377  17.279   6.223  0.00  0.00     0.167 HD
ENDBRANCH   7   9
ENDBRANCH   1   7
BRANCH   6  11
HETATM   11  O   UNK N   1      35.915  17.291  10.571  0.00  0.00    -0.344 OA
HETATM   12  H   UNK N   1      35.831  18.102  11.034  0.00  0.00     0.219 HD
ENDBRANCH   6  11
TORSDOF 3
ENDMDL
MODEL 5
REMARK VINA RESULT:      -4.6     11.142     12.375
REMARK  3 active torsions:
REMARK  status: ('A' for Active; 'I' for Inactive)
REMARK    1  A    between atoms: O_1  and  C_2 
REMARK    2  A    between atoms: C_2  and  C_4 
REMARK    3  A    between atoms: C_9  and  O_10 
ROOT
HETATM    1  C   UNK N   1      22.232  12.422  11.033  0.00  0.00     0.114 A 
HETATM    2  C   UNK N   1      23.037  12.920  10.027  0.00  0.00     0.190 A 
HETATM    3  O   UNK N   1      24.290  12.729  10.403  0.00  0.00    -0.247 OA
HETATM    4  N   UNK N   1      24.358  12.149  11.569  0.00  0.00    -0.239 N 
ATOM      5  HN  UNK N   1      25.209  11.895  12.073  1.00  0.00     0.197 HD
HETATM    6  C   UNK N   1      23.099  11.948  11.981  0.00  0.00     0.179 A 
ENDROOT
BRANCH   1   7
HETATM    7  C   UNK N   1      20.761  12.404  11.079  0.00  0.00     0.182 C 
HETATM    8  O   UNK N   1      20.112  13.049  10.270  0.00  0.00    -0.646 OA
BRANCH   7   9
HETATM    9  O   UNK N   1      20.123  11.676  12.015  0.00  0.00    -0.772 OA
HETATM   10  H   UNK N   1      19.472  11.051  11.761  0.00  0.00     0.167 HD
ENDBRANCH   7   9
ENDBRANCH   1   7
BRANCH   6  11
HETATM   11  O   UNK N   1      22.769  11.369  13.148  0.00  0.00    -0.344 OA
HETATM   12  H   UNK N   1      23.441  11.100  13.743  0.00  0.00     0.219 HD
ENDBRANCH   6  11
TORSDOF 3
ENDMDL
MODEL 6
REMARK VINA RESULT:      -4.5      1.625      3.259
REMARK  3 active torsions:
REMARK  status: ('A' for Active; 'I' for Inactive)
REMARK    1  A    between atoms: O_1  and  C_2 
REMARK    2  A    between atoms: C_2  and  C_4 
REMARK    3  A    between atoms: C_9  and  O_10 
ROOT
HETATM    1  C   UNK N   1      20.532  19.209   1.976  0.00  0.00     0.114 A 
HETATM    2  C   UNK N   1      20.210  17.960   1.480  0.00  0.00     0.190 A 
HETATM    3  O   UNK N   1      19.969  17.181   2.521  0.00  0.00    -0.247 OA
HETATM    4  N   UNK N   1      20.110  17.825   3.646  0.00  0.00    -0.239 N 
ATOM      5  HN  UNK N   1      19.980  17.444   4.584  1.00  0.00     0.197 HD
HETATM    6  C   UNK N   1      20.458  19.082   3.338  0.00  0.00     0.179 A 
ENDROOT
BRANCH   1   7
HETATM    7  C   UNK N   1      20.880  20.416   1.209  0.00  0.00     0.182 C 
HETATM    8  O   UNK N   1      21.422  21.361   1.762  0.00  0.00    -0.646 OA
BRANCH   7   9
HETATM    9  O   UNK N   1      20.603  20.485  -0.107  0.00  0.00    -0.772 OA
HETATM   10  H   UNK N   1      21.298  20.475  -0.734  0.00  0.00     0.167 HD
ENDBRANCH   7   9
ENDBRANCH   1   7
BRANCH   6  11
HETATM   11  O   UNK N   1      20.692  20.045   4.244  0.00  0.00    -0.344 OA
HETATM   12  H   UNK N   1      20.682  20.945   3.984  0.00  0.00     0.219 HD
ENDBRANCH   6  11
TORSDOF 3
ENDMDL
MODEL 7
REMARK VINA RESULT:      -4.4     15.164     15.968
REMARK  3 active torsions:
REMARK  status: ('A' for Active; 'I' for Inactive)
REMARK    1  A    between atoms: O_1  and  C_2 
REMARK    2  A    between atoms: C_2  and  C_4 
REMARK    3  A    between atoms: C_9  and  O_10 
ROOT
HETATM    1  C   UNK N   1      34.272  17.028   8.990  0.00  0.00     0.114 A 
HETATM    2  C   UNK N   1      33.334  16.265   8.323  0.00  0.00     0.190 A 
HETATM    3  O   UNK N   1      32.998  16.930   7.230  0.00  0.00    -0.247 OA
HETATM    4  N   UNK N   1      33.644  18.060   7.140  0.00  0.00    -0.239 N 
ATOM      5  HN  UNK N   1      33.560  18.749   6.391  1.00  0.00     0.197 HD
HETATM    6  C   UNK N   1      34.439  18.145   8.215  0.00  0.00     0.179 A 
ENDROOT
BRANCH   1   7
HETATM    7  C   UNK N   1      34.948  16.712  10.259  0.00  0.00     0.182 C 
HETATM    8  O   UNK N   1      35.981  17.287  10.564  0.00  0.00    -0.646 OA
BRANCH   7   9
HETATM    9  O   UNK N   1      34.431  15.787  11.089  0.00  0.00    -0.772 OA
HETATM   10  H   UNK N   1      34.994  15.174  11.519  0.00  0.00     0.167 HD
ENDBRANCH   7   9
ENDBRANCH   1   7
BRANCH   6  11
HETATM   11  O   UNK N   1      35.260  19.178   8.468  0.00  0.00    -0.344 OA
HETATM   12  H   UNK N   1      35.053  20.031   8.140  0.00  0.00     0.219 HD
ENDBRANCH   6  11
TORSDOF 3
ENDMDL
MODEL 8
REMARK VINA RESULT:      -4.3     11.258     12.207
REMARK  3 active torsions:
REMARK  status: ('A' for Active; 'I' for Inactive)
REMARK    1  A    between atoms: O_1  and  C_2 
REMARK    2  A    between atoms: C_2  and  C_4 
REMARK    3  A    between atoms: C_9  and  O_10 
ROOT
HETATM    1  C   UNK N   1      30.707  21.777  -3.326  0.00  0.00     0.114 A 
HETATM    2  C   UNK N   1      30.288  21.285  -4.547  0.00  0.00     0.190 A 
HETATM    3  O   UNK N   1      31.190  20.402  -4.940  0.00  0.00    -0.247 OA
HETATM    4  N   UNK N   1      32.156  20.284  -4.072  0.00  0.00    -0.239 N 
ATOM      5  HN  UNK N   1      32.968  19.670  -4.147  1.00  0.00     0.197 HD
HETATM    6  C   UNK N   1      31.883  21.124  -3.064  0.00  0.00     0.179 A 
ENDROOT
BRANCH   1   7
HETATM    7  C   UNK N   1      30.039  22.784  -2.486  0.00  0.00     0.182 C 
HETATM    8  O   UNK N   1      30.476  23.046  -1.376  0.00  0.00    -0.646 OA
BRANCH   7   9
HETATM    9  O   UNK N   1      28.942  23.420  -2.937  0.00  0.00    -0.772 OA
HETATM   10  H   UNK N   1      28.090  23.092  -2.729  0.00  0.00     0.167 HD
ENDBRANCH   7   9
ENDBRANCH   1   7
BRANCH   6  11
HETATM   11  O   UNK N   1      32.659  21.279  -1.979  0.00  0.00    -0.344 OA
HETATM   12  H   UNK N   1      33.336  21.927  -1.976  0.00  0.00     0.219 HD
ENDBRANCH   6  11
TORSDOF 3
ENDMDL
MODEL 9
REMARK VINA RESULT:      -4.2      2.036      3.184
REMARK  3 active torsions:
REMARK  status: ('A' for Active; 'I' for Inactive)
REMARK    1  A    between atoms: O_1  and  C_2 
REMARK    2  A    between atoms: C_2  and  C_4 
REMARK    3  A    between atoms: C_9  and  O_10 
ROOT
HETATM    1  C   UNK N   1      21.675  19.909   2.785  0.00  0.00     0.114 A 
HETATM    2  C   UNK N   1      20.802  19.266   3.641  0.00  0.00     0.190 A 
HETATM    3  O   UNK N   1      19.660  19.120   2.992  0.00  0.00    -0.247 OA
HETATM    4  N   UNK N   1      19.725  19.615   1.788  0.00  0.00    -0.239 N 
ATOM      5  HN  UNK N   1      18.977  19.625   1.093  1.00  0.00     0.197 HD
HETATM    6  C   UNK N   1      20.961  20.110   1.633  0.00  0.00     0.179 A 
ENDROOT
BRANCH   1   7
HETATM    7  C   UNK N   1      23.070  20.296   3.049  0.00  0.00     0.182 C 
HETATM    8  O   UNK N   1      23.451  21.430   2.802  0.00  0.00    -0.646 OA
BRANCH   7   9
HETATM    9  O   UNK N   1      23.934  19.401   3.565  0.00  0.00    -0.772 OA
HETATM   10  H   UNK N   1      23.671  18.510   3.685  0.00  0.00     0.167 HD
ENDBRANCH   7   9
ENDBRANCH   1   7
BRANCH   6  11
HETATM   11  O   UNK N   1      21.402  20.705   0.513  0.00  0.00    -0.344 OA
HETATM   12  H   UNK N   1      21.526  21.634   0.494  0.00  0.00     0.219 HD
ENDBRANCH   6  11
TORSDOF 3
ENDMDL
