MODEL 1
REMARK VINA RESULT:      -6.4      0.000      0.000
REMARK  13 active torsions:
REMARK  status: ('A' for Active; 'I' for Inactive)
REMARK    1  A    between atoms: C_5  and  C_2 
REMARK    2  A    between atoms: O_28  and  C_2 
REMARK    3  A    between atoms: C_3  and  O_14 
REMARK    4  A    between atoms: C_10  and  C_4 
REMARK    5  A    between atoms: C_6  and  N_13 
REMARK    6  A    between atoms: C_7  and  O_15 
REMARK    7  A    between atoms: C_8  and  O_32 
REMARK    8  A    between atoms: C_9  and  O_31 
REMARK    9  A    between atoms: C_11  and  O_18 
REMARK   10  A    between atoms: C_12  and  O_31 
REMARK   11  A    between atoms: S_33  and  N_13 
REMARK   12  A    between atoms: S_34  and  O_28 
REMARK   13  A    between atoms: S_35  and  O_32 
ROOT
HETATM    1  C   UNK N   1      22.200  15.499   6.799  0.00  0.00     0.181 C 
HETATM    2  C   UNK N   1      22.033  12.560   6.556  0.00  0.00     0.181 C 
HETATM    3  C   UNK N   1      22.728  13.455   5.502  0.00  0.00     0.178 C 
HETATM    4  C   UNK N   1      22.074  14.846   5.364  0.00  0.00     0.186 C 
HETATM    5  C   UNK N   1      21.390  13.433   7.657  0.00  0.00     0.283 C 
HETATM    6  O   UNK N   1      22.143  14.601   7.911  0.00  0.00    -0.349 OA
ENDROOT
BRANCH   4   7
HETATM    7  O   UNK N   1      22.860  15.550   4.396  0.00  0.00    -0.347 OA
BRANCH   7   8
HETATM    8  C   UNK N   1      22.189  16.244   3.350  0.00  0.00     0.300 C 
HETATM    9  C   UNK N   1      20.778  15.678   3.031  0.00  0.00     0.233 C 
HETATM   10  C   UNK N   1      20.083  16.534   1.951  0.00  0.00     0.179 C 
HETATM   11  C   UNK N   1      20.172  17.985   2.319  0.00  0.00     0.051 C 
HETATM   12  C   UNK N   1      21.186  18.455   3.072  0.00  0.00     0.147 C 
HETATM   13  O   UNK N   1      22.152  17.617   3.553  0.00  0.00    -0.311 OA
BRANCH   9  14
HETATM   14  O   UNK N   1      20.689  14.287   2.749  0.00  0.00    -0.244 OA
BRANCH  14  15
HETATM   15  S   UNK N   1      19.303  13.471   3.417  0.00  0.00     0.252 S 
HETATM   16  O   UNK N   1      18.447  14.160   4.739  0.00  0.00    -0.572 OA
HETATM   17  O   UNK N   1      18.310  13.148   2.291  0.00  0.00    -0.572 OA
HETATM   18  O   UNK N   1      19.768  12.079   3.873  0.00  0.00    -0.572 OA
ENDBRANCH  14  15
ENDBRANCH   9  14
BRANCH  10  19
HETATM   19  O   UNK N   1      20.675  16.375   0.700  0.00  0.00    -0.389 OA
HETATM   20  H   UNK N   1      20.363  15.947  -0.114  0.00  0.00     0.210 HD
ENDBRANCH  10  19
BRANCH  12  21
HETATM   21  C   UNK N   1      21.258  19.903   3.357  0.00  0.00     0.233 C 
HETATM   22  O   UNK N   1      20.312  20.469   3.887  0.00  0.00    -0.642 OA
HETATM   23  O   UNK N   1      22.365  20.606   3.062  0.00  0.00    -0.642 OA
ENDBRANCH  12  21
ENDBRANCH   7   8
ENDBRANCH   4   7
BRANCH   1  24
HETATM   24  C   UNK N   1      21.287  16.693   7.071  0.00  0.00     0.227 C 
BRANCH  24  25
HETATM   25  O   UNK N   1      20.786  16.714   8.376  0.00  0.00    -0.254 OA
BRANCH  25  26
HETATM   26  S   UNK N   1      19.140  17.183   8.192  0.00  0.00     0.251 S 
HETATM   27  O   UNK N   1      19.188  15.733   9.111  0.00  0.00    -0.572 OA
HETATM   28  O   UNK N   1      18.285  16.196   7.382  0.00  0.00    -0.572 OA
HETATM   29  O   UNK N   1      18.409  17.527   9.499  0.00  0.00    -0.572 OA
ENDBRANCH  25  26
ENDBRANCH  24  25
ENDBRANCH   1  24
BRANCH   3  30
HETATM   30  O   UNK N   1      22.794  12.787   4.276  0.00  0.00    -0.391 OA
HETATM   31  H   UNK N   1      22.108  12.627   3.609  0.00  0.00     0.210 HD
ENDBRANCH   3  30
BRANCH   2  32
HETATM   32  N   UNK N   1      23.036  11.632   7.098  0.00  0.00    -0.289 N 
HETATM   33  H   UNK N   1      23.606  11.834   7.919  0.00  0.00     0.175 HD
BRANCH  32  34
HETATM   34  S   UNK N   1      23.149  10.118   6.165  0.00  0.00     0.205 S 
HETATM   35  O   UNK N   1      23.416   8.725   7.132  0.00  0.00    -0.578 OA
HETATM   36  O   UNK N   1      24.296  10.258   5.154  0.00  0.00    -0.578 OA
HETATM   37  O   UNK N   1      21.891   9.927   5.301  0.00  0.00    -0.578 OA
ENDBRANCH  32  34
ENDBRANCH   2  32
BRANCH   5  38
HETATM   38  O   UNK N   1      20.080  13.760   7.298  0.00  0.00    -0.369 OA
HETATM   39  H   UNK N   1      19.544  14.496   6.964  0.00  0.00     0.212 HD
ENDBRANCH   5  38
TORSDOF 13
ENDMDL
MODEL 2
REMARK VINA RESULT:      -6.3      2.293      7.352
REMARK  13 active torsions:
REMARK  status: ('A' for Active; 'I' for Inactive)
REMARK    1  A    between atoms: C_5  and  C_2 
REMARK    2  A    between atoms: O_28  and  C_2 
REMARK    3  A    between atoms: C_3  and  O_14 
REMARK    4  A    between atoms: C_10  and  C_4 
REMARK    5  A    between atoms: C_6  and  N_13 
REMARK    6  A    between atoms: C_7  and  O_15 
REMARK    7  A    between atoms: C_8  and  O_32 
REMARK    8  A    between atoms: C_9  and  O_31 
REMARK    9  A    between atoms: C_11  and  O_18 
REMARK   10  A    between atoms: C_12  and  O_31 
REMARK   11  A    between atoms: S_33  and  N_13 
REMARK   12  A    between atoms: S_34  and  O_28 
REMARK   13  A    between atoms: S_35  and  O_32 
ROOT
HETATM    1  C   UNK N   1      21.959  14.823   4.015  0.00  0.00     0.181 C 
HETATM    2  C   UNK N   1      20.960  17.601   3.952  0.00  0.00     0.181 C 
HETATM    3  C   UNK N   1      22.079  17.129   4.911  0.00  0.00     0.178 C 
HETATM    4  C   UNK N   1      21.915  15.660   5.356  0.00  0.00     0.186 C 
HETATM    5  C   UNK N   1      20.415  16.406   3.139  0.00  0.00     0.283 C 
HETATM    6  O   UNK N   1      21.424  15.460   2.852  0.00  0.00    -0.349 OA
ENDROOT
BRANCH   4   7
HETATM    7  O   UNK N   1      23.046  15.379   6.189  0.00  0.00    -0.347 OA
BRANCH   7   8
HETATM    8  C   UNK N   1      22.894  14.440   7.247  0.00  0.00     0.300 C 
HETATM    9  C   UNK N   1      21.534  14.553   7.990  0.00  0.00     0.233 C 
HETATM   10  C   UNK N   1      21.410  13.449   9.061  0.00  0.00     0.179 C 
HETATM   11  C   UNK N   1      21.755  12.119   8.462  0.00  0.00     0.051 C 
HETATM   12  C   UNK N   1      22.601  12.020   7.418  0.00  0.00     0.147 C 
HETATM   13  O   UNK N   1      23.148  13.135   6.848  0.00  0.00    -0.311 OA
BRANCH   9  14
HETATM   14  O   UNK N   1      21.180  15.833   8.497  0.00  0.00    -0.244 OA
BRANCH  14  15
HETATM   15  S   UNK N   1      19.516  16.297   8.274  0.00  0.00     0.252 S 
HETATM   16  O   UNK N   1      18.763  16.109   6.741  0.00  0.00    -0.572 OA
HETATM   17  O   UNK N   1      18.650  15.618   9.345  0.00  0.00    -0.572 OA
HETATM   18  O   UNK N   1      19.405  17.786   8.638  0.00  0.00    -0.572 OA
ENDBRANCH  14  15
ENDBRANCH   9  14
BRANCH  10  19
HETATM   19  O   UNK N   1      22.270  13.668  10.136  0.00  0.00    -0.389 OA
HETATM   20  H   UNK N   1      23.180  14.001  10.180  0.00  0.00     0.210 HD
ENDBRANCH  10  19
BRANCH  12  21
HETATM   21  C   UNK N   1      22.952  10.680   6.902  0.00  0.00     0.233 C 
HETATM   22  O   UNK N   1      23.720   9.965   7.531  0.00  0.00    -0.642 OA
HETATM   23  O   UNK N   1      22.417  10.225   5.756  0.00  0.00    -0.642 OA
ENDBRANCH  12  21
ENDBRANCH   7   8
ENDBRANCH   4   7
BRANCH   1  24
HETATM   24  C   UNK N   1      21.416  13.398   4.102  0.00  0.00     0.227 C 
BRANCH  24  25
HETATM   25  O   UNK N   1      20.201  13.316   4.790  0.00  0.00    -0.254 OA
BRANCH  25  26
HETATM   26  S   UNK N   1      19.185  12.393   3.750  0.00  0.00     0.251 S 
HETATM   27  O   UNK N   1      18.192  13.424   4.699  0.00  0.00    -0.572 OA
HETATM   28  O   UNK N   1      18.236  11.432   4.481  0.00  0.00    -0.572 OA
HETATM   29  O   UNK N   1      18.384  13.210   2.726  0.00  0.00    -0.572 OA
ENDBRANCH  25  26
ENDBRANCH  24  25
ENDBRANCH   1  24
BRANCH   3  30
HETATM   30  O   UNK N   1      22.172  17.997   6.003  0.00  0.00    -0.391 OA
HETATM   31  H   UNK N   1      22.858  18.081   6.683  0.00  0.00     0.210 HD
ENDBRANCH   3  30
BRANCH   2  32
HETATM   32  N   UNK N   1      21.514  18.654   3.088  0.00  0.00    -0.289 N 
HETATM   33  H   UNK N   1      22.478  18.664   2.756  0.00  0.00     0.175 HD
BRANCH  32  34
HETATM   34  S   UNK N   1      20.319  19.914   2.687  0.00  0.00     0.205 S 
HETATM   35  O   UNK N   1      20.673  20.772   1.242  0.00  0.00    -0.578 OA
HETATM   36  O   UNK N   1      20.249  20.905   3.857  0.00  0.00    -0.578 OA
HETATM   37  O   UNK N   1      18.908  19.307   2.606  0.00  0.00    -0.578 OA
ENDBRANCH  32  34
ENDBRANCH   2  32
BRANCH   5  38
HETATM   38  O   UNK N   1      19.358  15.806   3.828  0.00  0.00    -0.369 OA
HETATM   39  H   UNK N   1      18.826  14.995   3.847  0.00  0.00     0.212 HD
ENDBRANCH   5  38
TORSDOF 13
ENDMDL
MODEL 3
REMARK VINA RESULT:      -6.2      2.702      7.215
REMARK  13 active torsions:
REMARK  status: ('A' for Active; 'I' for Inactive)
REMARK    1  A    between atoms: C_5  and  C_2 
REMARK    2  A    between atoms: O_28  and  C_2 
REMARK    3  A    between atoms: C_3  and  O_14 
REMARK    4  A    between atoms: C_10  and  C_4 
REMARK    5  A    between atoms: C_6  and  N_13 
REMARK    6  A    between atoms: C_7  and  O_15 
REMARK    7  A    between atoms: C_8  and  O_32 
REMARK    8  A    between atoms: C_9  and  O_31 
REMARK    9  A    between atoms: C_11  and  O_18 
REMARK   10  A    between atoms: C_12  and  O_31 
REMARK   11  A    between atoms: S_33  and  N_13 
REMARK   12  A    between atoms: S_34  and  O_28 
REMARK   13  A    between atoms: S_35  and  O_32 
ROOT
HETATM    1  C   UNK N   1      20.652  15.328   3.157  0.00  0.00     0.181 C 
HETATM    2  C   UNK N   1      21.179  18.153   3.842  0.00  0.00     0.181 C 
HETATM    3  C   UNK N   1      21.743  16.967   4.661  0.00  0.00     0.178 C 
HETATM    4  C   UNK N   1      20.805  15.741   4.675  0.00  0.00     0.186 C 
HETATM    5  C   UNK N   1      20.260  17.632   2.714  0.00  0.00     0.283 C 
HETATM    6  O   UNK N   1      20.703  16.393   2.202  0.00  0.00    -0.349 OA
ENDROOT
BRANCH   4   7
HETATM    7  O   UNK N   1      21.493  14.735   5.427  0.00  0.00    -0.347 OA
BRANCH   7   8
HETATM    8  C   UNK N   1      21.004  14.399   6.721  0.00  0.00     0.300 C 
HETATM    9  C   UNK N   1      22.125  14.146   7.765  0.00  0.00     0.233 C 
HETATM   10  C   UNK N   1      21.517  13.874   9.157  0.00  0.00     0.179 C 
HETATM   11  C   UNK N   1      20.503  14.929   9.483  0.00  0.00     0.051 C 
HETATM   12  C   UNK N   1      19.826  15.573   8.511  0.00  0.00     0.147 C 
HETATM   13  O   UNK N   1      20.065  15.307   7.193  0.00  0.00    -0.311 OA
BRANCH   9  14
HETATM   14  O   UNK N   1      23.123  13.192   7.422  0.00  0.00    -0.244 OA
BRANCH  14  15
HETATM   15  S   UNK N   1      24.707  13.843   7.103  0.00  0.00     0.252 S 
HETATM   16  O   UNK N   1      25.798  13.002   6.077  0.00  0.00    -0.572 OA
HETATM   17  O   UNK N   1      24.573  15.292   6.612  0.00  0.00    -0.572 OA
HETATM   18  O   UNK N   1      25.414  14.005   8.458  0.00  0.00    -0.572 OA
ENDBRANCH  14  15
ENDBRANCH   9  14
BRANCH  10  19
HETATM   19  O   UNK N   1      20.877  12.637   9.213  0.00  0.00    -0.389 OA
HETATM   20  H   UNK N   1      21.171  11.770   9.535  0.00  0.00     0.210 HD
ENDBRANCH  10  19
BRANCH  12  21
HETATM   21  C   UNK N   1      18.796  16.564   8.889  0.00  0.00     0.233 C 
HETATM   22  O   UNK N   1      17.642  16.205   9.073  0.00  0.00    -0.642 OA
HETATM   23  O   UNK N   1      19.120  17.858   9.056  0.00  0.00    -0.642 OA
ENDBRANCH  12  21
ENDBRANCH   7   8
ENDBRANCH   4   7
BRANCH   1  24
HETATM   24  C   UNK N   1      19.471  14.416   2.830  0.00  0.00     0.227 C 
BRANCH  24  25
HETATM   25  O   UNK N   1      19.852  13.093   2.587  0.00  0.00    -0.254 OA
BRANCH  25  26
HETATM   26  S   UNK N   1      18.481  12.163   3.055  0.00  0.00     0.251 S 
HETATM   27  O   UNK N   1      19.612  12.144   4.348  0.00  0.00    -0.572 OA
HETATM   28  O   UNK N   1      18.771  10.672   3.278  0.00  0.00    -0.572 OA
HETATM   29  O   UNK N   1      17.701  12.710   4.261  0.00  0.00    -0.572 OA
ENDBRANCH  25  26
ENDBRANCH  24  25
ENDBRANCH   1  24
BRANCH   3  30
HETATM   30  O   UNK N   1      22.067  17.389   5.953  0.00  0.00    -0.391 OA
HETATM   31  H   UNK N   1      21.567  17.934   6.581  0.00  0.00     0.210 HD
ENDBRANCH   3  30
BRANCH   2  32
HETATM   32  N   UNK N   1      22.315  18.927   3.320  0.00  0.00    -0.289 N 
HETATM   33  H   UNK N   1      23.282  18.605   3.356  0.00  0.00     0.175 HD
BRANCH  32  34
HETATM   34  S   UNK N   1      21.819  20.490   2.621  0.00  0.00     0.205 S 
HETATM   35  O   UNK N   1      21.524  20.432   0.931  0.00  0.00    -0.578 OA
HETATM   36  O   UNK N   1      22.924  21.518   2.905  0.00  0.00    -0.578 OA
HETATM   37  O   UNK N   1      20.582  21.035   3.353  0.00  0.00    -0.578 OA
ENDBRANCH  32  34
ENDBRANCH   2  32
BRANCH   5  38
HETATM   38  O   UNK N   1      18.947  17.533   3.180  0.00  0.00    -0.369 OA
HETATM   39  H   UNK N   1      18.222  16.896   3.281  0.00  0.00     0.212 HD
ENDBRANCH   5  38
TORSDOF 13
ENDMDL
MODEL 4
REMARK VINA RESULT:      -6.2     12.083     13.937
REMARK  13 active torsions:
REMARK  status: ('A' for Active; 'I' for Inactive)
REMARK    1  A    between atoms: C_5  and  C_2 
REMARK    2  A    between atoms: O_28  and  C_2 
REMARK    3  A    between atoms: C_3  and  O_14 
REMARK    4  A    between atoms: C_10  and  C_4 
REMARK    5  A    between atoms: C_6  and  N_13 
REMARK    6  A    between atoms: C_7  and  O_15 
REMARK    7  A    between atoms: C_8  and  O_32 
REMARK    8  A    between atoms: C_9  and  O_31 
REMARK    9  A    between atoms: C_11  and  O_18 
REMARK   10  A    between atoms: C_12  and  O_31 
REMARK   11  A    between atoms: S_33  and  N_13 
REMARK   12  A    between atoms: S_34  and  O_28 
REMARK   13  A    between atoms: S_35  and  O_32 
ROOT
HETATM    1  C   UNK N   1      35.016  16.451   9.253  0.00  0.00     0.181 C 
HETATM    2  C   UNK N   1      35.616  14.301  11.188  0.00  0.00     0.181 C 
HETATM    3  C   UNK N   1      36.227  14.352   9.767  0.00  0.00     0.178 C 
HETATM    4  C   UNK N   1      35.282  14.985   8.724  0.00  0.00     0.186 C 
HETATM    5  C   UNK N   1      34.612  15.461  11.378  0.00  0.00     0.283 C 
HETATM    6  O   UNK N   1      35.006  16.620  10.673  0.00  0.00    -0.349 OA
ENDROOT
BRANCH   4   7
HETATM    7  O   UNK N   1      36.015  14.995   7.493  0.00  0.00    -0.347 OA
BRANCH   7   8
HETATM    8  C   UNK N   1      35.333  14.649   6.293  0.00  0.00     0.300 C 
HETATM    9  C   UNK N   1      34.262  13.540   6.482  0.00  0.00     0.233 C 
HETATM   10  C   UNK N   1      33.509  13.284   5.160  0.00  0.00     0.179 C 
HETATM   11  C   UNK N   1      33.051  14.586   4.576  0.00  0.00     0.051 C 
HETATM   12  C   UNK N   1      33.714  15.734   4.819  0.00  0.00     0.147 C 
HETATM   13  O   UNK N   1      34.810  15.754   5.635  0.00  0.00    -0.311 OA
BRANCH   9  14
HETATM   14  O   UNK N   1      34.687  12.331   7.098  0.00  0.00    -0.244 OA
BRANCH  14  15
HETATM   15  S   UNK N   1      33.585  11.654   8.265  0.00  0.00     0.252 S 
HETATM   16  O   UNK N   1      32.510  10.393   7.812  0.00  0.00    -0.572 OA
HETATM   17  O   UNK N   1      34.368  11.221   9.513  0.00  0.00    -0.572 OA
HETATM   18  O   UNK N   1      32.714  12.806   8.791  0.00  0.00    -0.572 OA
ENDBRANCH  14  15
ENDBRANCH   9  14
BRANCH  10  19
HETATM   19  O   UNK N   1      34.317  12.654   4.214  0.00  0.00    -0.389 OA
HETATM   20  H   UNK N   1      35.046  12.020   4.304  0.00  0.00     0.210 HD
ENDBRANCH  10  19
BRANCH  12  21
HETATM   21  C   UNK N   1      33.253  16.981   4.173  0.00  0.00     0.233 C 
HETATM   22  O   UNK N   1      32.720  16.938   3.073  0.00  0.00    -0.642 OA
HETATM   23  O   UNK N   1      33.392  18.166   4.793  0.00  0.00    -0.642 OA
ENDBRANCH  12  21
ENDBRANCH   7   8
ENDBRANCH   4   7
BRANCH   1  24
HETATM   24  C   UNK N   1      33.806  17.166   8.653  0.00  0.00     0.227 C 
BRANCH  24  25
HETATM   25  O   UNK N   1      32.818  16.285   8.202  0.00  0.00    -0.254 OA
BRANCH  25  26
HETATM   26  S   UNK N   1      31.490  17.306   7.803  0.00  0.00     0.251 S 
HETATM   27  O   UNK N   1      31.041  16.337   9.148  0.00  0.00    -0.572 OA
HETATM   28  O   UNK N   1      30.237  16.558   7.325  0.00  0.00    -0.572 OA
HETATM   29  O   UNK N   1      31.091  18.314   8.890  0.00  0.00    -0.572 OA
ENDBRANCH  25  26
ENDBRANCH  24  25
ENDBRANCH   1  24
BRANCH   3  30
HETATM   30  O   UNK N   1      36.649  13.077   9.382  0.00  0.00    -0.391 OA
HETATM   31  H   UNK N   1      37.356  12.514   9.736  0.00  0.00     0.210 HD
ENDBRANCH   3  30
BRANCH   2  32
HETATM   32  N   UNK N   1      36.717  14.355  12.161  0.00  0.00    -0.289 N 
HETATM   33  H   UNK N   1      37.614  14.802  11.974  0.00  0.00     0.175 HD
BRANCH  32  34
HETATM   34  S   UNK N   1      36.314  13.553  13.701  0.00  0.00     0.205 S 
HETATM   35  O   UNK N   1      36.859  14.403  15.089  0.00  0.00    -0.578 OA
HETATM   36  O   UNK N   1      36.938  12.150  13.692  0.00  0.00    -0.578 OA
HETATM   37  O   UNK N   1      34.800  13.305  13.795  0.00  0.00    -0.578 OA
ENDBRANCH  32  34
ENDBRANCH   2  32
BRANCH   5  38
HETATM   38  O   UNK N   1      33.336  15.053  10.983  0.00  0.00    -0.369 OA
HETATM   39  H   UNK N   1      32.735  15.068  10.221  0.00  0.00     0.212 HD
ENDBRANCH   5  38
TORSDOF 13
ENDMDL
MODEL 5
REMARK VINA RESULT:      -6.1      3.588      5.891
REMARK  13 active torsions:
REMARK  status: ('A' for Active; 'I' for Inactive)
REMARK    1  A    between atoms: C_5  and  C_2 
REMARK    2  A    between atoms: O_28  and  C_2 
REMARK    3  A    between atoms: C_3  and  O_14 
REMARK    4  A    between atoms: C_10  and  C_4 
REMARK    5  A    between atoms: C_6  and  N_13 
REMARK    6  A    between atoms: C_7  and  O_15 
REMARK    7  A    between atoms: C_8  and  O_32 
REMARK    8  A    between atoms: C_9  and  O_31 
REMARK    9  A    between atoms: C_11  and  O_18 
REMARK   10  A    between atoms: C_12  and  O_31 
REMARK   11  A    between atoms: S_33  and  N_13 
REMARK   12  A    between atoms: S_34  and  O_28 
REMARK   13  A    between atoms: S_35  and  O_32 
ROOT
HETATM    1  C   UNK N   1      24.061  14.955   4.646  0.00  0.00     0.181 C 
HETATM    2  C   UNK N   1      26.242  16.894   5.095  0.00  0.00     0.181 C 
HETATM    3  C   UNK N   1      24.746  17.256   5.254  0.00  0.00     0.178 C 
HETATM    4  C   UNK N   1      23.830  16.477   4.287  0.00  0.00     0.186 C 
HETATM    5  C   UNK N   1      26.389  15.439   4.593  0.00  0.00     0.283 C 
HETATM    6  O   UNK N   1      25.370  14.602   5.100  0.00  0.00    -0.349 OA
ENDROOT
BRANCH   4   7
HETATM    7  O   UNK N   1      22.495  16.894   4.598  0.00  0.00    -0.347 OA
BRANCH   7   8
HETATM    8  C   UNK N   1      21.682  17.410   3.550  0.00  0.00     0.300 C 
HETATM    9  C   UNK N   1      20.158  17.273   3.817  0.00  0.00     0.233 C 
HETATM   10  C   UNK N   1      19.348  17.931   2.681  0.00  0.00     0.179 C 
HETATM   11  C   UNK N   1      19.876  19.309   2.414  0.00  0.00     0.051 C 
HETATM   12  C   UNK N   1      21.162  19.627   2.662  0.00  0.00     0.147 C 
HETATM   13  O   UNK N   1      22.022  18.710   3.197  0.00  0.00    -0.311 OA
BRANCH   9  14
HETATM   14  O   UNK N   1      19.673  15.975   4.137  0.00  0.00    -0.244 OA
BRANCH  14  15
HETATM   15  S   UNK N   1      19.211  15.734   5.799  0.00  0.00     0.252 S 
HETATM   16  O   UNK N   1      19.935  16.670   7.044  0.00  0.00    -0.572 OA
HETATM   17  O   UNK N   1      17.684  15.831   5.922  0.00  0.00    -0.572 OA
HETATM   18  O   UNK N   1      19.488  14.261   6.140  0.00  0.00    -0.572 OA
ENDBRANCH  14  15
ENDBRANCH   9  14
BRANCH  10  19
HETATM   19  O   UNK N   1      19.432  17.206   1.494  0.00  0.00    -0.389 OA
HETATM   20  H   UNK N   1      19.298  17.463   0.568  0.00  0.00     0.210 HD
ENDBRANCH  10  19
BRANCH  12  21
HETATM   21  C   UNK N   1      21.645  20.983   2.327  0.00  0.00     0.233 C 
HETATM   22  O   UNK N   1      22.655  21.420   2.859  0.00  0.00    -0.642 OA
HETATM   23  O   UNK N   1      20.997  21.736   1.421  0.00  0.00    -0.642 OA
ENDBRANCH  12  21
ENDBRANCH   7   8
ENDBRANCH   4   7
BRANCH   1  24
HETATM   24  C   UNK N   1      23.605  13.946   3.593  0.00  0.00     0.227 C 
BRANCH  24  25
HETATM   25  O   UNK N   1      23.679  14.444   2.288  0.00  0.00    -0.254 OA
BRANCH  25  26
HETATM   26  S   UNK N   1      22.140  14.083   1.608  0.00  0.00     0.251 S 
HETATM   27  O   UNK N   1      23.266  14.274   0.325  0.00  0.00    -0.572 OA
HETATM   28  O   UNK N   1      21.545  15.210   0.750  0.00  0.00    -0.572 OA
HETATM   29  O   UNK N   1      22.065  12.762   0.826  0.00  0.00    -0.572 OA
ENDBRANCH  25  26
ENDBRANCH  24  25
ENDBRANCH   1  24
BRANCH   3  30
HETATM   30  O   UNK N   1      24.574  18.638   5.135  0.00  0.00    -0.391 OA
HETATM   31  H   UNK N   1      25.147  19.370   5.413  0.00  0.00     0.210 HD
ENDBRANCH   3  30
BRANCH   2  32
HETATM   32  N   UNK N   1      26.902  17.103   6.392  0.00  0.00    -0.289 N 
HETATM   33  H   UNK N   1      26.685  16.563   7.229  0.00  0.00     0.175 HD
BRANCH  32  34
HETATM   34  S   UNK N   1      28.120  18.403   6.344  0.00  0.00     0.205 S 
HETATM   35  O   UNK N   1      28.485  18.954   4.759  0.00  0.00    -0.578 OA
HETATM   36  O   UNK N   1      29.405  17.887   7.006  0.00  0.00    -0.578 OA
HETATM   37  O   UNK N   1      27.676  19.585   7.223  0.00  0.00    -0.578 OA
ENDBRANCH  32  34
ENDBRANCH   2  32
BRANCH   5  38
HETATM   38  O   UNK N   1      26.396  15.418   3.197  0.00  0.00    -0.369 OA
HETATM   39  H   UNK N   1      26.832  15.827   2.432  0.00  0.00     0.212 HD
ENDBRANCH   5  38
TORSDOF 13
ENDMDL
MODEL 6
REMARK VINA RESULT:      -6.0      4.428      7.031
REMARK  13 active torsions:
REMARK  status: ('A' for Active; 'I' for Inactive)
REMARK    1  A    between atoms: C_5  and  C_2 
REMARK    2  A    between atoms: O_28  and  C_2 
REMARK    3  A    between atoms: C_3  and  O_14 
REMARK    4  A    between atoms: C_10  and  C_4 
REMARK    5  A    between atoms: C_6  and  N_13 
REMARK    6  A    between atoms: C_7  and  O_15 
REMARK    7  A    between atoms: C_8  and  O_32 
REMARK    8  A    between atoms: C_9  and  O_31 
REMARK    9  A    between atoms: C_11  and  O_18 
REMARK   10  A    between atoms: C_12  and  O_31 
REMARK   11  A    between atoms: S_33  and  N_13 
REMARK   12  A    between atoms: S_34  and  O_28 
REMARK   13  A    between atoms: S_35  and  O_32 
ROOT
HETATM    1  C   UNK N   1      22.639  15.799   5.512  0.00  0.00     0.181 C 
HETATM    2  C   UNK N   1      22.074  18.466   4.376  0.00  0.00     0.181 C 
HETATM    3  C   UNK N   1      23.372  17.680   4.075  0.00  0.00     0.178 C 
HETATM    4  C   UNK N   1      23.835  16.802   5.257  0.00  0.00     0.186 C 
HETATM    5  C   UNK N   1      21.208  17.696   5.398  0.00  0.00     0.283 C 
HETATM    6  O   UNK N   1      21.326  16.297   5.241  0.00  0.00    -0.349 OA
ENDROOT
BRANCH   4   7
HETATM    7  O   UNK N   1      25.006  16.118   4.797  0.00  0.00    -0.347 OA
BRANCH   7   8
HETATM    8  C   UNK N   1      26.274  16.523   5.302  0.00  0.00     0.300 C 
HETATM    9  C   UNK N   1      27.463  16.144   4.377  0.00  0.00     0.233 C 
HETATM   10  C   UNK N   1      28.787  16.691   4.948  0.00  0.00     0.179 C 
HETATM   11  C   UNK N   1      28.628  18.140   5.301  0.00  0.00     0.051 C 
HETATM   12  C   UNK N   1      27.428  18.649   5.644  0.00  0.00     0.147 C 
HETATM   13  O   UNK N   1      26.308  17.866   5.650  0.00  0.00    -0.311 OA
BRANCH   9  14
HETATM   14  O   UNK N   1      27.571  14.780   3.991  0.00  0.00    -0.244 OA
BRANCH  14  15
HETATM   15  S   UNK N   1      27.192  14.438   2.325  0.00  0.00     0.252 S 
HETATM   16  O   UNK N   1      26.399  12.974   1.900  0.00  0.00    -0.572 OA
HETATM   17  O   UNK N   1      26.418  15.621   1.726  0.00  0.00    -0.572 OA
HETATM   18  O   UNK N   1      28.515  14.464   1.543  0.00  0.00    -0.572 OA
ENDBRANCH  14  15
ENDBRANCH   9  14
BRANCH  10  19
HETATM   19  O   UNK N   1      29.178  16.013   6.102  0.00  0.00    -0.389 OA
HETATM   20  H   UNK N   1      29.954  15.465   6.299  0.00  0.00     0.210 HD
ENDBRANCH  10  19
BRANCH  12  21
HETATM   21  C   UNK N   1      27.337  20.070   6.038  0.00  0.00     0.233 C 
HETATM   22  O   UNK N   1      27.932  20.922   5.394  0.00  0.00    -0.642 OA
HETATM   23  O   UNK N   1      26.582  20.444   7.087  0.00  0.00    -0.642 OA
ENDBRANCH  12  21
ENDBRANCH   7   8
ENDBRANCH   4   7
BRANCH   1  24
HETATM   24  C   UNK N   1      22.639  15.093   6.866  0.00  0.00     0.227 C 
BRANCH  24  25
HETATM   25  O   UNK N   1      21.444  14.418   7.133  0.00  0.00    -0.254 OA
BRANCH  25  26
HETATM   26  S   UNK N   1      21.009  14.933   8.717  0.00  0.00     0.251 S 
HETATM   27  O   UNK N   1      19.682  15.234   7.668  0.00  0.00    -0.572 OA
HETATM   28  O   UNK N   1      20.762  16.443   8.848  0.00  0.00    -0.572 OA
HETATM   29  O   UNK N   1      19.833  14.173   9.350  0.00  0.00    -0.572 OA
ENDBRANCH  25  26
ENDBRANCH  24  25
ENDBRANCH   1  24
BRANCH   3  30
HETATM   30  O   UNK N   1      24.375  18.556   3.653  0.00  0.00    -0.391 OA
HETATM   31  H   UNK N   1      24.861  19.240   4.142  0.00  0.00     0.210 HD
ENDBRANCH   3  30
BRANCH   2  32
HETATM   32  N   UNK N   1      21.369  18.685   3.105  0.00  0.00    -0.289 N 
HETATM   33  H   UNK N   1      21.005  17.931   2.523  0.00  0.00     0.175 HD
BRANCH  32  34
HETATM   34  S   UNK N   1      21.220  20.412   2.689  0.00  0.00     0.205 S 
HETATM   35  O   UNK N   1      22.700  21.278   2.777  0.00  0.00    -0.578 OA
HETATM   36  O   UNK N   1      20.203  21.053   3.644  0.00  0.00    -0.578 OA
HETATM   37  O   UNK N   1      20.597  20.574   1.292  0.00  0.00    -0.578 OA
ENDBRANCH  32  34
ENDBRANCH   2  32
BRANCH   5  38
HETATM   38  O   UNK N   1      21.556  18.078   6.696  0.00  0.00    -0.369 OA
HETATM   39  H   UNK N   1      22.156  18.666   7.181  0.00  0.00     0.212 HD
ENDBRANCH   5  38
TORSDOF 13
ENDMDL
MODEL 7
REMARK VINA RESULT:      -5.9      2.615      5.728
REMARK  13 active torsions:
REMARK  status: ('A' for Active; 'I' for Inactive)
REMARK    1  A    between atoms: C_5  and  C_2 
REMARK    2  A    between atoms: O_28  and  C_2 
REMARK    3  A    between atoms: C_3  and  O_14 
REMARK    4  A    between atoms: C_10  and  C_4 
REMARK    5  A    between atoms: C_6  and  N_13 
REMARK    6  A    between atoms: C_7  and  O_15 
REMARK    7  A    between atoms: C_8  and  O_32 
REMARK    8  A    between atoms: C_9  and  O_31 
REMARK    9  A    between atoms: C_11  and  O_18 
REMARK   10  A    between atoms: C_12  and  O_31 
REMARK   11  A    between atoms: S_33  and  N_13 
REMARK   12  A    between atoms: S_34  and  O_28 
REMARK   13  A    between atoms: S_35  and  O_32 
ROOT
HETATM    1  C   UNK N   1      20.290  16.203   3.221  0.00  0.00     0.181 C 
HETATM    2  C   UNK N   1      21.687  14.232   1.522  0.00  0.00     0.181 C 
HETATM    3  C   UNK N   1      22.179  14.626   2.935  0.00  0.00     0.178 C 
HETATM    4  C   UNK N   1      21.866  16.093   3.298  0.00  0.00     0.186 C 
HETATM    5  C   UNK N   1      20.452  15.076   1.132  0.00  0.00     0.283 C 
HETATM    6  O   UNK N   1      19.643  15.374   2.251  0.00  0.00    -0.349 OA
ENDROOT
BRANCH   4   7
HETATM    7  O   UNK N   1      22.340  16.272   4.637  0.00  0.00    -0.347 OA
BRANCH   7   8
HETATM    8  C   UNK N   1      21.544  15.784   5.711  0.00  0.00     0.300 C 
HETATM    9  C   UNK N   1      22.304  14.821   6.664  0.00  0.00     0.233 C 
HETATM   10  C   UNK N   1      21.403  14.406   7.846  0.00  0.00     0.179 C 
HETATM   11  C   UNK N   1      20.777  15.623   8.458  0.00  0.00     0.051 C 
HETATM   12  C   UNK N   1      20.548  16.734   7.730  0.00  0.00     0.147 C 
HETATM   13  O   UNK N   1      20.910  16.799   6.415  0.00  0.00    -0.311 OA
BRANCH   9  14
HETATM   14  O   UNK N   1      22.954  13.704   6.069  0.00  0.00    -0.244 OA
BRANCH  14  15
HETATM   15  S   UNK N   1      24.685  13.653   6.259  0.00  0.00     0.252 S 
HETATM   16  O   UNK N   1      25.690  13.247   4.926  0.00  0.00    -0.572 OA
HETATM   17  O   UNK N   1      25.170  14.976   6.868  0.00  0.00    -0.572 OA
HETATM   18  O   UNK N   1      24.991  12.633   7.367  0.00  0.00    -0.572 OA
ENDBRANCH  14  15
ENDBRANCH   9  14
BRANCH  10  19
HETATM   19  O   UNK N   1      20.375  13.555   7.443  0.00  0.00    -0.389 OA
HETATM   20  H   UNK N   1      20.268  12.996   6.658  0.00  0.00     0.210 HD
ENDBRANCH  10  19
BRANCH  12  21
HETATM   21  C   UNK N   1      19.876  17.885   8.369  0.00  0.00     0.233 C 
HETATM   22  O   UNK N   1      20.365  19.002   8.283  0.00  0.00    -0.642 OA
HETATM   23  O   UNK N   1      18.714  17.722   9.025  0.00  0.00    -0.642 OA
ENDBRANCH  12  21
ENDBRANCH   7   8
ENDBRANCH   4   7
BRANCH   1  24
HETATM   24  C   UNK N   1      19.725  17.620   3.127  0.00  0.00     0.227 C 
BRANCH  24  25
HETATM   25  O   UNK N   1      20.572  18.504   2.452  0.00  0.00    -0.254 OA
BRANCH  25  26
HETATM   26  S   UNK N   1      20.558  19.928   3.419  0.00  0.00     0.251 S 
HETATM   27  O   UNK N   1      22.179  19.372   3.301  0.00  0.00    -0.572 OA
HETATM   28  O   UNK N   1      20.987  19.710   4.877  0.00  0.00    -0.572 OA
HETATM   29  O   UNK N   1      21.335  21.119   2.838  0.00  0.00    -0.572 OA
ENDBRANCH  25  26
ENDBRANCH  24  25
ENDBRANCH   1  24
BRANCH   3  30
HETATM   30  O   UNK N   1      23.540  14.337   3.066  0.00  0.00    -0.391 OA
HETATM   31  H   UNK N   1      24.285  14.911   3.304  0.00  0.00     0.210 HD
ENDBRANCH   3  30
BRANCH   2  32
HETATM   32  N   UNK N   1      21.396  12.791   1.526  0.00  0.00    -0.289 N 
HETATM   33  H   UNK N   1      20.532  12.391   1.889  0.00  0.00     0.175 HD
BRANCH  32  34
HETATM   34  S   UNK N   1      22.718  11.820   0.828  0.00  0.00     0.205 S 
HETATM   35  O   UNK N   1      23.519  12.581  -0.486  0.00  0.00    -0.578 OA
HETATM   36  O   UNK N   1      22.135  10.481   0.355  0.00  0.00    -0.578 OA
HETATM   37  O   UNK N   1      23.735  11.440   1.917  0.00  0.00    -0.578 OA
ENDBRANCH  32  34
ENDBRANCH   2  32
BRANCH   5  38
HETATM   38  O   UNK N   1      20.862  16.249   0.493  0.00  0.00    -0.369 OA
HETATM   39  H   UNK N   1      20.536  16.948  -0.095  0.00  0.00     0.212 HD
ENDBRANCH   5  38
TORSDOF 13
ENDMDL
MODEL 8
REMARK VINA RESULT:      -5.9     14.827     17.444
REMARK  13 active torsions:
REMARK  status: ('A' for Active; 'I' for Inactive)
REMARK    1  A    between atoms: C_5  and  C_2 
REMARK    2  A    between atoms: O_28  and  C_2 
REMARK    3  A    between atoms: C_3  and  O_14 
REMARK    4  A    between atoms: C_10  and  C_4 
REMARK    5  A    between atoms: C_6  and  N_13 
REMARK    6  A    between atoms: C_7  and  O_15 
REMARK    7  A    between atoms: C_8  and  O_32 
REMARK    8  A    between atoms: C_9  and  O_31 
REMARK    9  A    between atoms: C_11  and  O_18 
REMARK   10  A    between atoms: C_12  and  O_31 
REMARK   11  A    between atoms: S_33  and  N_13 
REMARK   12  A    between atoms: S_34  and  O_28 
REMARK   13  A    between atoms: S_35  and  O_32 
ROOT
HETATM    1  C   UNK N   1      27.490  24.644  -6.946  0.00  0.00     0.181 C 
HETATM    2  C   UNK N   1      27.058  26.006  -4.361  0.00  0.00     0.181 C 
HETATM    3  C   UNK N   1      28.038  24.821  -4.536  0.00  0.00     0.178 C 
HETATM    4  C   UNK N   1      27.577  23.809  -5.606  0.00  0.00     0.186 C 
HETATM    5  C   UNK N   1      26.310  26.280  -5.686  0.00  0.00     0.283 C 
HETATM    6  O   UNK N   1      27.121  26.020  -6.813  0.00  0.00    -0.349 OA
ENDROOT
BRANCH   4   7
HETATM    7  O   UNK N   1      28.608  22.817  -5.671  0.00  0.00    -0.347 OA
BRANCH   7   8
HETATM    8  C   UNK N   1      29.838  23.155  -6.304  0.00  0.00     0.300 C 
HETATM    9  C   UNK N   1      31.087  22.885  -5.421  0.00  0.00     0.233 C 
HETATM   10  C   UNK N   1      32.380  23.193  -6.205  0.00  0.00     0.179 C 
HETATM   11  C   UNK N   1      32.331  22.525  -7.547  0.00  0.00     0.051 C 
HETATM   12  C   UNK N   1      31.158  22.270  -8.160  0.00  0.00     0.147 C 
HETATM   13  O   UNK N   1      29.970  22.583  -7.562  0.00  0.00    -0.311 OA
BRANCH   9  14
HETATM   14  O   UNK N   1      31.098  23.465  -4.123  0.00  0.00    -0.244 OA
BRANCH  14  15
HETATM   15  S   UNK N   1      31.083  22.337  -2.796  0.00  0.00     0.252 S 
HETATM   16  O   UNK N   1      32.542  21.595  -2.272  0.00  0.00    -0.572 OA
HETATM   17  O   UNK N   1      30.386  22.981  -1.588  0.00  0.00    -0.572 OA
HETATM   18  O   UNK N   1      30.124  21.198  -3.176  0.00  0.00    -0.572 OA
ENDBRANCH  14  15
ENDBRANCH   9  14
BRANCH  10  19
HETATM   19  O   UNK N   1      32.548  24.561  -6.416  0.00  0.00    -0.389 OA
HETATM   20  H   UNK N   1      33.146  25.209  -6.012  0.00  0.00     0.210 HD
ENDBRANCH  10  19
BRANCH  12  21
HETATM   21  C   UNK N   1      31.168  21.663  -9.507  0.00  0.00     0.233 C 
HETATM   22  O   UNK N   1      32.172  21.095  -9.913  0.00  0.00    -0.642 OA
HETATM   23  O   UNK N   1      30.073  21.705 -10.286  0.00  0.00    -0.642 OA
ENDBRANCH  12  21
ENDBRANCH   7   8
ENDBRANCH   4   7
BRANCH   1  24
HETATM   24  C   UNK N   1      26.676  24.012  -8.074  0.00  0.00     0.227 C 
BRANCH  24  25
HETATM   25  O   UNK N   1      25.438  23.521  -7.647  0.00  0.00    -0.254 OA
BRANCH  25  26
HETATM   26  S   UNK N   1      25.494  21.842  -8.021  0.00  0.00     0.251 S 
HETATM   27  O   UNK N   1      23.879  22.388  -8.231  0.00  0.00    -0.572 OA
HETATM   28  O   UNK N   1      24.672  20.954  -7.076  0.00  0.00    -0.572 OA
HETATM   29  O   UNK N   1      25.150  21.485  -9.475  0.00  0.00    -0.572 OA
ENDBRANCH  25  26
ENDBRANCH  24  25
ENDBRANCH   1  24
BRANCH   3  30
HETATM   30  O   UNK N   1      28.270  24.206  -3.304  0.00  0.00    -0.391 OA
HETATM   31  H   UNK N   1      28.907  24.420  -2.603  0.00  0.00     0.210 HD
ENDBRANCH   3  30
BRANCH   2  32
HETATM   32  N   UNK N   1      27.830  27.172  -3.908  0.00  0.00    -0.289 N 
HETATM   33  H   UNK N   1      28.848  27.214  -3.919  0.00  0.00     0.175 HD
BRANCH  32  34
HETATM   34  S   UNK N   1      26.792  28.504  -3.335  0.00  0.00     0.205 S 
HETATM   35  O   UNK N   1      26.550  29.744  -4.497  0.00  0.00    -0.578 OA
HETATM   36  O   UNK N   1      27.434  29.109  -2.078  0.00  0.00    -0.578 OA
HETATM   37  O   UNK N   1      25.437  27.958  -2.856  0.00  0.00    -0.578 OA
ENDBRANCH  32  34
ENDBRANCH   2  32
BRANCH   5  38
HETATM   38  O   UNK N   1      25.139  25.521  -5.734  0.00  0.00    -0.369 OA
HETATM   39  H   UNK N   1      24.818  24.611  -5.637  0.00  0.00     0.212 HD
ENDBRANCH   5  38
TORSDOF 13
ENDMDL
MODEL 9
REMARK VINA RESULT:      -5.8     14.378     17.415
REMARK  13 active torsions:
REMARK  status: ('A' for Active; 'I' for Inactive)
REMARK    1  A    between atoms: C_5  and  C_2 
REMARK    2  A    between atoms: O_28  and  C_2 
REMARK    3  A    between atoms: C_3  and  O_14 
REMARK    4  A    between atoms: C_10  and  C_4 
REMARK    5  A    between atoms: C_6  and  N_13 
REMARK    6  A    between atoms: C_7  and  O_15 
REMARK    7  A    between atoms: C_8  and  O_32 
REMARK    8  A    between atoms: C_9  and  O_31 
REMARK    9  A    between atoms: C_11  and  O_18 
REMARK   10  A    between atoms: C_12  and  O_31 
REMARK   11  A    between atoms: S_33  and  N_13 
REMARK   12  A    between atoms: S_34  and  O_28 
REMARK   13  A    between atoms: S_35  and  O_32 
ROOT
HETATM    1  C   UNK N   1      35.478  13.996  11.881  0.00  0.00     0.181 C 
HETATM    2  C   UNK N   1      35.117  15.849   9.610  0.00  0.00     0.181 C 
HETATM    3  C   UNK N   1      34.634  14.379   9.584  0.00  0.00     0.178 C 
HETATM    4  C   UNK N   1      35.534  13.432  10.405  0.00  0.00     0.186 C 
HETATM    5  C   UNK N   1      35.868  16.141  10.928  0.00  0.00     0.283 C 
HETATM    6  O   UNK N   1      35.331  15.413  12.013  0.00  0.00    -0.349 OA
ENDROOT
BRANCH   4   7
HETATM    7  O   UNK N   1      34.924  12.140  10.313  0.00  0.00    -0.347 OA
BRANCH   7   8
HETATM    8  C   UNK N   1      35.762  11.004  10.129  0.00  0.00     0.300 C 
HETATM    9  C   UNK N   1      37.005  11.283   9.241  0.00  0.00     0.233 C 
HETATM   10  C   UNK N   1      37.905  10.032   9.162  0.00  0.00     0.179 C 
HETATM   11  C   UNK N   1      38.153   9.497  10.540  0.00  0.00     0.051 C 
HETATM   12  C   UNK N   1      37.263   9.684  11.535  0.00  0.00     0.147 C 
HETATM   13  O   UNK N   1      36.117  10.399  11.327  0.00  0.00    -0.311 OA
BRANCH   9  14
HETATM   14  O   UNK N   1      36.769  11.854   7.961  0.00  0.00    -0.244 OA
BRANCH  14  15
HETATM   15  S   UNK N   1      37.819  13.173   7.520  0.00  0.00     0.252 S 
HETATM   16  O   UNK N   1      38.619  14.086   8.736  0.00  0.00    -0.572 OA
HETATM   17  O   UNK N   1      38.855  12.680   6.500  0.00  0.00    -0.572 OA
HETATM   18  O   UNK N   1      36.981  14.169   6.703  0.00  0.00    -0.572 OA
ENDBRANCH  14  15
ENDBRANCH   9  14
BRANCH  10  19
HETATM   19  O   UNK N   1      37.319   9.016   8.409  0.00  0.00    -0.389 OA
HETATM   20  H   UNK N   1      37.699   8.344   7.821  0.00  0.00     0.210 HD
ENDBRANCH  10  19
BRANCH  12  21
HETATM   21  C   UNK N   1      37.530   9.086  12.860  0.00  0.00     0.233 C 
HETATM   22  O   UNK N   1      37.262   7.911  13.065  0.00  0.00    -0.642 OA
HETATM   23  O   UNK N   1      38.088   9.817  13.841  0.00  0.00    -0.642 OA
ENDBRANCH  12  21
ENDBRANCH   7   8
ENDBRANCH   4   7
BRANCH   1  24
HETATM   24  C   UNK N   1      36.583  13.516  12.821  0.00  0.00     0.227 C 
BRANCH  24  25
HETATM   25  O   UNK N   1      36.417  13.962  14.135  0.00  0.00    -0.254 OA
BRANCH  25  26
HETATM   26  S   UNK N   1      35.535  12.700  14.905  0.00  0.00     0.251 S 
HETATM   27  O   UNK N   1      36.072  13.797  16.113  0.00  0.00    -0.572 OA
HETATM   28  O   UNK N   1      36.371  11.831  15.856  0.00  0.00    -0.572 OA
HETATM   29  O   UNK N   1      34.252  13.143  15.624  0.00  0.00    -0.572 OA
ENDBRANCH  25  26
ENDBRANCH  24  25
ENDBRANCH   1  24
BRANCH   3  30
HETATM   30  O   UNK N   1      34.491  13.946   8.263  0.00  0.00    -0.391 OA
HETATM   31  H   UNK N   1      35.075  13.400   7.713  0.00  0.00     0.210 HD
ENDBRANCH   3  30
BRANCH   2  32
HETATM   32  N   UNK N   1      33.943  16.717   9.436  0.00  0.00    -0.289 N 
HETATM   33  H   UNK N   1      33.095  16.639   9.996  0.00  0.00     0.175 HD
BRANCH  32  34
HETATM   34  S   UNK N   1      34.163  17.920   8.139  0.00  0.00     0.205 S 
HETATM   35  O   UNK N   1      35.249  19.186   8.543  0.00  0.00    -0.578 OA
HETATM   36  O   UNK N   1      32.791  18.521   7.800  0.00  0.00    -0.578 OA
HETATM   37  O   UNK N   1      34.616  17.230   6.841  0.00  0.00    -0.578 OA
ENDBRANCH  32  34
ENDBRANCH   2  32
BRANCH   5  38
HETATM   38  O   UNK N   1      37.228  15.860  10.771  0.00  0.00    -0.369 OA
HETATM   39  H   UNK N   1      38.014  16.157  10.286  0.00  0.00     0.212 HD
ENDBRANCH   5  38
TORSDOF 13
ENDMDL
