REMARK  5 active torsions:
REMARK  status: ('A' for Active; 'I' for Inactive)
REMARK    1  A    between atoms: O_1  and  C_2 
REMARK    2  A    between atoms: C_2  and  C_4 
REMARK    3  A    between atoms: C_4  and  C_6 
REMARK    4  A    between atoms: C_6  and  S_7 
REMARK    5  A    between atoms: S_7  and  O_8 
ROOT
HETATM    1  C   UNK N   1       0.734  -0.854   0.128  0.00  0.00     0.237 C 
HETATM    2  O   UNK N   1       0.635   0.358   0.002  0.00  0.00    -0.285 OA
ENDROOT
BRANCH   1   3
HETATM    3  C   UNK N   1      -0.460  -1.701  -0.057  0.00  0.00     0.214 C 
HETATM    4  O   UNK N   1      -0.383  -2.914   0.065  0.00  0.00    -0.644 OA
BRANCH   3   5
HETATM    5  O   UNK N   1      -1.649  -1.136  -0.341  0.00  0.00    -0.771 OA
HETATM    6  H   UNK N   1      -1.722  -0.223  -0.539  0.00  0.00     0.167 HD
ENDBRANCH   3   5
ENDBRANCH   1   3
BRANCH   1   7
HETATM    7  C   UNK N   1       2.057  -1.453   0.526  0.00  0.00     0.245 C 
BRANCH   7   8
HETATM    8  S   UNK N   1       3.403  -0.994  -0.622  0.00  0.00     0.101 S 
HETATM    9  O   UNK N   1       3.885  -2.262   0.098  0.00  0.00    -0.601 OA
HETATM   10  O   UNK N   1       3.387  -0.015   0.563  0.00  0.00    -0.601 OA
BRANCH   8  11
HETATM   11  O   UNK N   1       5.053  -0.599  -0.363  0.00  0.00    -0.295 OA
HETATM   12  H   UNK N   1       5.713  -1.295  -0.216  0.00  0.00     0.232 HD
ENDBRANCH   8  11
ENDBRANCH   7   8
ENDBRANCH   1   7
TORSDOF 5
