REMARK  3 active torsions:
REMARK  status: ('A' for Active; 'I' for Inactive)
REMARK    1  A    between atoms: O_1  and  Zn_2 
REMARK    2  A    between atoms: Zn_2  and  O_3 
REMARK    3  A    between atoms: Zn_2  and  O_4 
ROOT
HETATM    1 Zn   UNK N   1       1.056   0.000   0.000  0.00  0.00     0.000 Zn
ENDROOT
BRANCH   1   2
HETATM    2  O   UNK N   1       1.966   1.576   0.000  0.00  0.00    -0.253 OA
HETATM    3  H   UNK N   1       2.936   1.575   0.000  0.00  0.00     0.253 HD
ENDBRANCH   1   2
BRANCH   1   4
HETATM    4  O   UNK N   1       1.966  -1.576   0.000  0.00  0.00    -0.253 OA
HETATM    5  H   UNK N   1       1.482  -2.416   0.000  0.00  0.00     0.253 HD
ENDBRANCH   1   4
BRANCH   1   6
HETATM    6  O   UNK N   1      -0.763   0.000   0.000  0.00  0.00    -0.253 OA
HETATM    7  H   UNK N   1      -1.248   0.840   0.000  0.00  0.00     0.253 HD
ENDBRANCH   1   6
TORSDOF 3
