REMARK  10 active torsions:
REMARK  status: ('A' for Active; 'I' for Inactive)
REMARK    1  A    between atoms: C_22  and  C_8 
REMARK    2  A    between atoms: C_23  and  C_9 
REMARK    3  A    between atoms: C_12  and  C_10 
REMARK    4  A    between atoms: C_24  and  C_10 
REMARK    5  A    between atoms: C_13  and  C_11 
REMARK    6  A    between atoms: C_25  and  C_11 
REMARK    7  A    between atoms: C_34  and  C_12 
REMARK    8  A    between atoms: C_35  and  C_13 
REMARK    9  A    between atoms: O_41  and  C_34 
REMARK   10  A    between atoms: O_43  and  C_35 
ROOT
HETATM    1  C   UNK N   1       5.845   4.577   1.753  0.00  0.00     0.051 C 
HETATM    2  C   UNK N   1      -0.725   1.308  -0.287  0.00  0.00     0.051 C 
HETATM    3  C   UNK N   1       6.316  -5.411   0.410  0.00  0.00     0.051 C 
HETATM    4  C   UNK N   1      10.011  -1.579  -0.452  0.00  0.00     0.051 C 
HETATM    5  C   UNK N   1       5.950  -0.350   1.195  0.00  0.00     0.325 C 
HETATM    6  C   UNK N   1       2.124   2.077  -0.345  0.00  0.00     0.064 C 
HETATM    7  C   UNK N   1       2.262  -2.514  -0.219  0.00  0.00     0.064 C 
HETATM    8  C   UNK N   1       7.049  -2.537  -0.387  0.00  0.00     0.073 C 
HETATM    9  C   UNK N   1       7.006   2.241   0.139  0.00  0.00     0.073 C 
HETATM   10  C   UNK N   1       5.085   3.631   0.887  0.00  0.00    -0.025 C 
HETATM   11  C   UNK N   1       0.481   0.432  -0.435  0.00  0.00    -0.025 A 
HETATM   12  C   UNK N   1       5.410  -4.284   0.031  0.00  0.00    -0.025 A 
HETATM   13  C   UNK N   1       8.812  -0.692  -0.368  0.00  0.00    -0.016 C 
HETATM   14  C   UNK N   1       3.732   3.549   0.763  0.00  0.00    -0.021 C 
HETATM   15  C   UNK N   1       8.821   0.616  -0.168  0.00  0.00    -0.013 C 
HETATM   16  C   UNK N   1       0.516  -0.921  -0.319  0.00  0.00    -0.021 A 
HETATM   17  C   UNK N   1       4.099  -4.234   0.197  0.00  0.00    -0.021 A 
HETATM   18  C   UNK N   1       1.791   0.836  -0.530  0.00  0.00     0.066 A 
HETATM   19  C   UNK N   1       5.803  -2.951  -0.380  0.00  0.00     0.066 A 
HETATM   20  C   UNK N   1       5.595   2.556   0.205  0.00  0.00     0.066 C 
HETATM   21  C   UNK N   1       3.467   2.475  -0.043  0.00  0.00     0.066 C 
HETATM   22  C   UNK N   1       1.848  -1.286  -0.406  0.00  0.00     0.066 A 
HETATM   23  C   UNK N   1       3.653  -2.893  -0.209  0.00  0.00     0.066 A 
HETATM   24  C   UNK N   1       7.400  -1.120  -0.387  0.00  0.00     0.183 C 
HETATM   25  C   UNK N   1       7.426   1.015  -0.082  0.00  0.00     0.184 C 
HETATM   26 Cu   UNK N   1       4.729  -0.137  -0.940  0.00  0.00     0.000 Cu
HETATM   27  N   UNK N   1       2.649  -0.212  -0.605  0.00  0.00    -0.248 N 
HETATM   28  N   UNK N   1       4.592   1.786  -0.291  0.00  0.00    -0.248 N 
HETATM   29  N   UNK N   1       4.656  -2.138  -0.490  0.00  0.00    -0.248 N 
HETATM   30  N   UNK N   1       6.603  -0.149  -0.086  0.00  0.00     0.157 N 
ENDROOT
BRANCH  16  31
HETATM   31  C   UNK N   1      -0.644  -1.809  -0.003  0.00  0.00     0.052 C 
BRANCH  31  32
HETATM   32  C   UNK N   1      -1.679  -1.803  -1.108  0.00  0.00     0.115 C 
BRANCH  32  33
HETATM   33  C   UNK N   1      -2.946  -2.395  -0.593  0.00  0.00     0.139 C 
HETATM   34  O   UNK N   1      -3.611  -1.798   0.239  0.00  0.00    -0.650 OA
BRANCH  33  35
HETATM   35  O   UNK N   1      -3.356  -3.594  -1.045  0.00  0.00    -0.776 OA
HETATM   36  H   UNK N   1      -4.222  -3.764  -1.360  0.00  0.00     0.167 HD
ENDBRANCH  33  35
ENDBRANCH  32  33
ENDBRANCH  31  32
ENDBRANCH  16  31
BRANCH  17  37
HETATM   37  C   UNK N   1       3.253  -5.272   0.864  0.00  0.00     0.052 C 
BRANCH  37  38
HETATM   38  C   UNK N   1       3.250  -6.584   0.119  0.00  0.00     0.115 C 
BRANCH  38  39
HETATM   39  C   UNK N   1       1.998  -6.756  -0.678  0.00  0.00     0.139 C 
HETATM   40  O   UNK N   1       1.123  -5.902  -0.674  0.00  0.00    -0.650 OA
BRANCH  39  41
HETATM   41  O   UNK N   1       1.836  -7.874  -1.404  0.00  0.00    -0.776 OA
HETATM   42  H   UNK N   1       1.103  -8.165  -1.910  0.00  0.00     0.167 HD
ENDBRANCH  39  41
ENDBRANCH  38  39
ENDBRANCH  37  38
ENDBRANCH  17  37
BRANCH  14  43
HETATM   43  C   UNK N   1       2.715   4.288   1.560  0.00  0.00     0.037 C 
HETATM   44  C   UNK N   1       2.179   3.295   2.600  0.00  0.00     0.010 C 
ENDBRANCH  14  43
BRANCH  15  45
HETATM   45  C   UNK N   1      10.022   1.498   0.036  0.00  0.00     0.037 C 
HETATM   46  C   UNK N   1      10.971   1.451  -1.143  0.00  0.00     0.010 C 
ENDBRANCH  15  45
TORSDOF 10
