REMARK  2 active torsions:
REMARK  status: ('A' for Active; 'I' for Inactive)
REMARK    1  A    between atoms: O_1  and  C_2 
REMARK    2  A    between atoms: C_7  and  O_8 
ROOT
HETATM    1  C   UNK N   1       1.772   0.900  -0.000  0.00  0.00     0.098 A 
HETATM    2  C   UNK N   1       1.649  -0.492  -0.000  0.00  0.00     0.039 A 
HETATM    3  C   UNK N   1       0.381  -1.082   0.000  0.00  0.00     0.003 A 
HETATM    4  C   UNK N   1      -0.765  -0.280   0.000  0.00  0.00     0.003 A 
HETATM    5  C   UNK N   1      -0.643   1.112   0.000  0.00  0.00     0.039 A 
HETATM    6  C   UNK N   1       0.625   1.704   0.000  0.00  0.00     0.098 A 
ENDROOT
BRANCH   1   7
HETATM    7  O   UNK N   1       2.992   1.465  -0.000  0.00  0.00    -0.358 OA
HETATM    8  H   UNK N   1       3.758   0.925  -0.000  0.00  0.00     0.217 HD
ENDBRANCH   1   7
BRANCH   6   9
HETATM    9  O   UNK N   1       0.737   3.042   0.000  0.00  0.00    -0.358 OA
HETATM   10  H   UNK N   1       1.585   3.441   0.000  0.00  0.00     0.217 HD
ENDBRANCH   6   9
TORSDOF 2
