MODEL 1
REMARK VINA RESULT:      -4.3      0.000      0.000
REMARK  5 active torsions:
REMARK  status: ('A' for Active; 'I' for Inactive)
REMARK    1  A    between atoms: O_1  and  P_2 
REMARK    2  A    between atoms: P_2  and  O_3 
REMARK    3  A    between atoms: P_2  and  O_5 
REMARK    4  A    between atoms: O_5  and  P_6 
REMARK    5  A    between atoms: P_6  and  O_7 
ROOT
HETATM    1  P   UNK N   1      34.486  17.803   8.216  0.00  0.00     0.398 P 
HETATM    2  O   UNK N   1      34.300  17.731   6.677  0.00  0.00    -0.631 OA
ENDROOT
BRANCH   1   3
HETATM    3  O   UNK N   1      35.310  19.299   8.537  0.00  0.00    -0.307 OA
HETATM    4  H   UNK N   1      36.121  19.712   8.873  0.00  0.00     0.222 HD
ENDBRANCH   1   3
BRANCH   1   5
HETATM    5  O   UNK N   1      32.890  17.806   8.899  0.00  0.00    -0.307 OA
HETATM    6  H   UNK N   1      32.619  18.521   9.495  0.00  0.00     0.222 HD
ENDBRANCH   1   5
BRANCH   1   7
HETATM    7  O   UNK N   1      35.379  16.368   8.665  0.00  0.00    -0.206 OA
BRANCH   7   8
HETATM    8  P   UNK N   1      35.034  16.039  10.343  0.00  0.00     0.345 P 
HETATM    9  S   UNK N   1      36.388  14.613   9.454  0.00  0.00     0.003 SA
HETATM   10  O   UNK N   1      35.612  17.473  10.503  0.00  0.00    -0.642 OA
BRANCH   8  11
HETATM   11  O   UNK N   1      36.457  15.701  11.277  0.00  0.00    -0.317 OA
HETATM   12  H   UNK N   1      37.273  15.373  10.867  0.00  0.00     0.221 HD
ENDBRANCH   8  11
ENDBRANCH   7   8
ENDBRANCH   1   7
TORSDOF 5
ENDMDL
MODEL 2
REMARK VINA RESULT:      -3.9      1.655      2.399
REMARK  5 active torsions:
REMARK  status: ('A' for Active; 'I' for Inactive)
REMARK    1  A    between atoms: O_1  and  P_2 
REMARK    2  A    between atoms: P_2  and  O_3 
REMARK    3  A    between atoms: P_2  and  O_5 
REMARK    4  A    between atoms: O_5  and  P_6 
REMARK    5  A    between atoms: P_6  and  O_7 
ROOT
HETATM    1  P   UNK N   1      34.356  17.902   8.359  0.00  0.00     0.398 P 
HETATM    2  O   UNK N   1      35.241  19.176   8.300  0.00  0.00    -0.631 OA
ENDROOT
BRANCH   1   3
HETATM    3  O   UNK N   1      32.708  18.452   8.293  0.00  0.00    -0.307 OA
HETATM    4  H   UNK N   1      31.775  18.188   8.245  0.00  0.00     0.222 HD
ENDBRANCH   1   3
BRANCH   1   5
HETATM    5  O   UNK N   1      34.760  16.963   6.956  0.00  0.00    -0.307 OA
HETATM    6  H   UNK N   1      34.246  16.170   6.738  0.00  0.00     0.222 HD
ENDBRANCH   1   5
BRANCH   1   7
HETATM    7  O   UNK N   1      34.790  17.076   9.838  0.00  0.00    -0.206 OA
BRANCH   7   8
HETATM    8  P   UNK N   1      34.367  15.396   9.644  0.00  0.00     0.345 P 
HETATM    9  S   UNK N   1      35.270  15.834  11.555  0.00  0.00     0.003 SA
HETATM   10  O   UNK N   1      32.957  16.014   9.433  0.00  0.00    -0.642 OA
BRANCH   8  11
HETATM   11  O   UNK N   1      33.530  14.741  11.016  0.00  0.00    -0.317 OA
HETATM   12  H   UNK N   1      32.854  15.248  11.492  0.00  0.00     0.221 HD
ENDBRANCH   8  11
ENDBRANCH   7   8
ENDBRANCH   1   7
TORSDOF 5
ENDMDL
MODEL 3
REMARK VINA RESULT:      -3.7     12.143     13.413
REMARK  5 active torsions:
REMARK  status: ('A' for Active; 'I' for Inactive)
REMARK    1  A    between atoms: O_1  and  P_2 
REMARK    2  A    between atoms: P_2  and  O_3 
REMARK    3  A    between atoms: P_2  and  O_5 
REMARK    4  A    between atoms: O_5  and  P_6 
REMARK    5  A    between atoms: P_6  and  O_7 
ROOT
HETATM    1  P   UNK N   1      44.065  22.595   3.895  0.00  0.00     0.398 P 
HETATM    2  O   UNK N   1      43.351  21.223   4.034  0.00  0.00    -0.631 OA
ENDROOT
BRANCH   1   3
HETATM    3  O   UNK N   1      43.491  23.577   5.210  0.00  0.00    -0.307 OA
HETATM    4  H   UNK N   1      43.490  23.710   6.171  0.00  0.00     0.222 HD
ENDBRANCH   1   3
BRANCH   1   5
HETATM    5  O   UNK N   1      45.764  22.276   4.045  0.00  0.00    -0.307 OA
HETATM    6  H   UNK N   1      46.239  21.830   3.327  0.00  0.00     0.222 HD
ENDBRANCH   1   5
BRANCH   1   7
HETATM    7  O   UNK N   1      43.656  23.196   2.304  0.00  0.00    -0.206 OA
BRANCH   7   8
HETATM    8  P   UNK N   1      45.020  24.115   1.725  0.00  0.00     0.345 P 
HETATM    9  S   UNK N   1      43.336  24.144   0.376  0.00  0.00     0.003 SA
HETATM   10  O   UNK N   1      44.792  24.864   3.068  0.00  0.00    -0.642 OA
BRANCH   8  11
HETATM   11  O   UNK N   1      44.582  25.688   1.136  0.00  0.00    -0.317 OA
HETATM   12  H   UNK N   1      44.927  26.035   0.299  0.00  0.00     0.221 HD
ENDBRANCH   8  11
ENDBRANCH   7   8
ENDBRANCH   1   7
TORSDOF 5
ENDMDL
MODEL 4
REMARK VINA RESULT:      -3.7      2.327      3.120
REMARK  5 active torsions:
REMARK  status: ('A' for Active; 'I' for Inactive)
REMARK    1  A    between atoms: O_1  and  P_2 
REMARK    2  A    between atoms: P_2  and  O_3 
REMARK    3  A    between atoms: P_2  and  O_5 
REMARK    4  A    between atoms: O_5  and  P_6 
REMARK    5  A    between atoms: P_6  and  O_7 
ROOT
HETATM    1  P   UNK N   1      34.732  15.507  10.384  0.00  0.00     0.398 P 
HETATM    2  O   UNK N   1      34.406  15.519   8.866  0.00  0.00    -0.631 OA
ENDROOT
BRANCH   1   3
HETATM    3  O   UNK N   1      35.055  17.158  10.825  0.00  0.00    -0.307 OA
HETATM    4  H   UNK N   1      34.913  18.091  10.601  0.00  0.00     0.222 HD
ENDBRANCH   1   3
BRANCH   1   5
HETATM    5  O   UNK N   1      33.311  14.912  11.182  0.00  0.00    -0.307 OA
HETATM    6  H   UNK N   1      32.605  15.526  11.439  0.00  0.00     0.222 HD
ENDBRANCH   1   5
BRANCH   1   7
HETATM    7  O   UNK N   1      36.089  14.421  10.581  0.00  0.00    -0.206 OA
BRANCH   7   8
HETATM    8  P   UNK N   1      35.848  13.547  12.070  0.00  0.00     0.345 P 
HETATM    9  S   UNK N   1      37.640  12.965  11.018  0.00  0.00     0.003 SA
HETATM   10  O   UNK N   1      35.872  14.988  12.651  0.00  0.00    -0.642 OA
BRANCH   8  11
HETATM   11  O   UNK N   1      37.277  13.465  13.051  0.00  0.00    -0.317 OA
HETATM   12  H   UNK N   1      37.552  12.642  13.486  0.00  0.00     0.221 HD
ENDBRANCH   8  11
ENDBRANCH   7   8
ENDBRANCH   1   7
TORSDOF 5
ENDMDL
MODEL 5
REMARK VINA RESULT:      -3.6     14.957     16.158
REMARK  5 active torsions:
REMARK  status: ('A' for Active; 'I' for Inactive)
REMARK    1  A    between atoms: O_1  and  P_2 
REMARK    2  A    between atoms: P_2  and  O_3 
REMARK    3  A    between atoms: P_2  and  O_5 
REMARK    4  A    between atoms: O_5  and  P_6 
REMARK    5  A    between atoms: P_6  and  O_7 
ROOT
HETATM    1  P   UNK N   1      21.096  20.256   2.710  0.00  0.00     0.398 P 
HETATM    2  O   UNK N   1      20.248  20.926   3.825  0.00  0.00    -0.631 OA
ENDROOT
BRANCH   1   3
HETATM    3  O   UNK N   1      20.266  20.566   1.214  0.00  0.00    -0.307 OA
HETATM    4  H   UNK N   1      20.035  20.220   0.338  0.00  0.00     0.222 HD
ENDBRANCH   1   3
BRANCH   1   5
HETATM    5  O   UNK N   1      22.645  21.039   2.741  0.00  0.00    -0.307 OA
HETATM    6  H   UNK N   1      23.185  21.014   3.546  0.00  0.00     0.222 HD
ENDBRANCH   1   5
BRANCH   1   7
HETATM    7  O   UNK N   1      21.216  18.565   3.140  0.00  0.00    -0.206 OA
BRANCH   7   8
HETATM    8  P   UNK N   1      20.261  17.664   1.993  0.00  0.00     0.345 P 
HETATM    9  S   UNK N   1      21.562  16.421   3.185  0.00  0.00     0.003 SA
HETATM   10  O   UNK N   1      19.101  18.336   2.781  0.00  0.00    -0.642 OA
BRANCH   8  11
HETATM   11  O   UNK N   1      19.503  16.265   2.688  0.00  0.00    -0.317 OA
HETATM   12  H   UNK N   1      19.802  15.886   3.529  0.00  0.00     0.221 HD
ENDBRANCH   8  11
ENDBRANCH   7   8
ENDBRANCH   1   7
TORSDOF 5
ENDMDL
MODEL 6
REMARK VINA RESULT:      -3.6     10.876     11.841
REMARK  5 active torsions:
REMARK  status: ('A' for Active; 'I' for Inactive)
REMARK    1  A    between atoms: O_1  and  P_2 
REMARK    2  A    between atoms: P_2  and  O_3 
REMARK    3  A    between atoms: P_2  and  O_5 
REMARK    4  A    between atoms: O_5  and  P_6 
REMARK    5  A    between atoms: P_6  and  O_7 
ROOT
HETATM    1  P   UNK N   1      44.053  22.493   4.362  0.00  0.00     0.398 P 
HETATM    2  O   UNK N   1      43.762  22.613   5.882  0.00  0.00    -0.631 OA
ENDROOT
BRANCH   1   3
HETATM    3  O   UNK N   1      43.580  24.009   3.655  0.00  0.00    -0.307 OA
HETATM    4  H   UNK N   1      43.754  24.963   3.610  0.00  0.00     0.222 HD
ENDBRANCH   1   3
BRANCH   1   5
HETATM    5  O   UNK N   1      45.764  22.238   4.213  0.00  0.00    -0.307 OA
HETATM    6  H   UNK N   1      46.107  21.355   4.007  0.00  0.00     0.222 HD
ENDBRANCH   1   5
BRANCH   1   7
HETATM    7  O   UNK N   1      43.141  21.111   3.801  0.00  0.00    -0.206 OA
BRANCH   7   8
HETATM    8  P   UNK N   1      44.131  20.265   2.641  0.00  0.00     0.345 P 
HETATM    9  S   UNK N   1      42.151  19.430   2.843  0.00  0.00     0.003 SA
HETATM   10  O   UNK N   1      44.180  21.679   1.997  0.00  0.00    -0.642 OA
BRANCH   8  11
HETATM   11  O   UNK N   1      43.312  19.955   1.143  0.00  0.00    -0.317 OA
HETATM   12  H   UNK N   1      42.351  19.835   1.101  0.00  0.00     0.221 HD
ENDBRANCH   8  11
ENDBRANCH   7   8
ENDBRANCH   1   7
TORSDOF 5
ENDMDL
MODEL 7
REMARK VINA RESULT:      -3.5      1.599      2.344
REMARK  5 active torsions:
REMARK  status: ('A' for Active; 'I' for Inactive)
REMARK    1  A    between atoms: O_1  and  P_2 
REMARK    2  A    between atoms: P_2  and  O_3 
REMARK    3  A    between atoms: P_2  and  O_5 
REMARK    4  A    between atoms: O_5  and  P_6 
REMARK    5  A    between atoms: P_6  and  O_7 
ROOT
HETATM    1  P   UNK N   1      33.271  15.938   8.629  0.00  0.00     0.398 P 
HETATM    2  O   UNK N   1      32.536  14.989   9.613  0.00  0.00    -0.631 OA
ENDROOT
BRANCH   1   3
HETATM    3  O   UNK N   1      32.728  15.502   7.036  0.00  0.00    -0.307 OA
HETATM    4  H   UNK N   1      32.165  15.748   6.284  0.00  0.00     0.222 HD
ENDBRANCH   1   3
BRANCH   1   5
HETATM    5  O   UNK N   1      32.772  17.548   9.043  0.00  0.00    -0.307 OA
HETATM    6  H   UNK N   1      31.935  17.900   8.702  0.00  0.00     0.222 HD
ENDBRANCH   1   5
BRANCH   1   7
HETATM    7  O   UNK N   1      34.981  15.698   8.907  0.00  0.00    -0.206 OA
BRANCH   7   8
HETATM    8  P   UNK N   1      35.276  15.953  10.607  0.00  0.00     0.345 P 
HETATM    9  S   UNK N   1      36.582  14.478   9.725  0.00  0.00     0.003 SA
HETATM   10  O   UNK N   1      35.508  17.408  10.112  0.00  0.00    -0.642 OA
BRANCH   8  11
HETATM   11  O   UNK N   1      36.958  16.147  10.985  0.00  0.00    -0.317 OA
HETATM   12  H   UNK N   1      37.349  17.021  11.144  0.00  0.00     0.221 HD
ENDBRANCH   8  11
ENDBRANCH   7   8
ENDBRANCH   1   7
TORSDOF 5
ENDMDL
MODEL 8
REMARK VINA RESULT:      -3.5      2.380      3.113
REMARK  5 active torsions:
REMARK  status: ('A' for Active; 'I' for Inactive)
REMARK    1  A    between atoms: O_1  and  P_2 
REMARK    2  A    between atoms: P_2  and  O_3 
REMARK    3  A    between atoms: P_2  and  O_5 
REMARK    4  A    between atoms: O_5  and  P_6 
REMARK    5  A    between atoms: P_6  and  O_7 
ROOT
HETATM    1  P   UNK N   1      33.143  14.516   9.362  0.00  0.00     0.398 P 
HETATM    2  O   UNK N   1      32.593  15.398   8.210  0.00  0.00    -0.631 OA
ENDROOT
BRANCH   1   3
HETATM    3  O   UNK N   1      32.383  15.087  10.818  0.00  0.00    -0.307 OA
HETATM    4  H   UNK N   1      32.304  14.975  11.778  0.00  0.00     0.222 HD
ENDBRANCH   1   3
BRANCH   1   5
HETATM    5  O   UNK N   1      32.663  12.888   9.001  0.00  0.00    -0.307 OA
HETATM    6  H   UNK N   1      33.165  12.141   9.363  0.00  0.00     0.222 HD
ENDBRANCH   1   5
BRANCH   1   7
HETATM    7  O   UNK N   1      34.882  14.701   9.328  0.00  0.00    -0.206 OA
BRANCH   7   8
HETATM    8  P   UNK N   1      35.378  15.287  10.893  0.00  0.00     0.345 P 
HETATM    9  S   UNK N   1      36.961  14.295   9.812  0.00  0.00     0.003 SA
HETATM   10  O   UNK N   1      34.915  16.637  10.278  0.00  0.00    -0.642 OA
BRANCH   8  11
HETATM   11  O   UNK N   1      36.886  16.146  10.853  0.00  0.00    -0.317 OA
HETATM   12  H   UNK N   1      36.983  16.986  10.378  0.00  0.00     0.221 HD
ENDBRANCH   8  11
ENDBRANCH   7   8
ENDBRANCH   1   7
TORSDOF 5
ENDMDL
MODEL 9
REMARK VINA RESULT:      -3.4     11.020     12.032
REMARK  5 active torsions:
REMARK  status: ('A' for Active; 'I' for Inactive)
REMARK    1  A    between atoms: O_1  and  P_2 
REMARK    2  A    between atoms: P_2  and  O_3 
REMARK    3  A    between atoms: P_2  and  O_5 
REMARK    4  A    between atoms: O_5  and  P_6 
REMARK    5  A    between atoms: P_6  and  O_7 
ROOT
HETATM    1  P   UNK N   1      43.940  22.811   3.535  0.00  0.00     0.398 P 
HETATM    2  O   UNK N   1      44.759  21.982   4.561  0.00  0.00    -0.631 OA
ENDROOT
BRANCH   1   3
HETATM    3  O   UNK N   1      43.551  24.312   4.321  0.00  0.00    -0.307 OA
HETATM    4  H   UNK N   1      43.322  25.247   4.198  0.00  0.00     0.222 HD
ENDBRANCH   1   3
BRANCH   1   5
HETATM    5  O   UNK N   1      44.985  23.068   2.174  0.00  0.00    -0.307 OA
HETATM    6  H   UNK N   1      44.863  22.551   1.363  0.00  0.00     0.222 HD
ENDBRANCH   1   5
BRANCH   1   7
HETATM    7  O   UNK N   1      42.556  21.829   3.112  0.00  0.00    -0.206 OA
BRANCH   7   8
HETATM    8  P   UNK N   1      42.145  22.189   1.456  0.00  0.00     0.345 P 
HETATM    9  S   UNK N   1      40.739  20.862   2.417  0.00  0.00     0.003 SA
HETATM   10  O   UNK N   1      42.154  23.641   2.011  0.00  0.00    -0.642 OA
BRANCH   8  11
HETATM   11  O   UNK N   1      40.475  22.615   1.245  0.00  0.00    -0.317 OA
HETATM   12  H   UNK N   1      39.910  22.164   0.598  0.00  0.00     0.221 HD
ENDBRANCH   8  11
ENDBRANCH   7   8
ENDBRANCH   1   7
TORSDOF 5
ENDMDL
