REMARK  3 active torsions:
REMARK  status: ('A' for Active; 'I' for Inactive)
REMARK    1  A    between atoms: N_1  and  C_2 
REMARK    2  A    between atoms: C_6  and  C_8 
REMARK    3  A    between atoms: C_8  and  O_9 
ROOT
HETATM    1  C   UNK N   1       1.939  -0.481   0.000  0.00  0.00     0.026 A 
HETATM    2  C   UNK N   1       0.736  -1.194   0.000  0.00  0.00     0.029 A 
HETATM    3  C   UNK N   1      -0.483  -0.510  -0.000  0.00  0.00     0.003 A 
HETATM    4  C   UNK N   1      -0.499   0.888  -0.000  0.00  0.00     0.018 A 
HETATM    5  C   UNK N   1       0.705   1.605  -0.000  0.00  0.00     0.039 A 
HETATM    6  C   UNK N   1       1.923   0.914   0.000  0.00  0.00     0.047 A 
ENDROOT
BRANCH   5   7
HETATM    7  C   UNK N   1       0.689   3.076  -0.000  0.00  0.00     0.176 C 
HETATM    8  O   UNK N   1       1.738   3.703  -0.000  0.00  0.00    -0.646 OA
BRANCH   7   9
HETATM    9  O   UNK N   1      -0.482   3.740  -0.000  0.00  0.00    -0.773 OA
HETATM   10  H   UNK N   1      -0.489   4.677  -0.000  0.00  0.00     0.167 HD
ENDBRANCH   7   9
ENDBRANCH   5   7
BRANCH   1  11
HETATM   11  N   UNK N   1       3.167  -1.167   0.000  0.00  0.00    -0.399 N 
HETATM   12  H   UNK N   1       3.181  -2.152   0.000  0.00  0.00     0.156 HD
HETATM   13  H   UNK N   1       4.013  -0.663   0.000  0.00  0.00     0.156 HD
ENDBRANCH   1  11
TORSDOF 3
