MODEL 1
REMARK VINA RESULT:      -8.5      0.000      0.000
REMARK  22 active torsions:
REMARK  status: ('A' for Active; 'I' for Inactive)
REMARK    1  A    between atoms: C_14  and  C_5 
REMARK    2  A    between atoms: N_41  and  C_5 
REMARK    3  A    between atoms: C_15  and  C_6 
REMARK    4  A    between atoms: O_54  and  C_6 
REMARK    5  A    between atoms: C_16  and  C_7 
REMARK    6  A    between atoms: O_55  and  C_7 
REMARK    7  A    between atoms: C_19  and  C_14 
REMARK    8  A    between atoms: C_14  and  O_43 
REMARK    9  A    between atoms: C_19  and  C_15 
REMARK   10  A    between atoms: C_15  and  O_44 
REMARK   11  A    between atoms: C_19  and  O_45 
REMARK   12  A    between atoms: C_20  and  O_46 
REMARK   13  A    between atoms: C_21  and  O_47 
REMARK   14  A    between atoms: N_28  and  C_22 
REMARK   15  A    between atoms: O_48  and  C_25 
REMARK   16  A    between atoms: C_26  and  N_42 
REMARK   17  A    between atoms: P_58  and  O_50 
REMARK   18  A    between atoms: P_59  and  O_52 
REMARK   19  A    between atoms: P_58  and  O_54 
REMARK   20  A    between atoms: P_59  and  O_55 
REMARK   21  A    between atoms: P_58  and  O_57 
REMARK   22  A    between atoms: P_59  and  O_57 
ROOT
HETATM    1  O   UNK N   1      25.115  19.066   2.585  0.00  0.00    -0.631 OA
HETATM    2  P   UNK N   1      24.949  20.104   3.719  0.00  0.00     0.401 P 
ENDROOT
BRANCH   2   3
HETATM    3  O   UNK N   1      24.573  19.168   5.134  0.00  0.00    -0.307 OA
HETATM    4  H   UNK N   1      24.681  18.226   5.334  0.00  0.00     0.222 HD
ENDBRANCH   2   3
BRANCH   2   5
HETATM    5  O   UNK N   1      26.499  20.874   3.828  0.00  0.00    -0.294 OA
BRANCH   5   6
HETATM    6  C   UNK N   1      27.304  19.941   4.478  0.00  0.00     0.215 C 
BRANCH   6   7
HETATM    7  C   UNK N   1      27.710  20.371   5.889  0.00  0.00     0.173 C 
BRANCH   7   8
HETATM    8  C   UNK N   1      27.281  19.510   7.122  0.00  0.00     0.179 C 
BRANCH   8   9
HETATM    9  C   UNK N   1      28.253  18.601   7.936  0.00  0.00     0.167 C 
BRANCH   9  10
HETATM   10  C   UNK N   1      28.491  17.138   7.457  0.00  0.00     0.165 C 
BRANCH  10  11
HETATM   11  N   UNK N   1      28.393  16.825   6.005  0.00  0.00    -0.327 N 
HETATM   12  C   UNK N   1      29.545  16.794   5.256  0.00  0.00     0.063 A 
HETATM   13  C   UNK N   1      30.789  17.076   5.830  0.00  0.00     0.039 A 
HETATM   14  C   UNK N   1      29.498  16.474   3.880  0.00  0.00     0.060 A 
HETATM   15  C   UNK N   1      31.956  17.089   5.070  0.00  0.00    -0.054 A 
HETATM   16  C   UNK N   1      33.242  17.442   5.737  0.00  0.00     0.049 C 
HETATM   17  C   UNK N   1      31.896  16.792   3.700  0.00  0.00    -0.054 A 
HETATM   18  C   UNK N   1      33.121  16.813   2.852  0.00  0.00     0.049 C 
HETATM   19  C   UNK N   1      30.667  16.474   3.114  0.00  0.00     0.039 A 
HETATM   20  N   UNK N   1      28.315  16.163   3.302  0.00  0.00    -0.348 N 
HETATM   21  C   UNK N   1      27.172  16.154   4.025  0.00  0.00     0.129 A 
ATOM     22  HN  UNK N   1      28.284  15.935   2.309  1.00  0.00     0.166 HD
HETATM   23  C   UNK N   1      27.195  16.485   5.403  0.00  0.00     0.143 A 
HETATM   24  C   UNK N   1      25.956  15.811   3.425  0.00  0.00     0.175 A 
HETATM   25  N   UNK N   1      26.032  16.443   6.104  0.00  0.00    -0.292 N 
HETATM   26  C   UNK N   1      24.844  16.114   5.497  0.00  0.00     0.327 A 
ATOM     27  HN  UNK N   1      26.042  16.662   7.101  1.00  0.00     0.172 HD
HETATM   28  N   UNK N   1      24.820  15.800   4.162  0.00  0.00    -0.287 N 
HETATM   29  O   UNK N   1      23.813  16.102   6.140  0.00  0.00    -0.247 OA
ATOM     30  HN  UNK N   1      23.934  15.556   3.719  1.00  0.00     0.172 HD
BRANCH  24  31
HETATM   31  O   UNK N   1      25.908  15.492   2.119  0.00  0.00    -0.344 OA
HETATM   32  H   UNK N   1      25.854  16.123   1.427  0.00  0.00     0.219 HD
ENDBRANCH  24  31
ENDBRANCH  10  11
ENDBRANCH   9  10
BRANCH   9  33
HETATM   33  O   UNK N   1      27.807  18.583   9.259  0.00  0.00    -0.391 OA
HETATM   34  H   UNK N   1      28.056  17.900   9.901  0.00  0.00     0.210 HD
ENDBRANCH   9  33
ENDBRANCH   8   9
BRANCH   8  35
HETATM   35  O   UNK N   1      26.650  20.374   8.027  0.00  0.00    -0.390 OA
HETATM   36  H   UNK N   1      25.736  20.694   7.996  0.00  0.00     0.210 HD
ENDBRANCH   8  35
ENDBRANCH   7   8
BRANCH   7  37
HETATM   37  O   UNK N   1      27.445  21.719   6.054  0.00  0.00    -0.391 OA
HETATM   38  H   UNK N   1      27.939  22.368   6.581  0.00  0.00     0.210 HD
ENDBRANCH   7  37
ENDBRANCH   6   7
ENDBRANCH   5   6
ENDBRANCH   2   5
BRANCH   2  39
HETATM   39  O   UNK N   1      23.708  21.202   3.155  0.00  0.00    -0.195 OA
BRANCH  39  40
HETATM   40  P   UNK N   1      22.414  20.286   2.443  0.00  0.00     0.401 P 
HETATM   41  O   UNK N   1      22.126  20.592   0.950  0.00  0.00    -0.631 OA
BRANCH  40  42
HETATM   42  O   UNK N   1      21.427  21.645   2.852  0.00  0.00    -0.307 OA
HETATM   43  H   UNK N   1      20.757  22.227   3.243  0.00  0.00     0.222 HD
ENDBRANCH  40  42
BRANCH  40  44
HETATM   44  O   UNK N   1      21.193  19.418   3.298  0.00  0.00    -0.294 OA
BRANCH  44  45
HETATM   45  C   UNK N   1      20.381  18.882   2.312  0.00  0.00     0.215 C 
BRANCH  45  46
HETATM   46  C   UNK N   1      20.296  17.382   2.456  0.00  0.00     0.180 C 
HETATM   47  C   UNK N   1      20.037  16.553   1.226  0.00  0.00     0.182 C 
HETATM   48  C   UNK N   1      20.183  15.179   1.875  0.00  0.00     0.198 C 
HETATM   49  C   UNK N   1      21.307  15.467   2.919  0.00  0.00     0.262 C 
HETATM   50  O   UNK N   1      21.517  16.862   2.905  0.00  0.00    -0.353 OA
BRANCH  47  51
HETATM   51  O   UNK N   1      18.780  16.768   0.655  0.00  0.00    -0.390 OA
HETATM   52  H   UNK N   1      18.224  17.297   0.063  0.00  0.00     0.210 HD
ENDBRANCH  47  51
BRANCH  48  53
HETATM   53  O   UNK N   1      18.989  14.829   2.519  0.00  0.00    -0.388 OA
HETATM   54  H   UNK N   1      18.502  14.275   3.150  0.00  0.00     0.210 HD
ENDBRANCH  48  53
BRANCH  49  55
HETATM   55  N   UNK N   1      21.000  15.119   4.320  0.00  0.00    -0.297 N 
HETATM   56  C   UNK N   1      20.706  13.849   4.727  0.00  0.00     0.188 A 
HETATM   57  N   UNK N   1      20.405  13.797   6.046  0.00  0.00    -0.346 N 
HETATM   58  C   UNK N   1      20.516  15.067   6.457  0.00  0.00     0.122 A 
ATOM     59  HN  UNK N   1      20.151  12.978   6.600  1.00  0.00     0.167 HD
HETATM   60  C   UNK N   1      20.296  15.594   7.709  0.00  0.00     0.131 A 
HETATM   61  C   UNK N   1      20.880  15.863   5.426  0.00  0.00     0.142 A 
HETATM   62  N   UNK N   1      20.472  16.939   7.873  0.00  0.00    -0.337 N 
HETATM   63  C   UNK N   1      20.853  17.736   6.816  0.00  0.00     0.183 A 
ATOM     64  HN  UNK N   1      20.319  17.358   8.790  1.00  0.00     0.168 HD
HETATM   65  N   UNK N   1      21.055  17.198   5.569  0.00  0.00    -0.336 N 
ATOM     66  HN  UNK N   1      21.327  17.782   4.780  1.00  0.00     0.168 HD
BRANCH  60  67
HETATM   67  N   UNK N   1      19.886  14.778   8.784  0.00  0.00    -0.383 N 
HETATM   68  H   UNK N   1      20.518  14.216   9.286  0.00  0.00     0.157 HD
HETATM   69  H   UNK N   1      18.935  14.772   9.040  0.00  0.00     0.157 HD
ENDBRANCH  60  67
ENDBRANCH  49  55
ENDBRANCH  45  46
ENDBRANCH  44  45
ENDBRANCH  40  44
ENDBRANCH  39  40
ENDBRANCH   2  39
TORSDOF 22
ENDMDL
MODEL 2
REMARK VINA RESULT:      -8.4      8.213     13.456
REMARK  22 active torsions:
REMARK  status: ('A' for Active; 'I' for Inactive)
REMARK    1  A    between atoms: C_14  and  C_5 
REMARK    2  A    between atoms: N_41  and  C_5 
REMARK    3  A    between atoms: C_15  and  C_6 
REMARK    4  A    between atoms: O_54  and  C_6 
REMARK    5  A    between atoms: C_16  and  C_7 
REMARK    6  A    between atoms: O_55  and  C_7 
REMARK    7  A    between atoms: C_19  and  C_14 
REMARK    8  A    between atoms: C_14  and  O_43 
REMARK    9  A    between atoms: C_19  and  C_15 
REMARK   10  A    between atoms: C_15  and  O_44 
REMARK   11  A    between atoms: C_19  and  O_45 
REMARK   12  A    between atoms: C_20  and  O_46 
REMARK   13  A    between atoms: C_21  and  O_47 
REMARK   14  A    between atoms: N_28  and  C_22 
REMARK   15  A    between atoms: O_48  and  C_25 
REMARK   16  A    between atoms: C_26  and  N_42 
REMARK   17  A    between atoms: P_58  and  O_50 
REMARK   18  A    between atoms: P_59  and  O_52 
REMARK   19  A    between atoms: P_58  and  O_54 
REMARK   20  A    between atoms: P_59  and  O_55 
REMARK   21  A    between atoms: P_58  and  O_57 
REMARK   22  A    between atoms: P_59  and  O_57 
ROOT
HETATM    1  O   UNK N   1      33.124  14.713   8.925  0.00  0.00    -0.631 OA
HETATM    2  P   UNK N   1      34.352  14.266   8.097  0.00  0.00     0.401 P 
ENDROOT
BRANCH   2   3
HETATM    3  O   UNK N   1      34.407  12.538   8.270  0.00  0.00    -0.307 OA
HETATM    4  H   UNK N   1      34.535  11.969   9.044  0.00  0.00     0.222 HD
ENDBRANCH   2   3
BRANCH   2   5
HETATM    5  O   UNK N   1      33.978  14.757   6.477  0.00  0.00    -0.294 OA
BRANCH   5   6
HETATM    6  C   UNK N   1      34.872  14.041   5.683  0.00  0.00     0.215 C 
BRANCH   6   7
HETATM    7  C   UNK N   1      34.262  13.569   4.361  0.00  0.00     0.173 C 
BRANCH   7   8
HETATM    8  C   UNK N   1      33.294  14.506   3.568  0.00  0.00     0.179 C 
BRANCH   8   9
HETATM    9  C   UNK N   1      31.748  14.546   3.777  0.00  0.00     0.167 C 
BRANCH   9  10
HETATM   10  C   UNK N   1      31.035  15.929   3.845  0.00  0.00     0.165 C 
BRANCH  10  11
HETATM   11  N   UNK N   1      30.447  16.379   5.137  0.00  0.00    -0.327 N 
HETATM   12  C   UNK N   1      29.119  16.123   5.384  0.00  0.00     0.063 A 
HETATM   13  C   UNK N   1      28.319  15.476   4.437  0.00  0.00     0.039 A 
HETATM   14  C   UNK N   1      28.530  16.509   6.609  0.00  0.00     0.060 A 
HETATM   15  C   UNK N   1      26.963  15.250   4.661  0.00  0.00    -0.054 A 
HETATM   16  C   UNK N   1      26.158  14.596   3.590  0.00  0.00     0.049 C 
HETATM   17  C   UNK N   1      26.382  15.658   5.872  0.00  0.00    -0.054 A 
HETATM   18  C   UNK N   1      24.930  15.448   6.139  0.00  0.00     0.049 C 
HETATM   19  C   UNK N   1      27.172  16.276   6.845  0.00  0.00     0.039 A 
HETATM   20  N   UNK N   1      29.284  17.106   7.560  0.00  0.00    -0.348 N 
HETATM   21  C   UNK N   1      30.600  17.339   7.355  0.00  0.00     0.129 A 
ATOM     22  HN  UNK N   1      28.856  17.386   8.442  1.00  0.00     0.166 HD
HETATM   23  C   UNK N   1      31.208  16.972   6.128  0.00  0.00     0.143 A 
HETATM   24  C   UNK N   1      31.379  17.938   8.350  0.00  0.00     0.175 A 
HETATM   25  N   UNK N   1      32.537  17.200   5.963  0.00  0.00    -0.292 N 
HETATM   26  C   UNK N   1      33.286  17.798   6.949  0.00  0.00     0.327 A 
ATOM     27  HN  UNK N   1      32.988  16.922   5.091  1.00  0.00     0.172 HD
HETATM   28  N   UNK N   1      32.697  18.160   8.133  0.00  0.00    -0.287 N 
HETATM   29  O   UNK N   1      34.469  18.010   6.772  0.00  0.00    -0.247 OA
ATOM     30  HN  UNK N   1      33.259  18.603   8.860  1.00  0.00     0.172 HD
BRANCH  24  31
HETATM   31  O   UNK N   1      30.825  18.295   9.523  0.00  0.00    -0.344 OA
HETATM   32  H   UNK N   1      31.313  18.423  10.314  0.00  0.00     0.219 HD
ENDBRANCH  24  31
ENDBRANCH  10  11
ENDBRANCH   9  10
BRANCH   9  33
HETATM   33  O   UNK N   1      31.460  13.825   4.937  0.00  0.00    -0.391 OA
HETATM   34  H   UNK N   1      30.763  13.153   4.993  0.00  0.00     0.210 HD
ENDBRANCH   9  33
ENDBRANCH   8   9
BRANCH   8  35
HETATM   35  O   UNK N   1      33.776  15.813   3.713  0.00  0.00    -0.390 OA
HETATM   36  H   UNK N   1      33.599  16.573   3.139  0.00  0.00     0.210 HD
ENDBRANCH   8  35
ENDBRANCH   7   8
BRANCH   7  37
HETATM   37  O   UNK N   1      33.766  12.286   4.515  0.00  0.00    -0.391 OA
HETATM   38  H   UNK N   1      34.237  11.444   4.413  0.00  0.00     0.210 HD
ENDBRANCH   7  37
ENDBRANCH   6   7
ENDBRANCH   5   6
ENDBRANCH   2   5
BRANCH   2  39
HETATM   39  O   UNK N   1      35.701  15.161   8.761  0.00  0.00    -0.195 OA
BRANCH  39  40
HETATM   40  P   UNK N   1      35.141  16.143  10.081  0.00  0.00     0.401 P 
HETATM   41  O   UNK N   1      35.283  17.674   9.879  0.00  0.00    -0.631 OA
BRANCH  40  42
HETATM   42  O   UNK N   1      36.791  16.118  10.601  0.00  0.00    -0.307 OA
HETATM   43  H   UNK N   1      37.734  15.916  10.703  0.00  0.00     0.222 HD
ENDBRANCH  40  42
BRANCH  40  44
HETATM   44  O   UNK N   1      34.852  15.606  11.696  0.00  0.00    -0.294 OA
BRANCH  44  45
HETATM   45  C   UNK N   1      36.013  14.946  12.064  0.00  0.00     0.215 C 
BRANCH  45  46
HETATM   46  C   UNK N   1      35.685  13.631  12.728  0.00  0.00     0.180 C 
HETATM   47  C   UNK N   1      35.328  12.454  11.858  0.00  0.00     0.182 C 
HETATM   48  C   UNK N   1      35.234  11.407  12.966  0.00  0.00     0.198 C 
HETATM   49  C   UNK N   1      36.362  11.897  13.927  0.00  0.00     0.262 C 
HETATM   50  O   UNK N   1      36.794  13.147  13.432  0.00  0.00    -0.353 OA
BRANCH  47  51
HETATM   51  O   UNK N   1      34.138  12.619  11.145  0.00  0.00    -0.390 OA
HETATM   52  H   UNK N   1      33.695  12.932  10.342  0.00  0.00     0.210 HD
ENDBRANCH  47  51
BRANCH  48  53
HETATM   53  O   UNK N   1      33.983  11.489  13.590  0.00  0.00    -0.388 OA
HETATM   54  H   UNK N   1      33.074  11.169  13.702  0.00  0.00     0.210 HD
ENDBRANCH  48  53
BRANCH  49  55
HETATM   55  N   UNK N   1      35.966  12.133  15.328  0.00  0.00    -0.297 N 
HETATM   56  C   UNK N   1      35.264  11.226  16.069  0.00  0.00     0.188 A 
HETATM   57  N   UNK N   1      34.972  11.698  17.305  0.00  0.00    -0.346 N 
HETATM   58  C   UNK N   1      35.510  12.924  17.321  0.00  0.00     0.122 A 
ATOM     59  HN  UNK N   1      34.461  11.226  18.051  1.00  0.00     0.167 HD
HETATM   60  C   UNK N   1      35.491  13.865  18.325  0.00  0.00     0.131 A 
HETATM   61  C   UNK N   1      36.113  13.188  16.139  0.00  0.00     0.142 A 
HETATM   62  N   UNK N   1      36.112  15.058  18.092  0.00  0.00    -0.337 N 
HETATM   63  C   UNK N   1      36.733  15.308  16.888  0.00  0.00     0.183 A 
ATOM     64  HN  UNK N   1      36.117  15.774  18.819  1.00  0.00     0.168 HD
HETATM   65  N   UNK N   1      36.731  14.366  15.889  0.00  0.00    -0.336 N 
ATOM     66  HN  UNK N   1      37.178  14.547  14.992  1.00  0.00     0.168 HD
BRANCH  60  67
HETATM   67  N   UNK N   1      34.837  13.613  19.550  0.00  0.00    -0.383 N 
HETATM   68  H   UNK N   1      34.518  14.338  20.133  0.00  0.00     0.157 HD
HETATM   69  H   UNK N   1      34.696  12.679  19.829  0.00  0.00     0.157 HD
ENDBRANCH  60  67
ENDBRANCH  49  55
ENDBRANCH  45  46
ENDBRANCH  44  45
ENDBRANCH  40  44
ENDBRANCH  39  40
ENDBRANCH   2  39
TORSDOF 22
ENDMDL
MODEL 3
REMARK VINA RESULT:      -8.2      9.935     13.961
REMARK  22 active torsions:
REMARK  status: ('A' for Active; 'I' for Inactive)
REMARK    1  A    between atoms: C_14  and  C_5 
REMARK    2  A    between atoms: N_41  and  C_5 
REMARK    3  A    between atoms: C_15  and  C_6 
REMARK    4  A    between atoms: O_54  and  C_6 
REMARK    5  A    between atoms: C_16  and  C_7 
REMARK    6  A    between atoms: O_55  and  C_7 
REMARK    7  A    between atoms: C_19  and  C_14 
REMARK    8  A    between atoms: C_14  and  O_43 
REMARK    9  A    between atoms: C_19  and  C_15 
REMARK   10  A    between atoms: C_15  and  O_44 
REMARK   11  A    between atoms: C_19  and  O_45 
REMARK   12  A    between atoms: C_20  and  O_46 
REMARK   13  A    between atoms: C_21  and  O_47 
REMARK   14  A    between atoms: N_28  and  C_22 
REMARK   15  A    between atoms: O_48  and  C_25 
REMARK   16  A    between atoms: C_26  and  N_42 
REMARK   17  A    between atoms: P_58  and  O_50 
REMARK   18  A    between atoms: P_59  and  O_52 
REMARK   19  A    between atoms: P_58  and  O_54 
REMARK   20  A    between atoms: P_59  and  O_55 
REMARK   21  A    between atoms: P_58  and  O_57 
REMARK   22  A    between atoms: P_59  and  O_57 
ROOT
HETATM    1  O   UNK N   1      32.515   7.964   9.895  0.00  0.00    -0.631 OA
HETATM    2  P   UNK N   1      33.269   9.235   9.440  0.00  0.00     0.401 P 
ENDROOT
BRANCH   2   3
HETATM    3  O   UNK N   1      32.125  10.529   9.630  0.00  0.00    -0.307 OA
HETATM    4  H   UNK N   1      31.290  10.727   9.179  0.00  0.00     0.222 HD
ENDBRANCH   2   3
BRANCH   2   5
HETATM    5  O   UNK N   1      34.601   9.362  10.542  0.00  0.00    -0.294 OA
BRANCH   5   6
HETATM    6  C   UNK N   1      35.554   8.480  10.037  0.00  0.00     0.215 C 
BRANCH   6   7
HETATM    7  C   UNK N   1      36.721   8.237  10.996  0.00  0.00     0.173 C 
BRANCH   7   8
HETATM    8  C   UNK N   1      36.451   7.675  12.430  0.00  0.00     0.179 C 
BRANCH   8   9
HETATM    9  C   UNK N   1      36.451   8.545  13.726  0.00  0.00     0.167 C 
BRANCH   9  10
HETATM   10  C   UNK N   1      35.218   9.448  14.024  0.00  0.00     0.165 C 
BRANCH  10  11
HETATM   11  N   UNK N   1      35.434  10.880  14.370  0.00  0.00    -0.327 N 
HETATM   12  C   UNK N   1      35.383  11.256  15.691  0.00  0.00     0.063 A 
HETATM   13  C   UNK N   1      35.109  10.325  16.698  0.00  0.00     0.039 A 
HETATM   14  C   UNK N   1      35.611  12.600  16.064  0.00  0.00     0.060 A 
HETATM   15  C   UNK N   1      35.013  10.704  18.035  0.00  0.00    -0.054 A 
HETATM   16  C   UNK N   1      34.673   9.669  19.052  0.00  0.00     0.049 C 
HETATM   17  C   UNK N   1      35.218  12.046  18.392  0.00  0.00    -0.054 A 
HETATM   18  C   UNK N   1      35.107  12.492  19.810  0.00  0.00     0.049 C 
HETATM   19  C   UNK N   1      35.527  12.986  17.405  0.00  0.00     0.039 A 
HETATM   20  N   UNK N   1      35.912  13.519  15.118  0.00  0.00    -0.348 N 
HETATM   21  C   UNK N   1      36.000  13.168  13.815  0.00  0.00     0.129 A 
ATOM     22  HN  UNK N   1      36.073  14.488  15.389  1.00  0.00     0.166 HD
HETATM   23  C   UNK N   1      35.763  11.827  13.418  0.00  0.00     0.143 A 
HETATM   24  C   UNK N   1      36.333  14.118  12.845  0.00  0.00     0.175 A 
HETATM   25  N   UNK N   1      35.883  11.504  12.104  0.00  0.00    -0.292 N 
HETATM   26  C   UNK N   1      36.202  12.453  11.162  0.00  0.00     0.327 A 
ATOM     27  HN  UNK N   1      35.733  10.539  11.811  1.00  0.00     0.172 HD
HETATM   28  N   UNK N   1      36.424  13.752  11.544  0.00  0.00    -0.287 N 
HETATM   29  O   UNK N   1      36.284  12.145   9.990  0.00  0.00    -0.247 OA
ATOM     30  HN  UNK N   1      36.661  14.450  10.839  1.00  0.00     0.172 HD
BRANCH  24  31
HETATM   31  O   UNK N   1      36.564  15.397  13.196  0.00  0.00    -0.344 OA
HETATM   32  H   UNK N   1      37.172  15.959  12.756  0.00  0.00     0.219 HD
ENDBRANCH  24  31
ENDBRANCH  10  11
ENDBRANCH   9  10
BRANCH   9  33
HETATM   33  O   UNK N   1      37.602   9.335  13.703  0.00  0.00    -0.391 OA
HETATM   34  H   UNK N   1      37.762  10.069  14.316  0.00  0.00     0.210 HD
ENDBRANCH   9  33
ENDBRANCH   8   9
BRANCH   8  35
HETATM   35  O   UNK N   1      35.231   6.989  12.379  0.00  0.00    -0.390 OA
HETATM   36  H   UNK N   1      34.739   6.720  11.589  0.00  0.00     0.210 HD
ENDBRANCH   8  35
ENDBRANCH   7   8
BRANCH   7  37
HETATM   37  O   UNK N   1      37.554   9.343  10.998  0.00  0.00    -0.391 OA
HETATM   38  H   UNK N   1      38.493   9.387  10.757  0.00  0.00     0.210 HD
ENDBRANCH   7  37
ENDBRANCH   6   7
ENDBRANCH   5   6
ENDBRANCH   2   5
BRANCH   2  39
HETATM   39  O   UNK N   1      33.797   8.893   7.807  0.00  0.00    -0.195 OA
BRANCH  39  40
HETATM   40  P   UNK N   1      33.709  10.347   6.860  0.00  0.00     0.401 P 
HETATM   41  O   UNK N   1      34.955  10.648   5.986  0.00  0.00    -0.631 OA
BRANCH  40  42
HETATM   42  O   UNK N   1      34.536  11.083   8.188  0.00  0.00    -0.307 OA
HETATM   43  H   UNK N   1      34.847  11.706   8.863  0.00  0.00     0.222 HD
ENDBRANCH  40  42
BRANCH  40  44
HETATM   44  O   UNK N   1      32.608  11.653   7.103  0.00  0.00    -0.294 OA
BRANCH  44  45
HETATM   45  C   UNK N   1      33.325  12.789   6.764  0.00  0.00     0.215 C 
BRANCH  45  46
HETATM   46  C   UNK N   1      32.909  13.953   7.630  0.00  0.00     0.180 C 
HETATM   47  C   UNK N   1      33.597  14.148   8.955  0.00  0.00     0.182 C 
HETATM   48  C   UNK N   1      32.935  15.471   9.333  0.00  0.00     0.198 C 
HETATM   49  C   UNK N   1      32.808  16.145   7.931  0.00  0.00     0.262 C 
HETATM   50  O   UNK N   1      33.176  15.166   6.982  0.00  0.00    -0.353 OA
BRANCH  47  51
HETATM   51  O   UNK N   1      33.356  13.123   9.873  0.00  0.00    -0.390 OA
HETATM   52  H   UNK N   1      33.495  12.199  10.132  0.00  0.00     0.210 HD
ENDBRANCH  47  51
BRANCH  48  53
HETATM   53  O   UNK N   1      31.669  15.228   9.881  0.00  0.00    -0.388 OA
HETATM   54  H   UNK N   1      30.790  15.543  10.146  0.00  0.00     0.210 HD
ENDBRANCH  48  53
BRANCH  49  55
HETATM   55  N   UNK N   1      31.457  16.593   7.544  0.00  0.00    -0.297 N 
HETATM   56  C   UNK N   1      30.900  16.323   6.327  0.00  0.00     0.188 A 
HETATM   57  N   UNK N   1      29.677  16.890   6.192  0.00  0.00    -0.346 N 
HETATM   58  C   UNK N   1      29.481  17.523   7.355  0.00  0.00     0.122 A 
ATOM     59  HN  UNK N   1      29.050  16.845   5.388  1.00  0.00     0.167 HD
HETATM   60  C   UNK N   1      28.409  18.287   7.755  0.00  0.00     0.131 A 
HETATM   61  C   UNK N   1      30.543  17.342   8.173  0.00  0.00     0.142 A 
HETATM   62  N   UNK N   1      28.450  18.839   9.004  0.00  0.00    -0.337 N 
HETATM   63  C   UNK N   1      29.533  18.637   9.830  0.00  0.00     0.183 A 
ATOM     64  HN  UNK N   1      27.669  19.409   9.329  1.00  0.00     0.168 HD
HETATM   65  N   UNK N   1      30.603  17.884   9.412  0.00  0.00    -0.336 N 
ATOM     66  HN  UNK N   1      31.413  17.739  10.013  1.00  0.00     0.168 HD
BRANCH  60  67
HETATM   67  N   UNK N   1      27.310  18.509   6.899  0.00  0.00    -0.383 N 
HETATM   68  H   UNK N   1      27.326  19.190   6.189  0.00  0.00     0.157 HD
HETATM   69  H   UNK N   1      26.499  17.961   7.015  0.00  0.00     0.157 HD
ENDBRANCH  60  67
ENDBRANCH  49  55
ENDBRANCH  45  46
ENDBRANCH  44  45
ENDBRANCH  40  44
ENDBRANCH  39  40
ENDBRANCH   2  39
TORSDOF 22
ENDMDL
MODEL 4
REMARK VINA RESULT:      -8.2      9.343     12.746
REMARK  22 active torsions:
REMARK  status: ('A' for Active; 'I' for Inactive)
REMARK    1  A    between atoms: C_14  and  C_5 
REMARK    2  A    between atoms: N_41  and  C_5 
REMARK    3  A    between atoms: C_15  and  C_6 
REMARK    4  A    between atoms: O_54  and  C_6 
REMARK    5  A    between atoms: C_16  and  C_7 
REMARK    6  A    between atoms: O_55  and  C_7 
REMARK    7  A    between atoms: C_19  and  C_14 
REMARK    8  A    between atoms: C_14  and  O_43 
REMARK    9  A    between atoms: C_19  and  C_15 
REMARK   10  A    between atoms: C_15  and  O_44 
REMARK   11  A    between atoms: C_19  and  O_45 
REMARK   12  A    between atoms: C_20  and  O_46 
REMARK   13  A    between atoms: C_21  and  O_47 
REMARK   14  A    between atoms: N_28  and  C_22 
REMARK   15  A    between atoms: O_48  and  C_25 
REMARK   16  A    between atoms: C_26  and  N_42 
REMARK   17  A    between atoms: P_58  and  O_50 
REMARK   18  A    between atoms: P_59  and  O_52 
REMARK   19  A    between atoms: P_58  and  O_54 
REMARK   20  A    between atoms: P_59  and  O_55 
REMARK   21  A    between atoms: P_58  and  O_57 
REMARK   22  A    between atoms: P_59  and  O_57 
ROOT
HETATM    1  O   UNK N   1      34.342  14.442   6.952  0.00  0.00    -0.631 OA
HETATM    2  P   UNK N   1      33.899  14.879   8.368  0.00  0.00     0.401 P 
ENDROOT
BRANCH   2   3
HETATM    3  O   UNK N   1      32.195  15.187   8.231  0.00  0.00    -0.307 OA
HETATM    4  H   UNK N   1      31.496  14.746   7.724  0.00  0.00     0.222 HD
ENDBRANCH   2   3
BRANCH   2   5
HETATM    5  O   UNK N   1      34.245  13.506   9.368  0.00  0.00    -0.294 OA
BRANCH   5   6
HETATM    6  C   UNK N   1      35.275  13.936  10.203  0.00  0.00     0.215 C 
BRANCH   6   7
HETATM    7  C   UNK N   1      34.977  13.725  11.689  0.00  0.00     0.173 C 
BRANCH   7   8
HETATM    8  C   UNK N   1      36.043  14.120  12.763  0.00  0.00     0.179 C 
BRANCH   8   9
HETATM    9  C   UNK N   1      35.931  13.765  14.279  0.00  0.00     0.167 C 
BRANCH   9  10
HETATM   10  C   UNK N   1      36.902  12.703  14.874  0.00  0.00     0.165 C 
BRANCH  10  11
HETATM   11  N   UNK N   1      36.431  11.299  15.033  0.00  0.00    -0.327 N 
HETATM   12  C   UNK N   1      35.890  10.915  16.237  0.00  0.00     0.063 A 
HETATM   13  C   UNK N   1      35.802  11.810  17.309  0.00  0.00     0.039 A 
HETATM   14  C   UNK N   1      35.407   9.600  16.420  0.00  0.00     0.060 A 
HETATM   15  C   UNK N   1      35.295  11.418  18.545  0.00  0.00    -0.054 A 
HETATM   16  C   UNK N   1      35.271  12.411  19.658  0.00  0.00     0.049 C 
HETATM   17  C   UNK N   1      34.838  10.103  18.724  0.00  0.00    -0.054 A 
HETATM   18  C   UNK N   1      34.305   9.644  20.037  0.00  0.00     0.049 C 
HETATM   19  C   UNK N   1      34.886   9.203  17.655  0.00  0.00     0.039 A 
HETATM   20  N   UNK N   1      35.447   8.720  15.394  0.00  0.00    -0.348 N 
HETATM   21  C   UNK N   1      35.943   9.083  14.189  0.00  0.00     0.129 A 
ATOM     22  HN  UNK N   1      35.099   7.771  15.529  1.00  0.00     0.166 HD
HETATM   23  C   UNK N   1      36.445  10.393  13.989  0.00  0.00     0.143 A 
HETATM   24  C   UNK N   1      35.962   8.174  13.126  0.00  0.00     0.175 A 
HETATM   25  N   UNK N   1      36.916  10.731  12.760  0.00  0.00    -0.292 N 
HETATM   26  C   UNK N   1      36.936   9.822  11.729  0.00  0.00     0.327 A 
ATOM     27  HN  UNK N   1      37.262  11.677  12.600  1.00  0.00     0.172 HD
HETATM   28  N   UNK N   1      36.457   8.552  11.924  0.00  0.00    -0.287 N 
HETATM   29  O   UNK N   1      37.380  10.141  10.643  0.00  0.00    -0.247 OA
ATOM     30  HN  UNK N   1      36.474   7.884  11.154  1.00  0.00     0.172 HD
BRANCH  24  31
HETATM   31  O   UNK N   1      35.490   6.925  13.292  0.00  0.00    -0.344 OA
HETATM   32  H   UNK N   1      35.298   6.340  12.584  0.00  0.00     0.219 HD
ENDBRANCH  24  31
ENDBRANCH  10  11
ENDBRANCH   9  10
BRANCH   9  33
HETATM   33  O   UNK N   1      34.615  13.371  14.524  0.00  0.00    -0.391 OA
HETATM   34  H   UNK N   1      33.840  13.834  14.168  0.00  0.00     0.210 HD
ENDBRANCH   9  33
ENDBRANCH   8   9
BRANCH   8  35
HETATM   35  O   UNK N   1      37.280  13.651  12.306  0.00  0.00    -0.390 OA
HETATM   36  H   UNK N   1      37.469  13.211  11.463  0.00  0.00     0.210 HD
ENDBRANCH   8  35
ENDBRANCH   7   8
BRANCH   7  37
HETATM   37  O   UNK N   1      34.464  12.454  11.881  0.00  0.00    -0.391 OA
HETATM   38  H   UNK N   1      34.891  11.693  12.304  0.00  0.00     0.210 HD
ENDBRANCH   7  37
ENDBRANCH   6   7
ENDBRANCH   5   6
ENDBRANCH   2   5
BRANCH   2  39
HETATM   39  O   UNK N   1      34.912  16.251   8.761  0.00  0.00    -0.195 OA
BRANCH  39  40
HETATM   40  P   UNK N   1      34.333  17.652   7.911  0.00  0.00     0.401 P 
HETATM   41  O   UNK N   1      34.958  19.002   8.351  0.00  0.00    -0.631 OA
BRANCH  40  42
HETATM   42  O   UNK N   1      33.221  17.804   9.228  0.00  0.00    -0.307 OA
HETATM   43  H   UNK N   1      32.662  18.150   9.941  0.00  0.00     0.222 HD
ENDBRANCH  40  42
BRANCH  40  44
HETATM   44  O   UNK N   1      32.890  17.745   6.969  0.00  0.00    -0.294 OA
BRANCH  44  45
HETATM   45  C   UNK N   1      33.298  17.490   5.670  0.00  0.00     0.215 C 
BRANCH  45  46
HETATM   46  C   UNK N   1      32.132  17.018   4.834  0.00  0.00     0.180 C 
HETATM   47  C   UNK N   1      32.398  16.062   3.702  0.00  0.00     0.182 C 
HETATM   48  C   UNK N   1      30.945  15.813   3.304  0.00  0.00     0.198 C 
HETATM   49  C   UNK N   1      30.248  15.864   4.700  0.00  0.00     0.262 C 
HETATM   50  O   UNK N   1      31.227  16.295   5.620  0.00  0.00    -0.353 OA
BRANCH  47  51
HETATM   51  O   UNK N   1      33.172  16.606   2.674  0.00  0.00    -0.390 OA
HETATM   52  H   UNK N   1      33.328  16.700   1.721  0.00  0.00     0.210 HD
ENDBRANCH  47  51
BRANCH  48  53
HETATM   53  O   UNK N   1      30.492  16.856   2.487  0.00  0.00    -0.388 OA
HETATM   54  H   UNK N   1      30.463  17.300   1.625  0.00  0.00     0.210 HD
ENDBRANCH  48  53
BRANCH  49  55
HETATM   55  N   UNK N   1      29.126  16.812   4.832  0.00  0.00    -0.297 N 
HETATM   56  C   UNK N   1      28.247  17.076   3.820  0.00  0.00     0.188 A 
HETATM   57  N   UNK N   1      27.342  18.022   4.167  0.00  0.00    -0.346 N 
HETATM   58  C   UNK N   1      27.676  18.346   5.424  0.00  0.00     0.122 A 
ATOM     59  HN  UNK N   1      26.582  18.401   3.602  1.00  0.00     0.167 HD
HETATM   60  C   UNK N   1      27.103  19.279   6.258  0.00  0.00     0.131 A 
HETATM   61  C   UNK N   1      28.741  17.618   5.829  0.00  0.00     0.142 A 
HETATM   62  N   UNK N   1      27.637  19.429   7.506  0.00  0.00    -0.337 N 
HETATM   63  C   UNK N   1      28.715  18.672   7.910  0.00  0.00     0.183 A 
ATOM     64  HN  UNK N   1      27.232  20.111   8.148  1.00  0.00     0.168 HD
HETATM   65  N   UNK N   1      29.285  17.756   7.061  0.00  0.00    -0.336 N 
ATOM     66  HN  UNK N   1      30.089  17.200   7.348  1.00  0.00     0.168 HD
BRANCH  60  67
HETATM   67  N   UNK N   1      26.012  20.066   5.835  0.00  0.00    -0.383 N 
HETATM   68  H   UNK N   1      25.602  19.960   4.946  0.00  0.00     0.157 HD
HETATM   69  H   UNK N   1      25.648  20.744   6.450  0.00  0.00     0.157 HD
ENDBRANCH  60  67
ENDBRANCH  49  55
ENDBRANCH  45  46
ENDBRANCH  44  45
ENDBRANCH  40  44
ENDBRANCH  39  40
ENDBRANCH   2  39
TORSDOF 22
ENDMDL
MODEL 5
REMARK VINA RESULT:      -8.2      9.030     12.276
REMARK  22 active torsions:
REMARK  status: ('A' for Active; 'I' for Inactive)
REMARK    1  A    between atoms: C_14  and  C_5 
REMARK    2  A    between atoms: N_41  and  C_5 
REMARK    3  A    between atoms: C_15  and  C_6 
REMARK    4  A    between atoms: O_54  and  C_6 
REMARK    5  A    between atoms: C_16  and  C_7 
REMARK    6  A    between atoms: O_55  and  C_7 
REMARK    7  A    between atoms: C_19  and  C_14 
REMARK    8  A    between atoms: C_14  and  O_43 
REMARK    9  A    between atoms: C_19  and  C_15 
REMARK   10  A    between atoms: C_15  and  O_44 
REMARK   11  A    between atoms: C_19  and  O_45 
REMARK   12  A    between atoms: C_20  and  O_46 
REMARK   13  A    between atoms: C_21  and  O_47 
REMARK   14  A    between atoms: N_28  and  C_22 
REMARK   15  A    between atoms: O_48  and  C_25 
REMARK   16  A    between atoms: C_26  and  N_42 
REMARK   17  A    between atoms: P_58  and  O_50 
REMARK   18  A    between atoms: P_59  and  O_52 
REMARK   19  A    between atoms: P_58  and  O_54 
REMARK   20  A    between atoms: P_59  and  O_55 
REMARK   21  A    between atoms: P_58  and  O_57 
REMARK   22  A    between atoms: P_59  and  O_57 
ROOT
HETATM    1  O   UNK N   1      33.242  17.152   8.857  0.00  0.00    -0.631 OA
HETATM    2  P   UNK N   1      34.670  17.354   8.298  0.00  0.00     0.401 P 
ENDROOT
BRANCH   2   3
HETATM    3  O   UNK N   1      34.932  19.071   8.341  0.00  0.00    -0.307 OA
HETATM    4  H   UNK N   1      34.395  19.799   8.688  0.00  0.00     0.222 HD
ENDBRANCH   2   3
BRANCH   2   5
HETATM    5  O   UNK N   1      35.691  16.501   9.410  0.00  0.00    -0.294 OA
BRANCH   5   6
HETATM    6  C   UNK N   1      35.154  16.787  10.663  0.00  0.00     0.215 C 
BRANCH   6   7
HETATM    7  C   UNK N   1      34.868  15.538  11.498  0.00  0.00     0.173 C 
BRANCH   7   8
HETATM    8  C   UNK N   1      35.966  14.435  11.656  0.00  0.00     0.179 C 
BRANCH   8   9
HETATM    9  C   UNK N   1      36.224  13.638  12.972  0.00  0.00     0.167 C 
BRANCH   9  10
HETATM   10  C   UNK N   1      35.032  12.900  13.650  0.00  0.00     0.165 C 
BRANCH  10  11
HETATM   11  N   UNK N   1      35.238  11.523  14.179  0.00  0.00    -0.327 N 
HETATM   12  C   UNK N   1      35.287  11.338  15.540  0.00  0.00     0.063 A 
HETATM   13  C   UNK N   1      35.174  12.419  16.421  0.00  0.00     0.039 A 
HETATM   14  C   UNK N   1      35.454  10.044  16.083  0.00  0.00     0.060 A 
HETATM   15  C   UNK N   1      35.265  12.247  17.800  0.00  0.00    -0.054 A 
HETATM   16  C   UNK N   1      35.181  13.447  18.680  0.00  0.00     0.049 C 
HETATM   17  C   UNK N   1      35.453  10.960  18.329  0.00  0.00    -0.054 A 
HETATM   18  C   UNK N   1      35.573  10.740  19.798  0.00  0.00     0.049 C 
HETATM   19  C   UNK N   1      35.536   9.863  17.466  0.00  0.00     0.039 A 
HETATM   20  N   UNK N   1      35.533   8.974  15.259  0.00  0.00    -0.348 N 
HETATM   21  C   UNK N   1      35.454   9.125  13.918  0.00  0.00     0.129 A 
ATOM     22  HN  UNK N   1      35.655   8.042  15.654  1.00  0.00     0.166 HD
HETATM   23  C   UNK N   1      35.300  10.416  13.352  0.00  0.00     0.143 A 
HETATM   24  C   UNK N   1      35.515   8.013  13.073  0.00  0.00     0.175 A 
HETATM   25  N   UNK N   1      35.201  10.530  12.002  0.00  0.00    -0.292 N 
HETATM   26  C   UNK N   1      35.273   9.426  11.185  0.00  0.00     0.327 A 
ATOM     27  HN  UNK N   1      35.072  11.453  11.586  1.00  0.00     0.172 HD
HETATM   28  N   UNK N   1      35.429   8.178  11.732  0.00  0.00    -0.287 N 
HETATM   29  O   UNK N   1      35.202   9.555   9.979  0.00  0.00    -0.247 OA
ATOM     30  HN  UNK N   1      35.481   7.364  11.119  1.00  0.00     0.172 HD
BRANCH  24  31
HETATM   31  O   UNK N   1      35.660   6.777  13.586  0.00  0.00    -0.344 OA
HETATM   32  H   UNK N   1      34.945   6.193  13.754  0.00  0.00     0.219 HD
ENDBRANCH  24  31
ENDBRANCH  10  11
ENDBRANCH   9  10
BRANCH   9  33
HETATM   33  O   UNK N   1      36.799  14.518  13.892  0.00  0.00    -0.391 OA
HETATM   34  H   UNK N   1      36.570  14.536  14.834  0.00  0.00     0.210 HD
ENDBRANCH   9  33
ENDBRANCH   8   9
BRANCH   8  35
HETATM   35  O   UNK N   1      35.762  13.504  10.629  0.00  0.00    -0.390 OA
HETATM   36  H   UNK N   1      36.069  12.585  10.598  0.00  0.00     0.210 HD
ENDBRANCH   8  35
ENDBRANCH   7   8
BRANCH   7  37
HETATM   37  O   UNK N   1      33.632  15.023  11.150  0.00  0.00    -0.391 OA
HETATM   38  H   UNK N   1      33.258  14.156  11.376  0.00  0.00     0.210 HD
ENDBRANCH   7  37
ENDBRANCH   6   7
ENDBRANCH   5   6
ENDBRANCH   2   5
BRANCH   2  39
HETATM   39  O   UNK N   1      34.650  16.605   6.716  0.00  0.00    -0.195 OA
BRANCH  39  40
HETATM   40  P   UNK N   1      34.193  14.937   6.878  0.00  0.00     0.401 P 
HETATM   41  O   UNK N   1      35.264  14.014   7.518  0.00  0.00    -0.631 OA
BRANCH  40  42
HETATM   42  O   UNK N   1      35.000  14.725   5.363  0.00  0.00    -0.307 OA
HETATM   43  H   UNK N   1      35.653  14.527   4.674  0.00  0.00     0.222 HD
ENDBRANCH  40  42
BRANCH  40  44
HETATM   44  O   UNK N   1      32.899  14.152   6.050  0.00  0.00    -0.294 OA
BRANCH  44  45
HETATM   45  C   UNK N   1      31.748  14.649   6.639  0.00  0.00     0.215 C 
BRANCH  45  46
HETATM   46  C   UNK N   1      31.070  15.637   5.720  0.00  0.00     0.180 C 
HETATM   47  C   UNK N   1      31.522  15.714   4.286  0.00  0.00     0.182 C 
HETATM   48  C   UNK N   1      30.473  16.710   3.798  0.00  0.00     0.198 C 
HETATM   49  C   UNK N   1      29.240  16.276   4.651  0.00  0.00     0.262 C 
HETATM   50  O   UNK N   1      29.712  15.325   5.581  0.00  0.00    -0.353 OA
BRANCH  47  51
HETATM   51  O   UNK N   1      32.835  16.168   4.131  0.00  0.00    -0.390 OA
HETATM   52  H   UNK N   1      33.522  16.804   4.382  0.00  0.00     0.210 HD
ENDBRANCH  47  51
BRANCH  48  53
HETATM   53  O   UNK N   1      30.867  18.014   4.127  0.00  0.00    -0.388 OA
HETATM   54  H   UNK N   1      31.274  18.859   3.880  0.00  0.00     0.210 HD
ENDBRANCH  48  53
BRANCH  49  55
HETATM   55  N   UNK N   1      28.596  17.336   5.449  0.00  0.00    -0.297 N 
HETATM   56  C   UNK N   1      28.477  17.279   6.808  0.00  0.00     0.188 A 
HETATM   57  N   UNK N   1      27.798  18.342   7.303  0.00  0.00    -0.346 N 
HETATM   58  C   UNK N   1      27.493  19.067   6.219  0.00  0.00     0.122 A 
ATOM     59  HN  UNK N   1      27.572  18.543   8.278  1.00  0.00     0.167 HD
HETATM   60  C   UNK N   1      26.783  20.243   6.136  0.00  0.00     0.131 A 
HETATM   61  C   UNK N   1      27.976  18.471   5.105  0.00  0.00     0.142 A 
HETATM   62  N   UNK N   1      26.598  20.789   4.898  0.00  0.00    -0.337 N 
HETATM   63  C   UNK N   1      27.105  20.177   3.773  0.00  0.00     0.183 A 
ATOM     64  HN  UNK N   1      26.078  21.661   4.805  1.00  0.00     0.168 HD
HETATM   65  N   UNK N   1      27.799  18.996   3.870  0.00  0.00    -0.336 N 
ATOM     66  HN  UNK N   1      28.168  18.531   3.041  1.00  0.00     0.168 HD
BRANCH  60  67
HETATM   67  N   UNK N   1      26.249  20.857   7.288  0.00  0.00    -0.383 N 
HETATM   68  H   UNK N   1      26.709  20.832   8.158  0.00  0.00     0.157 HD
HETATM   69  H   UNK N   1      25.386  21.327   7.219  0.00  0.00     0.157 HD
ENDBRANCH  60  67
ENDBRANCH  49  55
ENDBRANCH  45  46
ENDBRANCH  44  45
ENDBRANCH  40  44
ENDBRANCH  39  40
ENDBRANCH   2  39
TORSDOF 22
ENDMDL
MODEL 6
REMARK VINA RESULT:      -8.2      9.741     13.153
REMARK  22 active torsions:
REMARK  status: ('A' for Active; 'I' for Inactive)
REMARK    1  A    between atoms: C_14  and  C_5 
REMARK    2  A    between atoms: N_41  and  C_5 
REMARK    3  A    between atoms: C_15  and  C_6 
REMARK    4  A    between atoms: O_54  and  C_6 
REMARK    5  A    between atoms: C_16  and  C_7 
REMARK    6  A    between atoms: O_55  and  C_7 
REMARK    7  A    between atoms: C_19  and  C_14 
REMARK    8  A    between atoms: C_14  and  O_43 
REMARK    9  A    between atoms: C_19  and  C_15 
REMARK   10  A    between atoms: C_15  and  O_44 
REMARK   11  A    between atoms: C_19  and  O_45 
REMARK   12  A    between atoms: C_20  and  O_46 
REMARK   13  A    between atoms: C_21  and  O_47 
REMARK   14  A    between atoms: N_28  and  C_22 
REMARK   15  A    between atoms: O_48  and  C_25 
REMARK   16  A    between atoms: C_26  and  N_42 
REMARK   17  A    between atoms: P_58  and  O_50 
REMARK   18  A    between atoms: P_59  and  O_52 
REMARK   19  A    between atoms: P_58  and  O_54 
REMARK   20  A    between atoms: P_59  and  O_55 
REMARK   21  A    between atoms: P_58  and  O_57 
REMARK   22  A    between atoms: P_59  and  O_57 
ROOT
HETATM    1  O   UNK N   1      34.492  14.117   7.501  0.00  0.00    -0.631 OA
HETATM    2  P   UNK N   1      34.019  14.949   8.716  0.00  0.00     0.401 P 
ENDROOT
BRANCH   2   3
HETATM    3  O   UNK N   1      32.352  15.313   8.390  0.00  0.00    -0.307 OA
HETATM    4  H   UNK N   1      31.612  14.758   8.102  0.00  0.00     0.222 HD
ENDBRANCH   2   3
BRANCH   2   5
HETATM    5  O   UNK N   1      34.212  13.881  10.068  0.00  0.00    -0.294 OA
BRANCH   5   6
HETATM    6  C   UNK N   1      34.456  14.728  11.147  0.00  0.00     0.215 C 
BRANCH   6   7
HETATM    7  C   UNK N   1      35.816  14.491  11.805  0.00  0.00     0.173 C 
BRANCH   7   8
HETATM    8  C   UNK N   1      35.911  14.292  13.354  0.00  0.00     0.179 C 
BRANCH   8   9
HETATM    9  C   UNK N   1      36.151  12.914  14.046  0.00  0.00     0.167 C 
BRANCH   9  10
HETATM   10  C   UNK N   1      34.950  12.200  14.733  0.00  0.00     0.165 C 
BRANCH  10  11
HETATM   11  N   UNK N   1      35.192  11.396  15.963  0.00  0.00    -0.327 N 
HETATM   12  C   UNK N   1      35.434  10.049  15.835  0.00  0.00     0.063 A 
HETATM   13  C   UNK N   1      35.430   9.429  14.582  0.00  0.00     0.039 A 
HETATM   14  C   UNK N   1      35.695   9.255  16.976  0.00  0.00     0.060 A 
HETATM   15  C   UNK N   1      35.632   8.057  14.447  0.00  0.00    -0.054 A 
HETATM   16  C   UNK N   1      35.569   7.454  13.085  0.00  0.00     0.049 C 
HETATM   17  C   UNK N   1      35.868   7.274  15.587  0.00  0.00    -0.054 A 
HETATM   18  C   UNK N   1      36.071   5.801  15.482  0.00  0.00     0.049 C 
HETATM   19  C   UNK N   1      35.910   7.880  16.846  0.00  0.00     0.039 A 
HETATM   20  N   UNK N   1      35.740   9.830  18.199  0.00  0.00    -0.348 N 
HETATM   21  C   UNK N   1      35.538  11.159  18.348  0.00  0.00     0.129 A 
ATOM     22  HN  UNK N   1      35.926   9.255  19.020  1.00  0.00     0.166 HD
HETATM   23  C   UNK N   1      35.262  11.971  17.219  0.00  0.00     0.143 A 
HETATM   24  C   UNK N   1      35.607  11.750  19.614  0.00  0.00     0.175 A 
HETATM   25  N   UNK N   1      35.087  13.306  17.401  0.00  0.00    -0.292 N 
HETATM   26  C   UNK N   1      35.148  13.869  18.654  0.00  0.00     0.327 A 
ATOM     27  HN  UNK N   1      34.906  13.901  16.593  1.00  0.00     0.172 HD
HETATM   28  N   UNK N   1      35.408  13.083  19.747  0.00  0.00    -0.287 N 
HETATM   29  O   UNK N   1      34.968  15.062  18.795  0.00  0.00    -0.247 OA
ATOM     30  HN  UNK N   1      35.453  13.509  20.673  1.00  0.00     0.172 HD
BRANCH  24  31
HETATM   31  O   UNK N   1      35.869  11.001  20.700  0.00  0.00    -0.344 OA
HETATM   32  H   UNK N   1      36.189  10.121  20.664  0.00  0.00     0.219 HD
ENDBRANCH  24  31
ENDBRANCH  10  11
ENDBRANCH   9  10
BRANCH   9  33
HETATM   33  O   UNK N   1      37.177  13.084  14.978  0.00  0.00    -0.391 OA
HETATM   34  H   UNK N   1      37.745  12.361  15.288  0.00  0.00     0.210 HD
ENDBRANCH   9  33
ENDBRANCH   8   9
BRANCH   8  35
HETATM   35  O   UNK N   1      36.888  15.179  13.823  0.00  0.00    -0.390 OA
HETATM   36  H   UNK N   1      37.238  15.962  13.372  0.00  0.00     0.210 HD
ENDBRANCH   8  35
ENDBRANCH   7   8
BRANCH   7  37
HETATM   37  O   UNK N   1      36.729  15.414  11.324  0.00  0.00    -0.391 OA
HETATM   38  H   UNK N   1      37.618  15.610  11.660  0.00  0.00     0.210 HD
ENDBRANCH   7  37
ENDBRANCH   6   7
ENDBRANCH   5   6
ENDBRANCH   2   5
BRANCH   2  39
HETATM   39  O   UNK N   1      35.116  16.310   8.791  0.00  0.00    -0.195 OA
BRANCH  39  40
HETATM   40  P   UNK N   1      34.418  17.656   7.944  0.00  0.00     0.401 P 
HETATM   41  O   UNK N   1      34.955  19.053   8.355  0.00  0.00    -0.631 OA
BRANCH  40  42
HETATM   42  O   UNK N   1      33.330  17.744   9.285  0.00  0.00    -0.307 OA
HETATM   43  H   UNK N   1      32.767  18.056  10.011  0.00  0.00     0.222 HD
ENDBRANCH  40  42
BRANCH  40  44
HETATM   44  O   UNK N   1      32.951  17.635   7.036  0.00  0.00    -0.294 OA
BRANCH  44  45
HETATM   45  C   UNK N   1      33.349  17.453   5.722  0.00  0.00     0.215 C 
BRANCH  45  46
HETATM   46  C   UNK N   1      32.181  17.009   4.874  0.00  0.00     0.180 C 
HETATM   47  C   UNK N   1      32.436  16.052   3.740  0.00  0.00     0.182 C 
HETATM   48  C   UNK N   1      30.983  15.836   3.328  0.00  0.00     0.198 C 
HETATM   49  C   UNK N   1      30.273  15.897   4.717  0.00  0.00     0.262 C 
HETATM   50  O   UNK N   1      31.254  16.302   5.648  0.00  0.00    -0.353 OA
BRANCH  47  51
HETATM   51  O   UNK N   1      33.231  16.583   2.721  0.00  0.00    -0.390 OA
HETATM   52  H   UNK N   1      33.520  17.363   2.222  0.00  0.00     0.210 HD
ENDBRANCH  47  51
BRANCH  48  53
HETATM   53  O   UNK N   1      30.559  16.892   2.511  0.00  0.00    -0.388 OA
HETATM   54  H   UNK N   1      30.033  17.697   2.378  0.00  0.00     0.210 HD
ENDBRANCH  48  53
BRANCH  49  55
HETATM   55  N   UNK N   1      29.171  16.868   4.843  0.00  0.00    -0.297 N 
HETATM   56  C   UNK N   1      28.349  17.204   3.805  0.00  0.00     0.188 A 
HETATM   57  N   UNK N   1      27.453  18.158   4.156  0.00  0.00    -0.346 N 
HETATM   58  C   UNK N   1      27.733  18.411   5.441  0.00  0.00     0.122 A 
ATOM     59  HN  UNK N   1      26.731  18.584   3.575  1.00  0.00     0.167 HD
HETATM   60  C   UNK N   1      27.145  19.317   6.293  0.00  0.00     0.131 A 
HETATM   61  C   UNK N   1      28.758  17.634   5.860  0.00  0.00     0.142 A 
HETATM   62  N   UNK N   1      27.621  19.392   7.571  0.00  0.00    -0.337 N 
HETATM   63  C   UNK N   1      28.658  18.587   7.987  0.00  0.00     0.183 A 
ATOM     64  HN  UNK N   1      27.203  20.053   8.226  1.00  0.00     0.168 HD
HETATM   65  N   UNK N   1      29.246  17.698   7.121  0.00  0.00    -0.336 N 
ATOM     66  HN  UNK N   1      30.021  17.106   7.418  1.00  0.00     0.168 HD
BRANCH  60  67
HETATM   67  N   UNK N   1      26.096  20.154   5.858  0.00  0.00    -0.383 N 
HETATM   68  H   UNK N   1      26.120  20.619   4.991  0.00  0.00     0.157 HD
HETATM   69  H   UNK N   1      25.313  20.277   6.443  0.00  0.00     0.157 HD
ENDBRANCH  60  67
ENDBRANCH  49  55
ENDBRANCH  45  46
ENDBRANCH  44  45
ENDBRANCH  40  44
ENDBRANCH  39  40
ENDBRANCH   2  39
TORSDOF 22
ENDMDL
MODEL 7
REMARK VINA RESULT:      -8.2      9.212     13.418
REMARK  22 active torsions:
REMARK  status: ('A' for Active; 'I' for Inactive)
REMARK    1  A    between atoms: C_14  and  C_5 
REMARK    2  A    between atoms: N_41  and  C_5 
REMARK    3  A    between atoms: C_15  and  C_6 
REMARK    4  A    between atoms: O_54  and  C_6 
REMARK    5  A    between atoms: C_16  and  C_7 
REMARK    6  A    between atoms: O_55  and  C_7 
REMARK    7  A    between atoms: C_19  and  C_14 
REMARK    8  A    between atoms: C_14  and  O_43 
REMARK    9  A    between atoms: C_19  and  C_15 
REMARK   10  A    between atoms: C_15  and  O_44 
REMARK   11  A    between atoms: C_19  and  O_45 
REMARK   12  A    between atoms: C_20  and  O_46 
REMARK   13  A    between atoms: C_21  and  O_47 
REMARK   14  A    between atoms: N_28  and  C_22 
REMARK   15  A    between atoms: O_48  and  C_25 
REMARK   16  A    between atoms: C_26  and  N_42 
REMARK   17  A    between atoms: P_58  and  O_50 
REMARK   18  A    between atoms: P_59  and  O_52 
REMARK   19  A    between atoms: P_58  and  O_54 
REMARK   20  A    between atoms: P_59  and  O_55 
REMARK   21  A    between atoms: P_58  and  O_57 
REMARK   22  A    between atoms: P_59  and  O_57 
ROOT
HETATM    1  O   UNK N   1      31.753   6.880   7.926  0.00  0.00    -0.631 OA
HETATM    2  P   UNK N   1      32.229   8.288   8.352  0.00  0.00     0.401 P 
ENDROOT
BRANCH   2   3
HETATM    3  O   UNK N   1      30.827   9.302   8.203  0.00  0.00    -0.307 OA
HETATM    4  H   UNK N   1      30.470  10.001   8.771  0.00  0.00     0.222 HD
ENDBRANCH   2   3
BRANCH   2   5
HETATM    5  O   UNK N   1      32.731   8.090  10.000  0.00  0.00    -0.294 OA
BRANCH   5   6
HETATM    6  C   UNK N   1      33.390   6.863  10.017  0.00  0.00     0.215 C 
BRANCH   6   7
HETATM    7  C   UNK N   1      34.904   6.991  10.192  0.00  0.00     0.173 C 
BRANCH   7   8
HETATM    8  C   UNK N   1      35.487   7.965  11.269  0.00  0.00     0.179 C 
BRANCH   8   9
HETATM    9  C   UNK N   1      35.858   9.455  10.993  0.00  0.00     0.167 C 
BRANCH   9  10
HETATM   10  C   UNK N   1      36.859  10.169  11.948  0.00  0.00     0.165 C 
BRANCH  10  11
HETATM   11  N   UNK N   1      36.690  11.623  12.220  0.00  0.00    -0.327 N 
HETATM   12  C   UNK N   1      36.401  12.026  13.502  0.00  0.00     0.063 A 
HETATM   13  C   UNK N   1      36.241  11.096  14.534  0.00  0.00     0.039 A 
HETATM   14  C   UNK N   1      36.260  13.399  13.808  0.00  0.00     0.060 A 
HETATM   15  C   UNK N   1      35.906  11.493  15.827  0.00  0.00    -0.054 A 
HETATM   16  C   UNK N   1      35.706  10.446  16.869  0.00  0.00     0.049 C 
HETATM   17  C   UNK N   1      35.746  12.857  16.116  0.00  0.00    -0.054 A 
HETATM   18  C   UNK N   1      35.372  13.317  17.483  0.00  0.00     0.049 C 
HETATM   19  C   UNK N   1      35.935  13.805  15.106  0.00  0.00     0.039 A 
HETATM   20  N   UNK N   1      36.442  14.326  12.840  0.00  0.00    -0.348 N 
HETATM   21  C   UNK N   1      36.759  13.957  11.578  0.00  0.00     0.129 A 
ATOM     22  HN  UNK N   1      36.337  15.316  13.063  1.00  0.00     0.166 HD
HETATM   23  C   UNK N   1      36.892  12.585  11.247  0.00  0.00     0.143 A 
HETATM   24  C   UNK N   1      36.967  14.922  10.587  0.00  0.00     0.175 A 
HETATM   25  N   UNK N   1      37.235  12.250   9.976  0.00  0.00    -0.292 N 
HETATM   26  C   UNK N   1      37.425  13.211   9.012  0.00  0.00     0.327 A 
ATOM     27  HN  UNK N   1      37.351  11.266   9.733  1.00  0.00     0.172 HD
HETATM   28  N   UNK N   1      37.290  14.538   9.330  0.00  0.00    -0.287 N 
HETATM   29  O   UNK N   1      37.711  12.887   7.876  0.00  0.00    -0.247 OA
ATOM     30  HN  UNK N   1      37.433  15.245   8.609  1.00  0.00     0.172 HD
BRANCH  24  31
HETATM   31  O   UNK N   1      36.847  16.230  10.877  0.00  0.00    -0.344 OA
HETATM   32  H   UNK N   1      36.280  16.819  10.416  0.00  0.00     0.219 HD
ENDBRANCH  24  31
ENDBRANCH  10  11
ENDBRANCH   9  10
BRANCH   9  33
HETATM   33  O   UNK N   1      34.668  10.184  10.947  0.00  0.00    -0.391 OA
HETATM   34  H   UNK N   1      34.198  10.395  10.126  0.00  0.00     0.210 HD
ENDBRANCH   9  33
ENDBRANCH   8   9
BRANCH   8  35
HETATM   35  O   UNK N   1      34.611   7.940  12.361  0.00  0.00    -0.390 OA
HETATM   36  H   UNK N   1      33.864   8.534  12.531  0.00  0.00     0.210 HD
ENDBRANCH   8  35
ENDBRANCH   7   8
BRANCH   7  37
HETATM   37  O   UNK N   1      35.500   7.140   8.952  0.00  0.00    -0.391 OA
HETATM   38  H   UNK N   1      36.158   7.799   8.678  0.00  0.00     0.210 HD
ENDBRANCH   7  37
ENDBRANCH   6   7
ENDBRANCH   5   6
ENDBRANCH   2   5
BRANCH   2  39
HETATM   39  O   UNK N   1      33.575   8.653   7.295  0.00  0.00    -0.195 OA
BRANCH  39  40
HETATM   40  P   UNK N   1      33.851  10.369   7.292  0.00  0.00     0.401 P 
HETATM   41  O   UNK N   1      35.123  10.839   8.045  0.00  0.00    -0.631 OA
BRANCH  40  42
HETATM   42  O   UNK N   1      33.028  10.352   8.813  0.00  0.00    -0.307 OA
HETATM   43  H   UNK N   1      32.373  10.458   9.520  0.00  0.00     0.222 HD
ENDBRANCH  40  42
BRANCH  40  44
HETATM   44  O   UNK N   1      32.685  11.586   6.921  0.00  0.00    -0.294 OA
BRANCH  44  45
HETATM   45  C   UNK N   1      33.430  12.723   6.656  0.00  0.00     0.215 C 
BRANCH  45  46
HETATM   46  C   UNK N   1      33.013  13.851   7.567  0.00  0.00     0.180 C 
HETATM   47  C   UNK N   1      33.742  14.030   8.873  0.00  0.00     0.182 C 
HETATM   48  C   UNK N   1      33.057  15.323   9.310  0.00  0.00     0.198 C 
HETATM   49  C   UNK N   1      32.862  16.030   7.932  0.00  0.00     0.262 C 
HETATM   50  O   UNK N   1      33.223  15.087   6.945  0.00  0.00    -0.353 OA
BRANCH  47  51
HETATM   51  O   UNK N   1      33.561  12.974   9.770  0.00  0.00    -0.390 OA
HETATM   52  H   UNK N   1      33.198  12.092   9.942  0.00  0.00     0.210 HD
ENDBRANCH  47  51
BRANCH  48  53
HETATM   53  O   UNK N   1      31.818  15.029   9.894  0.00  0.00    -0.388 OA
HETATM   54  H   UNK N   1      30.910  14.696   9.822  0.00  0.00     0.210 HD
ENDBRANCH  48  53
BRANCH  49  55
HETATM   55  N   UNK N   1      31.486  16.450   7.605  0.00  0.00    -0.297 N 
HETATM   56  C   UNK N   1      30.853  16.096   6.448  0.00  0.00     0.188 A 
HETATM   57  N   UNK N   1      29.621  16.651   6.354  0.00  0.00    -0.346 N 
HETATM   58  C   UNK N   1      29.497  17.362   7.482  0.00  0.00     0.122 A 
ATOM     59  HN  UNK N   1      28.943  16.551   5.598  1.00  0.00     0.167 HD
HETATM   60  C   UNK N   1      28.449  18.152   7.898  0.00  0.00     0.131 A 
HETATM   61  C   UNK N   1      30.611  17.239   8.239  0.00  0.00     0.142 A 
HETATM   62  N   UNK N   1      28.569  18.788   9.100  0.00  0.00    -0.337 N 
HETATM   63  C   UNK N   1      29.705  18.644   9.866  0.00  0.00     0.183 A 
ATOM     64  HN  UNK N   1      27.807  19.377   9.436  1.00  0.00     0.168 HD
HETATM   65  N   UNK N   1      30.749  17.865   9.432  0.00  0.00    -0.336 N 
ATOM     66  HN  UNK N   1      31.597  17.762   9.987  1.00  0.00     0.168 HD
BRANCH  60  67
HETATM   67  N   UNK N   1      27.296  18.313   7.102  0.00  0.00    -0.383 N 
HETATM   68  H   UNK N   1      27.186  19.071   6.484  0.00  0.00     0.157 HD
HETATM   69  H   UNK N   1      26.577  17.643   7.167  0.00  0.00     0.157 HD
ENDBRANCH  60  67
ENDBRANCH  49  55
ENDBRANCH  45  46
ENDBRANCH  44  45
ENDBRANCH  40  44
ENDBRANCH  39  40
ENDBRANCH   2  39
TORSDOF 22
ENDMDL
MODEL 8
REMARK VINA RESULT:      -8.2      2.504      6.922
REMARK  22 active torsions:
REMARK  status: ('A' for Active; 'I' for Inactive)
REMARK    1  A    between atoms: C_14  and  C_5 
REMARK    2  A    between atoms: N_41  and  C_5 
REMARK    3  A    between atoms: C_15  and  C_6 
REMARK    4  A    between atoms: O_54  and  C_6 
REMARK    5  A    between atoms: C_16  and  C_7 
REMARK    6  A    between atoms: O_55  and  C_7 
REMARK    7  A    between atoms: C_19  and  C_14 
REMARK    8  A    between atoms: C_14  and  O_43 
REMARK    9  A    between atoms: C_19  and  C_15 
REMARK   10  A    between atoms: C_15  and  O_44 
REMARK   11  A    between atoms: C_19  and  O_45 
REMARK   12  A    between atoms: C_20  and  O_46 
REMARK   13  A    between atoms: C_21  and  O_47 
REMARK   14  A    between atoms: N_28  and  C_22 
REMARK   15  A    between atoms: O_48  and  C_25 
REMARK   16  A    between atoms: C_26  and  N_42 
REMARK   17  A    between atoms: P_58  and  O_50 
REMARK   18  A    between atoms: P_59  and  O_52 
REMARK   19  A    between atoms: P_58  and  O_54 
REMARK   20  A    between atoms: P_59  and  O_55 
REMARK   21  A    between atoms: P_58  and  O_57 
REMARK   22  A    between atoms: P_59  and  O_57 
ROOT
HETATM    1  O   UNK N   1      21.071  18.759   6.924  0.00  0.00    -0.631 OA
HETATM    2  P   UNK N   1      21.209  17.417   6.169  0.00  0.00     0.401 P 
ENDROOT
BRANCH   2   3
HETATM    3  O   UNK N   1      22.894  17.009   6.281  0.00  0.00    -0.307 OA
HETATM    4  H   UNK N   1      23.491  16.927   7.039  0.00  0.00     0.222 HD
ENDBRANCH   2   3
BRANCH   2   5
HETATM    5  O   UNK N   1      20.203  16.319   7.056  0.00  0.00    -0.294 OA
BRANCH   5   6
HETATM    6  C   UNK N   1      20.998  15.904   8.122  0.00  0.00     0.215 C 
BRANCH   6   7
HETATM    7  C   UNK N   1      20.911  14.401   8.392  0.00  0.00     0.173 C 
BRANCH   7   8
HETATM    8  C   UNK N   1      22.211  13.531   8.398  0.00  0.00     0.179 C 
BRANCH   8   9
HETATM    9  C   UNK N   1      23.318  13.604   7.301  0.00  0.00     0.167 C 
BRANCH   9  10
HETATM   10  C   UNK N   1      23.083  12.873   5.947  0.00  0.00     0.165 C 
BRANCH  10  11
HETATM   11  N   UNK N   1      23.026  13.672   4.692  0.00  0.00    -0.327 N 
HETATM   12  C   UNK N   1      24.188  13.882   3.988  0.00  0.00     0.063 A 
HETATM   13  C   UNK N   1      25.411  13.381   4.445  0.00  0.00     0.039 A 
HETATM   14  C   UNK N   1      24.172  14.611   2.777  0.00  0.00     0.060 A 
HETATM   15  C   UNK N   1      26.600  13.624   3.761  0.00  0.00    -0.054 A 
HETATM   16  C   UNK N   1      27.874  13.099   4.329  0.00  0.00     0.049 C 
HETATM   17  C   UNK N   1      26.577  14.369   2.572  0.00  0.00    -0.054 A 
HETATM   18  C   UNK N   1      27.831  14.663   1.823  0.00  0.00     0.049 C 
HETATM   19  C   UNK N   1      25.360  14.850   2.080  0.00  0.00     0.039 A 
HETATM   20  N   UNK N   1      23.001  15.080   2.290  0.00  0.00    -0.348 N 
HETATM   21  C   UNK N   1      21.839  14.859   2.946  0.00  0.00     0.129 A 
ATOM     22  HN  UNK N   1      22.993  15.608   1.418  1.00  0.00     0.166 HD
HETATM   23  C   UNK N   1      21.835  14.141   4.169  0.00  0.00     0.143 A 
HETATM   24  C   UNK N   1      20.629  15.329   2.426  0.00  0.00     0.175 A 
HETATM   25  N   UNK N   1      20.647  13.917   4.790  0.00  0.00    -0.292 N 
HETATM   26  C   UNK N   1      19.468  14.394   4.269  0.00  0.00     0.327 A 
ATOM     27  HN  UNK N   1      20.632  13.385   5.660  1.00  0.00     0.172 HD
HETATM   28  N   UNK N   1      19.473  15.095   3.090  0.00  0.00    -0.287 N 
HETATM   29  O   UNK N   1      18.421  14.199   4.853  0.00  0.00    -0.247 OA
ATOM     30  HN  UNK N   1      18.594  15.446   2.710  1.00  0.00     0.172 HD
BRANCH  24  31
HETATM   31  O   UNK N   1      20.607  16.012   1.267  0.00  0.00    -0.344 OA
HETATM   32  H   UNK N   1      20.827  16.921   1.190  0.00  0.00     0.219 HD
ENDBRANCH  24  31
ENDBRANCH  10  11
ENDBRANCH   9  10
BRANCH   9  33
HETATM   33  O   UNK N   1      24.506  13.142   7.870  0.00  0.00    -0.391 OA
HETATM   34  H   UNK N   1      25.355  13.606   7.794  0.00  0.00     0.210 HD
ENDBRANCH   9  33
ENDBRANCH   8   9
BRANCH   8  35
HETATM   35  O   UNK N   1      22.829  13.725   9.640  0.00  0.00    -0.390 OA
HETATM   36  H   UNK N   1      23.569  14.317   9.843  0.00  0.00     0.210 HD
ENDBRANCH   8  35
ENDBRANCH   7   8
BRANCH   7  37
HETATM   37  O   UNK N   1      19.899  13.852   7.624  0.00  0.00    -0.391 OA
HETATM   38  H   UNK N   1      19.848  12.958   7.249  0.00  0.00     0.210 HD
ENDBRANCH   7  37
ENDBRANCH   6   7
ENDBRANCH   5   6
ENDBRANCH   2   5
BRANCH   2  39
HETATM   39  O   UNK N   1      20.585  17.730   4.564  0.00  0.00    -0.195 OA
BRANCH  39  40
HETATM   40  P   UNK N   1      21.250  19.222   3.973  0.00  0.00     0.401 P 
HETATM   41  O   UNK N   1      20.297  20.445   4.033  0.00  0.00    -0.631 OA
BRANCH  40  42
HETATM   42  O   UNK N   1      20.503  18.788   2.475  0.00  0.00    -0.307 OA
HETATM   43  H   UNK N   1      20.308  18.400   1.608  0.00  0.00     0.222 HD
ENDBRANCH  40  42
BRANCH  40  44
HETATM   44  O   UNK N   1      22.649  19.388   2.975  0.00  0.00    -0.294 OA
BRANCH  44  45
HETATM   45  C   UNK N   1      23.519  18.406   3.419  0.00  0.00     0.215 C 
BRANCH  45  46
HETATM   46  C   UNK N   1      24.846  19.013   3.807  0.00  0.00     0.180 C 
HETATM   47  C   UNK N   1      25.046  20.492   3.610  0.00  0.00     0.182 C 
HETATM   48  C   UNK N   1      26.424  20.596   4.260  0.00  0.00     0.198 C 
HETATM   49  C   UNK N   1      26.289  19.540   5.401  0.00  0.00     0.262 C 
HETATM   50  O   UNK N   1      25.066  18.869   5.182  0.00  0.00    -0.353 OA
BRANCH  47  51
HETATM   51  O   UNK N   1      25.030  20.891   2.271  0.00  0.00    -0.390 OA
HETATM   52  H   UNK N   1      25.460  20.877   1.402  0.00  0.00     0.210 HD
ENDBRANCH  47  51
BRANCH  48  53
HETATM   53  O   UNK N   1      27.410  20.210   3.344  0.00  0.00    -0.388 OA
HETATM   54  H   UNK N   1      27.953  20.395   2.560  0.00  0.00     0.210 HD
ENDBRANCH  48  53
BRANCH  49  55
HETATM   55  N   UNK N   1      27.323  18.489   5.441  0.00  0.00    -0.297 N 
HETATM   56  C   UNK N   1      27.459  17.537   4.471  0.00  0.00     0.188 A 
HETATM   57  N   UNK N   1      28.442  16.653   4.763  0.00  0.00    -0.346 N 
HETATM   58  C   UNK N   1      28.921  17.074   5.940  0.00  0.00     0.122 A 
ATOM     59  HN  UNK N   1      28.748  15.850   4.211  1.00  0.00     0.167 HD
HETATM   60  C   UNK N   1      29.918  16.527   6.715  0.00  0.00     0.131 A 
HETATM   61  C   UNK N   1      28.257  18.180   6.348  0.00  0.00     0.142 A 
HETATM   62  N   UNK N   1      30.221  17.147   7.894  0.00  0.00    -0.337 N 
HETATM   63  C   UNK N   1      29.545  18.280   8.291  0.00  0.00     0.183 A 
ATOM     64  HN  UNK N   1      30.958  16.767   8.488  1.00  0.00     0.168 HD
HETATM   65  N   UNK N   1      28.541  18.805   7.515  0.00  0.00    -0.336 N 
ATOM     66  HN  UNK N   1      28.029  19.636   7.807  1.00  0.00     0.168 HD
BRANCH  60  67
HETATM   67  N   UNK N   1      30.596  15.357   6.315  0.00  0.00    -0.383 N 
HETATM   68  H   UNK N   1      31.332  15.373   5.663  0.00  0.00     0.157 HD
HETATM   69  H   UNK N   1      30.322  14.494   6.702  0.00  0.00     0.157 HD
ENDBRANCH  60  67
ENDBRANCH  49  55
ENDBRANCH  45  46
ENDBRANCH  44  45
ENDBRANCH  40  44
ENDBRANCH  39  40
ENDBRANCH   2  39
TORSDOF 22
ENDMDL
MODEL 9
REMARK VINA RESULT:      -8.1      7.230     10.531
REMARK  22 active torsions:
REMARK  status: ('A' for Active; 'I' for Inactive)
REMARK    1  A    between atoms: C_14  and  C_5 
REMARK    2  A    between atoms: N_41  and  C_5 
REMARK    3  A    between atoms: C_15  and  C_6 
REMARK    4  A    between atoms: O_54  and  C_6 
REMARK    5  A    between atoms: C_16  and  C_7 
REMARK    6  A    between atoms: O_55  and  C_7 
REMARK    7  A    between atoms: C_19  and  C_14 
REMARK    8  A    between atoms: C_14  and  O_43 
REMARK    9  A    between atoms: C_19  and  C_15 
REMARK   10  A    between atoms: C_15  and  O_44 
REMARK   11  A    between atoms: C_19  and  O_45 
REMARK   12  A    between atoms: C_20  and  O_46 
REMARK   13  A    between atoms: C_21  and  O_47 
REMARK   14  A    between atoms: N_28  and  C_22 
REMARK   15  A    between atoms: O_48  and  C_25 
REMARK   16  A    between atoms: C_26  and  N_42 
REMARK   17  A    between atoms: P_58  and  O_50 
REMARK   18  A    between atoms: P_59  and  O_52 
REMARK   19  A    between atoms: P_58  and  O_54 
REMARK   20  A    between atoms: P_59  and  O_55 
REMARK   21  A    between atoms: P_58  and  O_57 
REMARK   22  A    between atoms: P_59  and  O_57 
ROOT
HETATM    1  O   UNK N   1      34.558  17.955   6.996  0.00  0.00    -0.631 OA
HETATM    2  P   UNK N   1      33.954  16.760   6.221  0.00  0.00     0.401 P 
ENDROOT
BRANCH   2   3
HETATM    3  O   UNK N   1      35.320  15.813   5.717  0.00  0.00    -0.307 OA
HETATM    4  H   UNK N   1      36.227  16.060   5.478  0.00  0.00     0.222 HD
ENDBRANCH   2   3
BRANCH   2   5
HETATM    5  O   UNK N   1      32.976  15.939   7.393  0.00  0.00    -0.294 OA
BRANCH   5   6
HETATM    6  C   UNK N   1      33.886  15.205   8.151  0.00  0.00     0.215 C 
BRANCH   6   7
HETATM    7  C   UNK N   1      33.603  15.255   9.653  0.00  0.00     0.173 C 
BRANCH   7   8
HETATM    8  C   UNK N   1      34.768  15.527  10.660  0.00  0.00     0.179 C 
BRANCH   8   9
HETATM    9  C   UNK N   1      36.256  15.128  10.406  0.00  0.00     0.167 C 
BRANCH   9  10
HETATM   10  C   UNK N   1      36.754  13.735  10.892  0.00  0.00     0.165 C 
BRANCH  10  11
HETATM   11  N   UNK N   1      35.959  12.996  11.911  0.00  0.00    -0.327 N 
HETATM   12  C   UNK N   1      35.186  11.934  11.504  0.00  0.00     0.063 A 
HETATM   13  C   UNK N   1      35.119  11.563  10.158  0.00  0.00     0.039 A 
HETATM   14  C   UNK N   1      34.439  11.189  12.444  0.00  0.00     0.060 A 
HETATM   15  C   UNK N   1      34.305  10.516   9.730  0.00  0.00    -0.054 A 
HETATM   16  C   UNK N   1      34.245  10.203   8.274  0.00  0.00     0.049 C 
HETATM   17  C   UNK N   1      33.549   9.797  10.669  0.00  0.00    -0.054 A 
HETATM   18  C   UNK N   1      32.655   8.682  10.246  0.00  0.00     0.049 C 
HETATM   19  C   UNK N   1      33.629  10.130  12.024  0.00  0.00     0.039 A 
HETATM   20  N   UNK N   1      34.509  11.501  13.758  0.00  0.00    -0.348 N 
HETATM   21  C   UNK N   1      35.288  12.519  14.188  0.00  0.00     0.129 A 
ATOM     22  HN  UNK N   1      33.967  10.963  14.434  1.00  0.00     0.166 HD
HETATM   23  C   UNK N   1      36.035  13.288  13.261  0.00  0.00     0.143 A 
HETATM   24  C   UNK N   1      35.372  12.823  15.551  0.00  0.00     0.175 A 
HETATM   25  N   UNK N   1      36.826  14.289  13.729  0.00  0.00    -0.292 N 
HETATM   26  C   UNK N   1      36.889  14.580  15.071  0.00  0.00     0.327 A 
ATOM     27  HN  UNK N   1      37.382  14.836  13.071  1.00  0.00     0.172 HD
HETATM   28  N   UNK N   1      36.161  13.841  15.968  0.00  0.00    -0.287 N 
HETATM   29  O   UNK N   1      37.587  15.493  15.464  0.00  0.00    -0.247 OA
ATOM     30  HN  UNK N   1      36.214  14.063  16.962  1.00  0.00     0.172 HD
BRANCH  24  31
HETATM   31  O   UNK N   1      34.673  12.107  16.451  0.00  0.00    -0.344 OA
HETATM   32  H   UNK N   1      33.777  12.273  16.669  0.00  0.00     0.219 HD
ENDBRANCH  24  31
ENDBRANCH  10  11
ENDBRANCH   9  10
BRANCH   9  33
HETATM   33  O   UNK N   1      37.060  16.123  10.965  0.00  0.00    -0.391 OA
HETATM   34  H   UNK N   1      37.464  16.056  11.845  0.00  0.00     0.210 HD
ENDBRANCH   9  33
ENDBRANCH   8   9
BRANCH   8  35
HETATM   35  O   UNK N   1      34.740  16.894  10.961  0.00  0.00    -0.390 OA
HETATM   36  H   UNK N   1      34.529  17.625  10.361  0.00  0.00     0.210 HD
ENDBRANCH   8  35
ENDBRANCH   7   8
BRANCH   7  37
HETATM   37  O   UNK N   1      32.823  14.169  10.012  0.00  0.00    -0.391 OA
HETATM   38  H   UNK N   1      31.865  14.143  10.166  0.00  0.00     0.210 HD
ENDBRANCH   7  37
ENDBRANCH   6   7
ENDBRANCH   5   6
ENDBRANCH   2   5
BRANCH   2  39
HETATM   39  O   UNK N   1      32.991  17.481   4.950  0.00  0.00    -0.195 OA
BRANCH  39  40
HETATM   40  P   UNK N   1      32.532  16.251   3.812  0.00  0.00     0.401 P 
HETATM   41  O   UNK N   1      33.505  16.051   2.620  0.00  0.00    -0.631 OA
BRANCH  40  42
HETATM   42  O   UNK N   1      31.809  17.550   2.928  0.00  0.00    -0.307 OA
HETATM   43  H   UNK N   1      31.486  18.132   2.223  0.00  0.00     0.222 HD
ENDBRANCH  40  42
BRANCH  40  44
HETATM   44  O   UNK N   1      30.962  15.554   3.646  0.00  0.00    -0.294 OA
BRANCH  44  45
HETATM   45  C   UNK N   1      30.530  15.339   4.945  0.00  0.00     0.215 C 
BRANCH  45  46
HETATM   46  C   UNK N   1      29.474  16.350   5.323  0.00  0.00     0.180 C 
HETATM   47  C   UNK N   1      29.801  17.373   6.378  0.00  0.00     0.182 C 
HETATM   48  C   UNK N   1      28.512  18.185   6.276  0.00  0.00     0.198 C 
HETATM   49  C   UNK N   1      28.223  18.083   4.746  0.00  0.00     0.262 C 
HETATM   50  O   UNK N   1      29.152  17.157   4.225  0.00  0.00    -0.353 OA
BRANCH  47  51
HETATM   51  O   UNK N   1      30.016  16.827   7.647  0.00  0.00    -0.390 OA
HETATM   52  H   UNK N   1      30.570  16.779   8.440  0.00  0.00     0.210 HD
ENDBRANCH  47  51
BRANCH  48  53
HETATM   53  O   UNK N   1      27.498  17.560   7.013  0.00  0.00    -0.388 OA
HETATM   54  H   UNK N   1      27.029  16.757   7.290  0.00  0.00     0.210 HD
ENDBRANCH  48  53
BRANCH  49  55
HETATM   55  N   UNK N   1      26.891  17.574   4.367  0.00  0.00    -0.297 N 
HETATM   56  C   UNK N   1      25.729  18.058   4.897  0.00  0.00     0.188 A 
HETATM   57  N   UNK N   1      24.645  17.391   4.434  0.00  0.00    -0.346 N 
HETATM   58  C   UNK N   1      25.156  16.477   3.600  0.00  0.00     0.122 A 
ATOM     59  HN  UNK N   1      23.664  17.550   4.668  1.00  0.00     0.167 HD
HETATM   60  C   UNK N   1      24.504  15.510   2.870  0.00  0.00     0.131 A 
HETATM   61  C   UNK N   1      26.503  16.587   3.551  0.00  0.00     0.142 A 
HETATM   62  N   UNK N   1      25.260  14.683   2.089  0.00  0.00    -0.337 N 
HETATM   63  C   UNK N   1      26.630  14.815   2.040  0.00  0.00     0.183 A 
ATOM     64  HN  UNK N   1      24.804  13.958   1.534  1.00  0.00     0.168 HD
HETATM   65  N   UNK N   1      27.269  15.774   2.786  0.00  0.00    -0.336 N 
ATOM     66  HN  UNK N   1      28.283  15.871   2.764  1.00  0.00     0.168 HD
BRANCH  60  67
HETATM   67  N   UNK N   1      23.103  15.365   2.937  0.00  0.00    -0.383 N 
HETATM   68  H   UNK N   1      22.579  14.971   2.202  0.00  0.00     0.157 HD
HETATM   69  H   UNK N   1      22.632  15.668   3.748  0.00  0.00     0.157 HD
ENDBRANCH  60  67
ENDBRANCH  49  55
ENDBRANCH  45  46
ENDBRANCH  44  45
ENDBRANCH  40  44
ENDBRANCH  39  40
ENDBRANCH   2  39
TORSDOF 22
ENDMDL
