REMARK  3 active torsions:
REMARK  status: ('A' for Active; 'I' for Inactive)
REMARK    1  A    between atoms: C_2  and  C_4 
REMARK    2  A    between atoms: C_4  and  C_5 
REMARK    3  A    between atoms: C_5  and  N_7 
ROOT
HETATM    1  C   UNK N   1       1.098  -0.522   0.000  0.00  0.00     0.070 C 
HETATM    2  C   UNK N   1       1.908  -1.801  -0.000  0.00  0.00     0.031 C 
ENDROOT
BRANCH   1   3
HETATM    3  C   UNK N   1       1.796   0.839  -0.000  0.00  0.00     0.028 C 
BRANCH   3   4
HETATM    4  C   UNK N   1       0.959   2.122   0.000  0.00  0.00    -0.021 C 
HETATM    5  C   UNK N   1       1.713   3.434  -0.000  0.00  0.00     0.009 C 
HETATM    6  C   UNK N   1      -0.559   2.177  -0.000  0.00  0.00     0.009 C 
ENDBRANCH   3   4
ENDBRANCH   1   3
BRANCH   1   7
HETATM    7  N   UNK N   1      -0.351  -0.648  -0.000  0.00  0.00    -0.426 N 
HETATM    8  H   UNK N   1      -0.935   0.188  -0.000  0.00  0.00     0.150 HD
HETATM    9  H   UNK N   1      -0.783  -1.572  -0.000  0.00  0.00     0.150 HD
ENDBRANCH   1   7
TORSDOF 3
