REMARK  0 active torsions:
REMARK  status: ('A' for Active; 'I' for Inactive)
REMARK       I    between atoms: N_1  and  C_2 
ROOT
HETATM    1  N   UNK N   1       4.042   0.131  -0.000  0.00  0.00    -0.234 N 
HETATM    2  C   UNK N   1       2.827   0.843  -0.000  0.00  0.00     0.680 A 
HETATM    3  N   UNK N   1       1.643   0.163  -0.000  0.00  0.00    -0.176 N 
ATOM      4  HN  UNK N   1       1.627  -0.857  -0.000  1.00  0.00     0.186 HD
HETATM    5  C   UNK N   1       0.489   0.872  -0.000  0.00  0.00     0.132 A 
HETATM    6  C   UNK N   1       0.465   2.222   0.000  0.00  0.00     0.060 A 
HETATM    7  C   UNK N   1      -0.953   2.695   0.000  0.00  0.00     0.092 A 
HETATM    8  C   UNK N   1      -1.632   1.324   0.000  0.00  0.00     0.067 A 
HETATM    9  N   UNK N   1      -0.793   0.347   0.000  0.00  0.00    -0.355 N 
ATOM     10  HN  UNK N   1      -1.032  -0.644   0.000  1.00  0.00     0.166 HD
HETATM   11  C   UNK N   1       1.660   2.925  -0.000  0.00  0.00     0.270 A 
HETATM   12  O   UNK N   1       1.671   4.143   0.000  0.00  0.00    -0.267 OA
HETATM   13  N   UNK N   1       2.838   2.213  -0.000  0.00  0.00    -0.156 N 
HETATM   14  H   UNK N   1       4.035  -0.854  -0.000  0.00  0.00     0.174 HD
HETATM   15  H   UNK N   1       4.898   0.617  -0.000  0.00  0.00     0.174 HD
HETATM   16  H   UNK N   1       3.698   2.694  -0.000  0.00  0.00     0.187 HD
ENDROOT
TORSDOF 0
