REMARK  8 active torsions:
REMARK  status: ('A' for Active; 'I' for Inactive)
REMARK    1  A    between atoms: N_24  and  C_2 
REMARK    2  A    between atoms: N_26  and  C_12 
REMARK    3  A    between atoms: O_27  and  C_13 
REMARK    4  A    between atoms: C_21  and  C_15 
REMARK    5  A    between atoms: C_22  and  C_18 
REMARK    6  A    between atoms: O_30  and  C_22 
REMARK    7  A    between atoms: N_26  and  C_23 
REMARK    8  A    between atoms: S_32  and  C_23 
ROOT
HETATM    1  C   UNK N   1       3.849  -2.317   0.402  0.00  0.00     0.030 A 
HETATM    2  C   UNK N   1       3.703  -0.950   0.473  0.00  0.00     0.015 A 
HETATM    3  C   UNK N   1       1.535  -2.522  -0.108  0.00  0.00     0.048 A 
HETATM    4  C   UNK N   1       2.777  -3.114   0.057  0.00  0.00     0.035 A 
HETATM    5  C   UNK N   1       2.500  -0.263   0.242  0.00  0.00    -0.007 A 
HETATM    6  C   UNK N   1       1.346  -1.129  -0.003  0.00  0.00     0.051 A 
ENDROOT
BRANCH   5   7
HETATM    7  C   UNK N   1       2.633   1.304   0.149  0.00  0.00     0.001 A 
HETATM    8  C   UNK N   1       3.951   1.913  -0.044  0.00  0.00     0.010 A 
HETATM    9  C   UNK N   1       5.144   1.163  -0.081  0.00  0.00     0.018 A 
HETATM   10  C   UNK N   1       4.081   3.320  -0.248  0.00  0.00     0.089 A 
HETATM   11  C   UNK N   1       6.393   1.742  -0.293  0.00  0.00     0.037 A 
HETATM   12  C   UNK N   1       6.490   3.110  -0.492  0.00  0.00     0.068 A 
HETATM   13  C   UNK N   1       5.342   3.894  -0.470  0.00  0.00     0.074 A 
HETATM   14  O   UNK N   1       3.036   4.116  -0.270  0.00  0.00    -0.309 OA
HETATM   15  C   UNK N   1       1.810   3.679  -0.088  0.00  0.00     0.091 A 
HETATM   16  C   UNK N   1       0.754   4.586  -0.158  0.00  0.00     0.092 A 
HETATM   17  C   UNK N   1       1.547   2.233   0.156  0.00  0.00     0.010 A 
HETATM   18  C   UNK N   1      -0.555   4.154   0.037  0.00  0.00     0.174 A 
HETATM   19  C   UNK N   1      -0.813   2.818   0.328  0.00  0.00     0.056 A 
HETATM   20  O   UNK N   1      -1.474   4.946  -0.045  0.00  0.00    -0.288 OA
HETATM   21  C   UNK N   1       0.227   1.889   0.385  0.00  0.00     0.019 A 
BRANCH  12  22
HETATM   22  O   UNK N   1       7.689   3.672  -0.715  0.00  0.00    -0.361 OA
HETATM   23  H   UNK N   1       8.447   3.143  -0.870  0.00  0.00     0.217 HD
ENDBRANCH  12  22
ENDBRANCH   5   7
BRANCH   6  24
HETATM   24  C   UNK N   1      -0.055  -0.747  -0.205  0.00  0.00     0.177 C 
HETATM   25  O   UNK N   1      -0.742  -0.482   0.771  0.00  0.00    -0.646 OA
BRANCH  24  26
HETATM   26  O   UNK N   1      -0.667  -1.062  -1.362  0.00  0.00    -0.773 OA
HETATM   27  H   UNK N   1      -1.070  -0.803  -2.168  0.00  0.00     0.167 HD
ENDBRANCH  24  26
ENDBRANCH   6  24
BRANCH   4  28
HETATM   28  N   UNK N   1       2.917  -4.523  -0.037  0.00  0.00    -0.337 N 
HETATM   29  H   UNK N   1       2.102  -5.071  -0.102  0.00  0.00     0.168 HD
BRANCH  28  30
HETATM   30  C   UNK N   1       4.179  -5.186  -0.042  0.00  0.00     0.137 C 
HETATM   31  N   UNK N   1       4.288  -6.307   0.584  0.00  0.00    -0.371 N 
ATOM     32  HN  UNK N   1       3.448  -6.713   0.997  1.00  0.00     0.161 HD
BRANCH  31  33
HETATM   33  C   UNK N   1       5.536  -7.021   0.733  0.00  0.00     0.117 C 
HETATM   34  C   UNK N   1       5.941  -7.700  -0.560  0.00  0.00     0.026 C 
ENDBRANCH  31  33
BRANCH  30  35
HETATM   35  S   UNK N   1       5.616  -4.433  -0.861  0.00  0.00    -0.107 SA
HETATM   36  H   UNK N   1       6.641  -5.082  -1.474  0.00  0.00     0.110 HD
ENDBRANCH  30  35
ENDBRANCH  28  30
ENDBRANCH   4  28
TORSDOF 8
