MODEL 1
REMARK VINA RESULT:      -3.5      0.000      0.000
REMARK  2 active torsions:
REMARK  status: ('A' for Active; 'I' for Inactive)
REMARK    1  A    between atoms: C_2  and  C_3 
REMARK    2  A    between atoms: C_3  and  C_4 
REMARK       I    between atoms: C_4  and  N_5 
ROOT
HETATM    1  C   UNK N   1      23.987  12.059  11.536  0.00  0.00     0.215 C 
HETATM    2  N   UNK N   1      25.117  12.548  11.001  0.00  0.00    -0.370 N 
HETATM    3  O   UNK N   1      23.874  11.992  12.756  0.00  0.00    -0.274 OA
HETATM    4  H   UNK N   1      25.848  12.850  11.586  0.00  0.00     0.159 HD
HETATM    5  H   UNK N   1      25.214  12.605  10.022  0.00  0.00     0.159 HD
ENDROOT
BRANCH   1   6
HETATM    6  C   UNK N   1      22.881  11.604  10.631  0.00  0.00     0.102 C 
BRANCH   6   7
HETATM    7  C   UNK N   1      21.535  12.240  10.929  0.00  0.00     0.005 C 
HETATM    8  C   UNK N   1      21.355  13.437  10.020  0.00  0.00     0.005 C 
ENDBRANCH   6   7
ENDBRANCH   1   6
TORSDOF 2
ENDMDL
MODEL 2
REMARK VINA RESULT:      -3.5     12.772     12.995
REMARK  2 active torsions:
REMARK  status: ('A' for Active; 'I' for Inactive)
REMARK    1  A    between atoms: C_2  and  C_3 
REMARK    2  A    between atoms: C_3  and  C_4 
REMARK       I    between atoms: C_4  and  N_5 
ROOT
HETATM    1  C   UNK N   1      34.462  18.197   8.490  0.00  0.00     0.215 C 
HETATM    2  N   UNK N   1      34.480  17.362   9.542  0.00  0.00    -0.370 N 
HETATM    3  O   UNK N   1      35.265  19.122   8.437  0.00  0.00    -0.274 OA
HETATM    4  H   UNK N   1      35.135  17.495  10.264  0.00  0.00     0.159 HD
HETATM    5  H   UNK N   1      33.838  16.616   9.590  0.00  0.00     0.159 HD
ENDROOT
BRANCH   1   6
HETATM    6  C   UNK N   1      33.458  17.981   7.396  0.00  0.00     0.102 C 
BRANCH   6   7
HETATM    7  C   UNK N   1      33.967  17.129   6.247  0.00  0.00     0.005 C 
HETATM    8  C   UNK N   1      33.168  17.466   5.006  0.00  0.00     0.005 C 
ENDBRANCH   6   7
ENDBRANCH   1   6
TORSDOF 2
ENDMDL
MODEL 3
REMARK VINA RESULT:      -3.3     13.606     14.174
REMARK  2 active torsions:
REMARK  status: ('A' for Active; 'I' for Inactive)
REMARK    1  A    between atoms: C_2  and  C_3 
REMARK    2  A    between atoms: C_3  and  C_4 
REMARK       I    between atoms: C_4  and  N_5 
ROOT
HETATM    1  C   UNK N   1      36.910  14.297  15.155  0.00  0.00     0.215 C 
HETATM    2  N   UNK N   1      36.701  14.652  13.876  0.00  0.00    -0.370 N 
HETATM    3  O   UNK N   1      37.565  15.031  15.887  0.00  0.00    -0.274 OA
HETATM    4  H   UNK N   1      37.072  15.496  13.533  0.00  0.00     0.159 HD
HETATM    5  H   UNK N   1      36.176  14.067  13.282  0.00  0.00     0.159 HD
ENDROOT
BRANCH   1   6
HETATM    6  C   UNK N   1      36.338  13.007  15.663  0.00  0.00     0.102 C 
BRANCH   6   7
HETATM    7  C   UNK N   1      34.954  13.142  16.273  0.00  0.00     0.005 C 
HETATM    8  C   UNK N   1      35.099  13.269  17.775  0.00  0.00     0.005 C 
ENDBRANCH   6   7
ENDBRANCH   1   6
TORSDOF 2
ENDMDL
MODEL 4
REMARK VINA RESULT:      -3.1     11.415     11.985
REMARK  2 active torsions:
REMARK  status: ('A' for Active; 'I' for Inactive)
REMARK    1  A    between atoms: C_2  and  C_3 
REMARK    2  A    between atoms: C_3  and  C_4 
REMARK       I    between atoms: C_4  and  N_5 
ROOT
HETATM    1  C   UNK N   1      34.096  18.055   7.777  0.00  0.00     0.215 C 
HETATM    2  N   UNK N   1      34.893  18.815   8.547  0.00  0.00    -0.370 N 
HETATM    3  O   UNK N   1      34.275  18.025   6.564  0.00  0.00    -0.274 OA
HETATM    4  H   UNK N   1      35.615  19.343   8.136  0.00  0.00     0.159 HD
HETATM    5  H   UNK N   1      34.755  18.844   9.521  0.00  0.00     0.159 HD
ENDROOT
BRANCH   1   6
HETATM    6  C   UNK N   1      33.000  17.256   8.418  0.00  0.00     0.102 C 
BRANCH   6   7
HETATM    7  C   UNK N   1      31.659  17.967   8.461  0.00  0.00     0.005 C 
HETATM    8  C   UNK N   1      30.644  17.127   7.716  0.00  0.00     0.005 C 
ENDBRANCH   6   7
ENDBRANCH   1   6
TORSDOF 2
ENDMDL
MODEL 5
REMARK VINA RESULT:      -3.0     13.701     14.238
REMARK  2 active torsions:
REMARK  status: ('A' for Active; 'I' for Inactive)
REMARK    1  A    between atoms: C_2  and  C_3 
REMARK    2  A    between atoms: C_3  and  C_4 
REMARK       I    between atoms: C_4  and  N_5 
ROOT
HETATM    1  C   UNK N   1      35.180  12.856  19.216  0.00  0.00     0.215 C 
HETATM    2  N   UNK N   1      34.784  13.322  20.412  0.00  0.00    -0.370 N 
HETATM    3  O   UNK N   1      35.511  11.681  19.103  0.00  0.00    -0.274 OA
HETATM    4  H   UNK N   1      34.761  12.720  21.191  0.00  0.00     0.159 HD
HETATM    5  H   UNK N   1      34.516  14.264  20.510  0.00  0.00     0.159 HD
ENDROOT
BRANCH   1   6
HETATM    6  C   UNK N   1      35.209  13.784  18.038  0.00  0.00     0.102 C 
BRANCH   6   7
HETATM    7  C   UNK N   1      34.856  13.122  16.718  0.00  0.00     0.005 C 
HETATM    8  C   UNK N   1      36.058  13.201  15.801  0.00  0.00     0.005 C 
ENDBRANCH   6   7
ENDBRANCH   1   6
TORSDOF 2
ENDMDL
MODEL 6
REMARK VINA RESULT:      -3.0     21.593     22.045
REMARK  2 active torsions:
REMARK  status: ('A' for Active; 'I' for Inactive)
REMARK    1  A    between atoms: C_2  and  C_3 
REMARK    2  A    between atoms: C_3  and  C_4 
REMARK       I    between atoms: C_4  and  N_5 
ROOT
HETATM    1  C   UNK N   1      26.028  27.903  -3.493  0.00  0.00     0.215 C 
HETATM    2  N   UNK N   1      25.926  29.239  -3.386  0.00  0.00    -0.370 N 
HETATM    3  O   UNK N   1      25.876  27.203  -2.498  0.00  0.00    -0.274 OA
HETATM    4  H   UNK N   1      25.730  29.648  -2.513  0.00  0.00     0.159 HD
HETATM    5  H   UNK N   1      26.047  29.807  -4.181  0.00  0.00     0.159 HD
ENDROOT
BRANCH   1   6
HETATM    6  C   UNK N   1      26.327  27.293  -4.830  0.00  0.00     0.102 C 
BRANCH   6   7
HETATM    7  C   UNK N   1      25.101  27.076  -5.700  0.00  0.00     0.005 C 
HETATM    8  C   UNK N   1      25.532  26.388  -6.978  0.00  0.00     0.005 C 
ENDBRANCH   6   7
ENDBRANCH   1   6
TORSDOF 2
ENDMDL
MODEL 7
REMARK VINA RESULT:      -3.0      2.406      3.122
REMARK  2 active torsions:
REMARK  status: ('A' for Active; 'I' for Inactive)
REMARK    1  A    between atoms: C_2  and  C_3 
REMARK    2  A    between atoms: C_3  and  C_4 
REMARK       I    between atoms: C_4  and  N_5 
ROOT
HETATM    1  C   UNK N   1      21.685  12.848  10.040  0.00  0.00     0.215 C 
HETATM    2  N   UNK N   1      22.399  13.811   9.432  0.00  0.00    -0.370 N 
HETATM    3  O   UNK N   1      20.465  12.945  10.099  0.00  0.00    -0.274 OA
HETATM    4  H   UNK N   1      21.941  14.587   9.038  0.00  0.00     0.159 HD
HETATM    5  H   UNK N   1      23.380  13.739   9.382  0.00  0.00     0.159 HD
ENDROOT
BRANCH   1   6
HETATM    6  C   UNK N   1      22.398  11.671  10.637  0.00  0.00     0.102 C 
BRANCH   6   7
HETATM    7  C   UNK N   1      23.566  12.043  11.534  0.00  0.00     0.005 C 
HETATM    8  C   UNK N   1      23.151  11.841  12.976  0.00  0.00     0.005 C 
ENDBRANCH   6   7
ENDBRANCH   1   6
TORSDOF 2
ENDMDL
MODEL 8
REMARK VINA RESULT:      -3.0     11.211     12.122
REMARK  2 active torsions:
REMARK  status: ('A' for Active; 'I' for Inactive)
REMARK    1  A    between atoms: C_2  and  C_3 
REMARK    2  A    between atoms: C_3  and  C_4 
REMARK       I    between atoms: C_4  and  N_5 
ROOT
HETATM    1  C   UNK N   1      20.902  20.522   1.621  0.00  0.00     0.215 C 
HETATM    2  N   UNK N   1      20.471  20.920   0.412  0.00  0.00    -0.370 N 
HETATM    3  O   UNK N   1      21.980  20.926   2.042  0.00  0.00    -0.274 OA
HETATM    4  H   UNK N   1      21.020  21.531  -0.129  0.00  0.00     0.159 HD
HETATM    5  H   UNK N   1      19.605  20.599   0.068  0.00  0.00     0.159 HD
ENDROOT
BRANCH   1   6
HETATM    6  C   UNK N   1      20.054  19.590   2.435  0.00  0.00     0.102 C 
BRANCH   6   7
HETATM    7  C   UNK N   1      20.822  18.436   3.055  0.00  0.00     0.005 C 
HETATM    8  C   UNK N   1      19.831  17.385   3.507  0.00  0.00     0.005 C 
ENDBRANCH   6   7
ENDBRANCH   1   6
TORSDOF 2
ENDMDL
MODEL 9
REMARK VINA RESULT:      -3.0      1.811      2.159
REMARK  2 active torsions:
REMARK  status: ('A' for Active; 'I' for Inactive)
REMARK    1  A    between atoms: C_2  and  C_3 
REMARK    2  A    between atoms: C_3  and  C_4 
REMARK       I    between atoms: C_4  and  N_5 
ROOT
HETATM    1  C   UNK N   1      23.446  12.069  11.641  0.00  0.00     0.215 C 
HETATM    2  N   UNK N   1      22.518  11.534  12.452  0.00  0.00    -0.370 N 
HETATM    3  O   UNK N   1      24.635  11.931  11.907  0.00  0.00    -0.274 OA
HETATM    4  H   UNK N   1      22.795  11.035  13.253  0.00  0.00     0.159 HD
HETATM    5  H   UNK N   1      21.561  11.641  12.244  0.00  0.00     0.159 HD
ENDROOT
BRANCH   1   6
HETATM    6  C   UNK N   1      23.009  12.828  10.423  0.00  0.00     0.102 C 
BRANCH   6   7
HETATM    7  C   UNK N   1      22.406  11.956   9.335  0.00  0.00     0.005 C 
HETATM    8  C   UNK N   1      23.528  11.233   8.620  0.00  0.00     0.005 C 
ENDBRANCH   6   7
ENDBRANCH   1   6
TORSDOF 2
ENDMDL
