MODEL 1
REMARK VINA RESULT:      -3.7      0.000      0.000
REMARK  3 active torsions:
REMARK  status: ('A' for Active; 'I' for Inactive)
REMARK    1  A    between atoms: N_2  and  C_4 
REMARK    2  A    between atoms: C_4  and  C_5 
REMARK    3  A    between atoms: C_5  and  O_6 
ROOT
HETATM    1  C   UNK N   1      33.989  17.233   9.000  0.00  0.00     0.226 C 
ENDROOT
BRANCH   1   2
HETATM    2  N   UNK N   1      34.908  16.306   9.678  0.00  0.00    -0.412 N 
HETATM    3  C   UNK N   1      35.309  15.115   8.951  0.00  0.00     0.143 C 
HETATM    4  C   UNK N   1      35.451  16.477  11.017  0.00  0.00     0.143 C 
ENDBRANCH   1   2
BRANCH   1   5
HETATM    5  C   UNK N   1      34.600  18.275   8.089  0.00  0.00     0.157 C 
HETATM    6  O   UNK N   1      35.265  19.201   8.521  0.00  0.00    -0.649 OA
BRANCH   5   7
HETATM    7  O   UNK N   1      34.401  18.172   6.761  0.00  0.00    -0.775 OA
HETATM    8  H   UNK N   1      33.720  17.619   6.432  0.00  0.00     0.167 HD
ENDBRANCH   5   7
ENDBRANCH   1   5
TORSDOF 3
ENDMDL
MODEL 2
REMARK VINA RESULT:      -3.6      1.797      2.964
REMARK  3 active torsions:
REMARK  status: ('A' for Active; 'I' for Inactive)
REMARK    1  A    between atoms: N_2  and  C_4 
REMARK    2  A    between atoms: C_4  and  C_5 
REMARK    3  A    between atoms: C_5  and  O_6 
ROOT
HETATM    1  C   UNK N   1      33.787  17.294   8.939  0.00  0.00     0.226 C 
ENDROOT
BRANCH   1   2
HETATM    2  N   UNK N   1      32.441  16.864   8.531  0.00  0.00    -0.412 N 
HETATM    3  C   UNK N   1      31.386  17.860   8.566  0.00  0.00     0.143 C 
HETATM    4  C   UNK N   1      32.073  15.526   8.094  0.00  0.00     0.143 C 
ENDBRANCH   1   2
BRANCH   1   5
HETATM    5  C   UNK N   1      34.531  18.228   8.010  0.00  0.00     0.157 C 
HETATM    6  O   UNK N   1      34.472  18.116   6.798  0.00  0.00    -0.649 OA
BRANCH   5   7
HETATM    7  O   UNK N   1      35.280  19.211   8.543  0.00  0.00    -0.775 OA
HETATM    8  H   UNK N   1      36.213  19.188   8.458  0.00  0.00     0.167 HD
ENDBRANCH   5   7
ENDBRANCH   1   5
TORSDOF 3
ENDMDL
MODEL 3
REMARK VINA RESULT:      -3.4     15.085     15.842
REMARK  3 active torsions:
REMARK  status: ('A' for Active; 'I' for Inactive)
REMARK    1  A    between atoms: N_2  and  C_4 
REMARK    2  A    between atoms: C_4  and  C_5 
REMARK    3  A    between atoms: C_5  and  O_6 
ROOT
HETATM    1  C   UNK N   1      20.119  19.595   2.405  0.00  0.00     0.226 C 
ENDROOT
BRANCH   1   2
HETATM    2  N   UNK N   1      20.491  18.181   2.248  0.00  0.00    -0.412 N 
HETATM    3  C   UNK N   1      21.343  17.599   3.268  0.00  0.00     0.143 C 
HETATM    4  C   UNK N   1      20.079  17.311   1.156  0.00  0.00     0.143 C 
ENDBRANCH   1   2
BRANCH   1   5
HETATM    5  C   UNK N   1      21.046  20.629   1.803  0.00  0.00     0.157 C 
HETATM    6  O   UNK N   1      21.317  20.640   0.615  0.00  0.00    -0.649 OA
BRANCH   5   7
HETATM    7  O   UNK N   1      21.584  21.564   2.609  0.00  0.00    -0.775 OA
HETATM    8  H   UNK N   1      21.036  22.048   3.196  0.00  0.00     0.167 HD
ENDBRANCH   5   7
ENDBRANCH   1   5
TORSDOF 3
ENDMDL
MODEL 4
REMARK VINA RESULT:      -3.2      2.423      3.158
REMARK  3 active torsions:
REMARK  status: ('A' for Active; 'I' for Inactive)
REMARK    1  A    between atoms: N_2  and  C_4 
REMARK    2  A    between atoms: C_4  and  C_5 
REMARK    3  A    between atoms: C_5  and  O_6 
ROOT
HETATM    1  C   UNK N   1      34.581  15.433  10.840  0.00  0.00     0.226 C 
ENDROOT
BRANCH   1   2
HETATM    2  N   UNK N   1      33.840  15.020   9.638  0.00  0.00    -0.412 N 
HETATM    3  C   UNK N   1      34.609  14.457   8.544  0.00  0.00     0.143 C 
HETATM    4  C   UNK N   1      32.401  15.127   9.450  0.00  0.00     0.143 C 
ENDBRANCH   1   2
BRANCH   1   5
HETATM    5  C   UNK N   1      35.698  16.437  10.658  0.00  0.00     0.157 C 
HETATM    6  O   UNK N   1      35.490  17.572  10.263  0.00  0.00    -0.649 OA
BRANCH   5   7
HETATM    7  O   UNK N   1      36.959  16.061  10.941  0.00  0.00    -0.775 OA
HETATM    8  H   UNK N   1      37.186  15.152  10.951  0.00  0.00     0.167 HD
ENDBRANCH   5   7
ENDBRANCH   1   5
TORSDOF 3
ENDMDL
MODEL 5
REMARK VINA RESULT:      -3.0     12.698     13.274
REMARK  3 active torsions:
REMARK  status: ('A' for Active; 'I' for Inactive)
REMARK    1  A    between atoms: N_2  and  C_4 
REMARK    2  A    between atoms: C_4  and  C_5 
REMARK    3  A    between atoms: C_5  and  O_6 
ROOT
HETATM    1  C   UNK N   1      22.810  11.700  10.366  0.00  0.00     0.226 C 
ENDROOT
BRANCH   1   2
HETATM    2  N   UNK N   1      22.790  12.934   9.566  0.00  0.00    -0.412 N 
HETATM    3  C   UNK N   1      21.684  13.849   9.782  0.00  0.00     0.143 C 
HETATM    4  C   UNK N   1      23.783  13.319   8.575  0.00  0.00     0.143 C 
ENDBRANCH   1   2
BRANCH   1   5
HETATM    5  C   UNK N   1      23.404  11.781  11.755  0.00  0.00     0.157 C 
HETATM    6  O   UNK N   1      24.581  12.038  11.941  0.00  0.00    -0.649 OA
BRANCH   5   7
HETATM    7  O   UNK N   1      22.604  11.562  12.816  0.00  0.00    -0.775 OA
HETATM    8  H   UNK N   1      22.359  10.687  13.045  0.00  0.00     0.167 HD
ENDBRANCH   5   7
ENDBRANCH   1   5
TORSDOF 3
ENDMDL
MODEL 6
REMARK VINA RESULT:      -2.9     13.416     14.101
REMARK  3 active torsions:
REMARK  status: ('A' for Active; 'I' for Inactive)
REMARK    1  A    between atoms: N_2  and  C_4 
REMARK    2  A    between atoms: C_4  and  C_5 
REMARK    3  A    between atoms: C_5  and  O_6 
ROOT
HETATM    1  C   UNK N   1      21.789  19.158   3.084  0.00  0.00     0.226 C 
ENDROOT
BRANCH   1   2
HETATM    2  N   UNK N   1      22.828  18.813   4.065  0.00  0.00    -0.412 N 
HETATM    3  C   UNK N   1      24.176  19.282   3.801  0.00  0.00     0.143 C 
HETATM    4  C   UNK N   1      22.624  18.041   5.282  0.00  0.00     0.143 C 
ENDBRANCH   1   2
BRANCH   1   5
HETATM    5  C   UNK N   1      21.150  20.525   3.198  0.00  0.00     0.157 C 
HETATM    6  O   UNK N   1      20.105  20.701   3.801  0.00  0.00    -0.649 OA
BRANCH   5   7
HETATM    7  O   UNK N   1      21.757  21.575   2.615  0.00  0.00    -0.775 OA
HETATM    8  H   UNK N   1      21.245  22.280   2.270  0.00  0.00     0.167 HD
ENDBRANCH   5   7
ENDBRANCH   1   5
TORSDOF 3
ENDMDL
MODEL 7
REMARK VINA RESULT:      -2.9     13.022     14.104
REMARK  3 active torsions:
REMARK  status: ('A' for Active; 'I' for Inactive)
REMARK    1  A    between atoms: N_2  and  C_4 
REMARK    2  A    between atoms: C_4  and  C_5 
REMARK    3  A    between atoms: C_5  and  O_6 
ROOT
HETATM    1  C   UNK N   1      32.182  22.105  -4.204  0.00  0.00     0.226 C 
ENDROOT
BRANCH   1   2
HETATM    2  N   UNK N   1      31.494  21.168  -5.105  0.00  0.00    -0.412 N 
HETATM    3  C   UNK N   1      32.283  20.092  -5.675  0.00  0.00     0.143 C 
HETATM    4  C   UNK N   1      30.088  21.225  -5.475  0.00  0.00     0.143 C 
ENDBRANCH   1   2
BRANCH   1   5
HETATM    5  C   UNK N   1      31.993  21.905  -2.716  0.00  0.00     0.157 C 
HETATM    6  O   UNK N   1      31.109  22.468  -2.095  0.00  0.00    -0.649 OA
BRANCH   5   7
HETATM    7  O   UNK N   1      32.831  21.079  -2.062  0.00  0.00    -0.775 OA
HETATM    8  H   UNK N   1      33.007  20.224  -2.403  0.00  0.00     0.167 HD
ENDBRANCH   5   7
ENDBRANCH   1   5
TORSDOF 3
ENDMDL
MODEL 8
REMARK VINA RESULT:      -2.9     11.426     11.951
REMARK  3 active torsions:
REMARK  status: ('A' for Active; 'I' for Inactive)
REMARK    1  A    between atoms: N_2  and  C_4 
REMARK    2  A    between atoms: C_4  and  C_5 
REMARK    3  A    between atoms: C_5  and  O_6 
ROOT
HETATM    1  C   UNK N   1      42.794  21.936   3.119  0.00  0.00     0.226 C 
ENDROOT
BRANCH   1   2
HETATM    2  N   UNK N   1      42.390  22.556   1.848  0.00  0.00    -0.412 N 
HETATM    3  C   UNK N   1      43.358  22.548   0.766  0.00  0.00     0.143 C 
HETATM    4  C   UNK N   1      41.104  23.180   1.579  0.00  0.00     0.143 C 
ENDBRANCH   1   2
BRANCH   1   5
HETATM    5  C   UNK N   1      43.721  22.726   4.016  0.00  0.00     0.157 C 
HETATM    6  O   UNK N   1      44.641  22.201   4.619  0.00  0.00    -0.649 OA
BRANCH   5   7
HETATM    7  O   UNK N   1      43.521  24.051   4.148  0.00  0.00    -0.775 OA
HETATM    8  H   UNK N   1      44.072  24.656   3.692  0.00  0.00     0.167 HD
ENDBRANCH   5   7
ENDBRANCH   1   5
TORSDOF 3
ENDMDL
MODEL 9
REMARK VINA RESULT:      -2.9      2.198      3.060
REMARK  3 active torsions:
REMARK  status: ('A' for Active; 'I' for Inactive)
REMARK    1  A    between atoms: N_2  and  C_4 
REMARK    2  A    between atoms: C_4  and  C_5 
REMARK    3  A    between atoms: C_5  and  O_6 
ROOT
HETATM    1  C   UNK N   1      33.486  17.301   8.306  0.00  0.00     0.226 C 
ENDROOT
BRANCH   1   2
HETATM    2  N   UNK N   1      33.500  16.886   6.895  0.00  0.00    -0.412 N 
HETATM    3  C   UNK N   1      34.595  16.037   6.462  0.00  0.00     0.143 C 
HETATM    4  C   UNK N   1      32.512  17.253   5.892  0.00  0.00     0.143 C 
ENDBRANCH   1   2
BRANCH   1   5
HETATM    5  C   UNK N   1      34.691  18.056   8.822  0.00  0.00     0.157 C 
HETATM    6  O   UNK N   1      35.064  19.101   8.317  0.00  0.00    -0.649 OA
BRANCH   5   7
HETATM    7  O   UNK N   1      35.370  17.553   9.870  0.00  0.00    -0.775 OA
HETATM    8  H   UNK N   1      34.948  16.962  10.462  0.00  0.00     0.167 HD
ENDBRANCH   5   7
ENDBRANCH   1   5
TORSDOF 3
ENDMDL
