REMARK  2 active torsions:
REMARK  status: ('A' for Active; 'I' for Inactive)
REMARK    1  A    between atoms: N_1  and  S_2 
REMARK    2  A    between atoms: S_2  and  C_5 
ROOT
HETATM    1  C   UNK N   1       1.506  -0.019  -0.085  0.00  0.00     0.085 A 
HETATM    2  C   UNK N   1       0.342  -0.770   0.099  0.00  0.00     0.067 A 
HETATM    3  C   UNK N   1      -0.888  -0.127   0.265  0.00  0.00     0.120 A 
HETATM    4  F   UNK N   1      -2.016  -0.856   0.433  0.00  0.00    -0.206 F 
HETATM    5  C   UNK N   1      -0.955   1.270   0.240  0.00  0.00     0.084 A 
HETATM    6  C   UNK N   1       0.209   2.022   0.057  0.00  0.00     0.120 A 
HETATM    7  F   UNK N   1       0.143   3.375   0.023  0.00  0.00    -0.206 F 
HETATM    8  C   UNK N   1       1.440   1.379  -0.109  0.00  0.00     0.067 A 
ENDROOT
BRANCH   1   9
HETATM    9  S   UNK N   1       3.065  -0.850  -0.362  0.00  0.00     0.256 S 
HETATM   10  O   UNK N   1       4.226   0.121  -0.622  0.00  0.00    -0.201 OA
HETATM   11  O   UNK N   1       3.049  -1.675  -1.658  0.00  0.00    -0.201 OA
BRANCH   9  12
HETATM   12  N   UNK N   1       3.660  -1.957   0.876  0.00  0.00    -0.324 N 
HETATM   13  H   UNK N   1       3.278  -2.574   1.593  0.00  0.00     0.169 HD
HETATM   14  H   UNK N   1       4.679  -1.988   0.876  0.00  0.00     0.169 HD
ENDBRANCH   9  12
ENDBRANCH   1   9
TORSDOF 2
