REMARK  6 active torsions:
REMARK  status: ('A' for Active; 'I' for Inactive)
REMARK    1  A    between atoms: O_1  and  C_2 
REMARK    2  A    between atoms: C_5  and  As_9 
REMARK    3  A    between atoms: C_7  and  O_8 
REMARK    4  A    between atoms: As_9  and  C_10 
REMARK    5  A    between atoms: As_9  and  C_16 
REMARK    6  A    between atoms: As_9  and  C_22 
ROOT
HETATM    1 As   UNK N   1      -0.808  -2.773  -0.149  0.00  0.00     0.000 As
ENDROOT
BRANCH   1   2
HETATM    2  C   UNK N   1      -0.886  -0.743  -0.123  0.00  0.00    -0.023 A 
HETATM    3  C   UNK N   1      -0.040  -0.033   0.742  0.00  0.00     0.015 A 
HETATM    4  C   UNK N   1      -0.211   1.337   0.954  0.00  0.00     0.040 A 
HETATM    5  C   UNK N   1      -1.271   2.009   0.344  0.00  0.00     0.098 A 
HETATM    6  C   UNK N   1      -2.127   1.316  -0.520  0.00  0.00     0.099 A 
HETATM    7  C   UNK N   1      -1.929  -0.048  -0.751  0.00  0.00     0.051 A 
BRANCH   5   8
HETATM    8  O   UNK N   1      -1.477   3.311   0.607  0.00  0.00    -0.358 OA
HETATM    9  H   UNK N   1      -0.763   3.889   0.791  0.00  0.00     0.217 HD
ENDBRANCH   5   8
BRANCH   6  10
HETATM   10  O   UNK N   1      -3.161   1.946  -1.103  0.00  0.00    -0.358 OA
HETATM   11  H   UNK N   1      -3.140   2.790  -1.509  0.00  0.00     0.217 HD
ENDBRANCH   6  10
ENDBRANCH   1   2
BRANCH   1  12
HETATM   12  C   UNK N   1      -0.818  -4.758  -0.152  0.00  0.00    -0.026 A 
HETATM   13  C   UNK N   1      -0.323  -5.496  -1.226  0.00  0.00     0.012 A 
HETATM   14  C   UNK N   1      -0.394  -6.893  -1.199  0.00  0.00     0.001 A 
HETATM   15  C   UNK N   1      -0.966  -7.550  -0.103  0.00  0.00     0.000 A 
HETATM   16  C   UNK N   1      -1.451  -6.812   0.978  0.00  0.00     0.001 A 
HETATM   17  C   UNK N   1      -1.374  -5.420   0.954  0.00  0.00     0.012 A 
ENDBRANCH   1  12
BRANCH   1  18
HETATM   18  C   UNK N   1      -2.825  -2.797  -0.265  0.00  0.00    -0.026 A 
HETATM   19  C   UNK N   1      -3.580  -3.281   0.807  0.00  0.00     0.012 A 
HETATM   20  C   UNK N   1      -4.976  -3.315   0.733  0.00  0.00     0.001 A 
HETATM   21  C   UNK N   1      -5.630  -2.869  -0.419  0.00  0.00     0.000 A 
HETATM   22  C   UNK N   1      -4.885  -2.402  -1.505  0.00  0.00     0.001 A 
HETATM   23  C   UNK N   1      -3.486  -2.375  -1.434  0.00  0.00     0.012 A 
ENDBRANCH   1  18
BRANCH   1  24
HETATM   24  C   UNK N   1       1.201  -2.708  -0.107  0.00  0.00    -0.026 A 
HETATM   25  C   UNK N   1       1.863  -2.231   1.030  0.00  0.00     0.012 A 
HETATM   26  C   UNK N   1       3.259  -2.192   1.077  0.00  0.00     0.001 A 
HETATM   27  C   UNK N   1       4.007  -2.635  -0.015  0.00  0.00     0.000 A 
HETATM   28  C   UNK N   1       3.357  -3.127  -1.152  0.00  0.00     0.001 A 
HETATM   29  C   UNK N   1       1.957  -3.169  -1.198  0.00  0.00     0.012 A 
ENDBRANCH   1  24
TORSDOF 6
