MODEL 1
REMARK VINA RESULT:      -7.9      0.000      0.000
REMARK  27 active torsions:
REMARK  status: ('A' for Active; 'I' for Inactive)
REMARK    1  A    between atoms: C_8  and  C_5 
REMARK    2  A    between atoms: C_17  and  C_5 
REMARK    3  A    between atoms: C_9  and  C_6 
REMARK    4  A    between atoms: C_19  and  C_6 
REMARK    5  A    between atoms: C_10  and  C_7 
REMARK    6  A    between atoms: C_18  and  C_7 
REMARK    7  A    between atoms: C_20  and  C_8 
REMARK    8  A    between atoms: C_21  and  C_9 
REMARK    9  A    between atoms: C_22  and  C_10 
REMARK   10  A    between atoms: C_16  and  C_11 
REMARK   11  A    between atoms: N_33  and  C_11 
REMARK   12  A    between atoms: N_43  and  C_13 
REMARK   13  A    between atoms: C_25  and  C_14 
REMARK   14  A    between atoms: N_33  and  C_15 
REMARK   15  A    between atoms: C_27  and  C_17 
REMARK   16  A    between atoms: C_17  and  N_35 
REMARK   17  A    between atoms: C_28  and  C_18 
REMARK   18  A    between atoms: C_18  and  N_37 
REMARK   19  A    between atoms: C_29  and  C_19 
REMARK   20  A    between atoms: C_19  and  N_39 
REMARK   21  A    between atoms: C_20  and  O_45 
REMARK   22  A    between atoms: C_21  and  O_46 
REMARK   23  A    between atoms: O_48  and  C_22 
REMARK       I    between atoms: N_39  and  C_25 
REMARK   24  A    between atoms: O_50  and  C_26 
REMARK   25  A    between atoms: O_52  and  C_27 
REMARK   26  A    between atoms: O_54  and  C_28 
REMARK   27  A    between atoms: O_56  and  C_29 
REMARK       I    between atoms: N_31  and  C_30 
ROOT
HETATM    1  C   UNK N   1      20.803  19.174   2.447  0.00  0.00     0.183 C 
ENDROOT
BRANCH   1   2
HETATM    2  C   UNK N   1      21.536  19.632   3.719  0.00  0.00     0.044 C 
BRANCH   2   3
HETATM    3  C   UNK N   1      22.752  18.780   4.136  0.00  0.00     0.086 C 
BRANCH   3   4
HETATM    4  C   UNK N   1      23.958  19.650   3.998  0.00  0.00     0.112 C 
HETATM    5  N   UNK N   1      25.011  19.351   4.685  0.00  0.00    -0.360 N 
ATOM      6  HN  UNK N   1      25.007  18.454   5.171  1.00  0.00     0.162 HD
BRANCH   5   7
HETATM    7  C   UNK N   1      26.199  20.175   4.827  0.00  0.00     0.181 C 
BRANCH   7   8
HETATM    8  C   UNK N   1      27.452  19.356   4.485  0.00  0.00     0.044 C 
BRANCH   8   9
HETATM    9  C   UNK N   1      27.182  17.847   4.527  0.00  0.00     0.086 C 
BRANCH   9  10
HETATM   10  C   UNK N   1      27.819  17.147   5.685  0.00  0.00     0.112 C 
HETATM   11  N   UNK N   1      28.404  17.849   6.602  0.00  0.00    -0.360 N 
ATOM     12  HN  UNK N   1      28.378  18.864   6.517  1.00  0.00     0.162 HD
BRANCH  11  13
HETATM   13  C   UNK N   1      29.095  17.274   7.747  0.00  0.00     0.181 C 
BRANCH  13  14
HETATM   14  C   UNK N   1      30.602  17.424   7.562  0.00  0.00     0.046 C 
BRANCH  14  15
HETATM   15  C   UNK N   1      31.314  16.087   7.436  0.00  0.00     0.112 C 
BRANCH  15  16
HETATM   16  C   UNK N   1      32.105  15.842   8.683  0.00  0.00     0.139 C 
HETATM   17  O   UNK N   1      33.309  15.649   8.619  0.00  0.00    -0.650 OA
BRANCH  16  18
HETATM   18  O   UNK N   1      31.488  15.828   9.879  0.00  0.00    -0.776 OA
HETATM   19  H   UNK N   1      31.743  16.375  10.595  0.00  0.00     0.167 HD
ENDBRANCH  16  18
ENDBRANCH  15  16
ENDBRANCH  14  15
ENDBRANCH  13  14
BRANCH  13  20
HETATM   20  C   UNK N   1      28.742  17.954   9.047  0.00  0.00     0.163 C 
HETATM   21  O   UNK N   1      29.610  18.337   9.815  0.00  0.00    -0.648 OA
BRANCH  20  22
HETATM   22  O   UNK N   1      27.446  18.137   9.365  0.00  0.00    -0.775 OA
HETATM   23  H   UNK N   1      26.811  18.308   8.696  0.00  0.00     0.167 HD
ENDBRANCH  20  22
ENDBRANCH  13  20
ENDBRANCH  11  13
BRANCH  10  24
HETATM   24  O   UNK N   1      27.815  15.798   5.742  0.00  0.00    -0.350 OA
HETATM   25  H   UNK N   1      28.110  15.281   6.466  0.00  0.00     0.219 HD
ENDBRANCH  10  24
ENDBRANCH   9  10
ENDBRANCH   8   9
ENDBRANCH   7   8
BRANCH   7  26
HETATM   26  C   UNK N   1      26.338  20.818   6.185  0.00  0.00     0.163 C 
HETATM   27  O   UNK N   1      26.108  22.006   6.347  0.00  0.00    -0.648 OA
BRANCH  26  28
HETATM   28  O   UNK N   1      26.752  20.075   7.230  0.00  0.00    -0.775 OA
HETATM   29  H   UNK N   1      26.232  19.542   7.798  0.00  0.00     0.167 HD
ENDBRANCH  26  28
ENDBRANCH   7  26
ENDBRANCH   5   7
BRANCH   4  30
HETATM   30  O   UNK N   1      23.901  20.778   3.256  0.00  0.00    -0.350 OA
HETATM   31  H   UNK N   1      24.097  21.248   2.469  0.00  0.00     0.219 HD
ENDBRANCH   4  30
ENDBRANCH   3   4
ENDBRANCH   2   3
ENDBRANCH   1   2
BRANCH   1  32
HETATM   32  C   UNK N   1      20.914  20.176   1.337  0.00  0.00     0.163 C 
HETATM   33  O   UNK N   1      21.351  21.291   1.569  0.00  0.00    -0.648 OA
BRANCH  32  34
HETATM   34  O   UNK N   1      20.581  19.843   0.077  0.00  0.00    -0.775 OA
HETATM   35  H   UNK N   1      19.692  19.655  -0.149  0.00  0.00     0.167 HD
ENDBRANCH  32  34
ENDBRANCH   1  32
BRANCH   1  36
HETATM   36  N   UNK N   1      21.301  17.877   2.050  0.00  0.00    -0.343 N 
HETATM   37  C   UNK N   1      20.447  16.861   1.810  0.00  0.00     0.252 C 
HETATM   38  O   UNK N   1      19.364  17.077   1.281  0.00  0.00    -0.268 OA
HETATM   39  H   UNK N   1      22.271  17.734   1.954  0.00  0.00     0.163 HD
BRANCH  37  40
HETATM   40  C   UNK N   1      20.667  15.603   2.524  0.00  0.00     0.032 A 
HETATM   41  C   UNK N   1      21.925  14.979   2.486  0.00  0.00     0.019 A 
HETATM   42  C   UNK N   1      22.229  13.947   3.377  0.00  0.00     0.030 A 
HETATM   43  C   UNK N   1      21.283  13.556   4.325  0.00  0.00     0.028 A 
HETATM   44  C   UNK N   1      20.026  14.174   4.344  0.00  0.00     0.030 A 
HETATM   45  C   UNK N   1      19.718  15.188   3.454  0.00  0.00     0.019 A 
BRANCH  43  46
HETATM   46  N   UNK N   1      21.597  12.549   5.268  0.00  0.00    -0.388 N 
HETATM   47  H   UNK N   1      20.974  11.801   5.412  0.00  0.00     0.159 HD
BRANCH  46  48
HETATM   48  C   UNK N   1      22.830  12.613   6.017  0.00  0.00     0.147 C 
BRANCH  48  49
HETATM   49  C   UNK N   1      22.751  13.714   7.082  0.00  0.00     0.128 C 
HETATM   50  C   UNK N   1      21.372  13.655   7.715  0.00  0.00     0.148 C 
HETATM   51  N   UNK N   1      21.308  12.591   8.670  0.00  0.00    -0.372 N 
HETATM   52  C   UNK N   1      22.323  12.495   9.638  0.00  0.00     0.148 A 
HETATM   53  H   UNK N   1      20.568  11.940   8.650  0.00  0.00     0.161 HD
HETATM   54  C   UNK N   1      23.602  13.038   9.374  0.00  0.00     0.133 A 
HETATM   55  N   UNK N   1      22.046  11.908  10.826  0.00  0.00    -0.175 N 
HETATM   56  C   UNK N   1      24.536  13.002  10.456  0.00  0.00     0.186 A 
HETATM   57  N   UNK N   1      23.858  13.570   8.037  0.00  0.00    -0.310 N 
HETATM   58  N   UNK N   1      24.188  12.411  11.626  0.00  0.00    -0.168 N 
HETATM   59  C   UNK N   1      22.970  11.851  11.810  0.00  0.00     0.679 A 
ATOM     60  HN  UNK N   1      24.864  12.389  12.390  1.00  0.00     0.186 HD
HETATM   61  N   UNK N   1      22.684  11.295  12.921  0.00  0.00    -0.234 N 
HETATM   62  H   UNK N   1      21.803  10.883  13.066  0.00  0.00     0.174 HD
ATOM     63  HN  UNK N   1      23.378  11.277  13.670  1.00  0.00     0.174 HD
HETATM   64  H   UNK N   1      21.155  11.517  10.976  0.00  0.00     0.186 HD
BRANCH  56  65
HETATM   65  O   UNK N   1      25.747  13.571  10.390  0.00  0.00    -0.344 OA
HETATM   66  H   UNK N   1      26.151  13.937  11.152  0.00  0.00     0.219 HD
ENDBRANCH  56  65
BRANCH  57  67
HETATM   67  C   UNK N   1      25.097  13.815   7.505  0.00  0.00     0.356 C 
HETATM   68  O   UNK N   1      25.522  14.920   7.229  0.00  0.00    -0.283 OA
ENDBRANCH  57  67
ENDBRANCH  48  49
ENDBRANCH  46  48
ENDBRANCH  43  46
ENDBRANCH  37  40
ENDBRANCH   1  36
TORSDOF 27
ENDMDL
MODEL 2
REMARK VINA RESULT:      -7.8      2.961      7.775
REMARK  27 active torsions:
REMARK  status: ('A' for Active; 'I' for Inactive)
REMARK    1  A    between atoms: C_8  and  C_5 
REMARK    2  A    between atoms: C_17  and  C_5 
REMARK    3  A    between atoms: C_9  and  C_6 
REMARK    4  A    between atoms: C_19  and  C_6 
REMARK    5  A    between atoms: C_10  and  C_7 
REMARK    6  A    between atoms: C_18  and  C_7 
REMARK    7  A    between atoms: C_20  and  C_8 
REMARK    8  A    between atoms: C_21  and  C_9 
REMARK    9  A    between atoms: C_22  and  C_10 
REMARK   10  A    between atoms: C_16  and  C_11 
REMARK   11  A    between atoms: N_33  and  C_11 
REMARK   12  A    between atoms: N_43  and  C_13 
REMARK   13  A    between atoms: C_25  and  C_14 
REMARK   14  A    between atoms: N_33  and  C_15 
REMARK   15  A    between atoms: C_27  and  C_17 
REMARK   16  A    between atoms: C_17  and  N_35 
REMARK   17  A    between atoms: C_28  and  C_18 
REMARK   18  A    between atoms: C_18  and  N_37 
REMARK   19  A    between atoms: C_29  and  C_19 
REMARK   20  A    between atoms: C_19  and  N_39 
REMARK   21  A    between atoms: C_20  and  O_45 
REMARK   22  A    between atoms: C_21  and  O_46 
REMARK   23  A    between atoms: O_48  and  C_22 
REMARK       I    between atoms: N_39  and  C_25 
REMARK   24  A    between atoms: O_50  and  C_26 
REMARK   25  A    between atoms: O_52  and  C_27 
REMARK   26  A    between atoms: O_54  and  C_28 
REMARK   27  A    between atoms: O_56  and  C_29 
REMARK       I    between atoms: N_31  and  C_30 
ROOT
HETATM    1  C   UNK N   1      21.950  19.462   2.945  0.00  0.00     0.183 C 
ENDROOT
BRANCH   1   2
HETATM    2  C   UNK N   1      21.218  18.198   3.425  0.00  0.00     0.044 C 
BRANCH   2   3
HETATM    3  C   UNK N   1      22.118  17.013   3.829  0.00  0.00     0.086 C 
BRANCH   3   4
HETATM    4  C   UNK N   1      22.199  17.019   5.320  0.00  0.00     0.112 C 
HETATM    5  N   UNK N   1      21.249  16.452   5.987  0.00  0.00    -0.360 N 
ATOM      6  HN  UNK N   1      20.571  15.906   5.455  1.00  0.00     0.162 HD
BRANCH   5   7
HETATM    7  C   UNK N   1      21.057  16.522   7.426  0.00  0.00     0.181 C 
BRANCH   7   8
HETATM    8  C   UNK N   1      20.418  15.221   7.935  0.00  0.00     0.044 C 
BRANCH   8   9
HETATM    9  C   UNK N   1      20.830  14.905   9.378  0.00  0.00     0.086 C 
BRANCH   9  10
HETATM   10  C   UNK N   1      21.410  13.538   9.558  0.00  0.00     0.112 C 
HETATM   11  N   UNK N   1      22.527  13.407  10.199  0.00  0.00    -0.360 N 
ATOM     12  HN  UNK N   1      22.956  14.245  10.591  1.00  0.00     0.162 HD
BRANCH  11  13
HETATM   13  C   UNK N   1      23.206  12.135  10.395  0.00  0.00     0.181 C 
BRANCH  13  14
HETATM   14  C   UNK N   1      24.518  12.131   9.617  0.00  0.00     0.046 C 
BRANCH  14  15
HETATM   15  C   UNK N   1      24.983  13.529   9.243  0.00  0.00     0.112 C 
BRANCH  15  16
HETATM   16  C   UNK N   1      24.812  13.717   7.768  0.00  0.00     0.139 C 
HETATM   17  O   UNK N   1      23.867  14.356   7.335  0.00  0.00    -0.650 OA
BRANCH  16  18
HETATM   18  O   UNK N   1      25.701  13.175   6.914  0.00  0.00    -0.776 OA
HETATM   19  H   UNK N   1      25.465  12.566   6.244  0.00  0.00     0.167 HD
ENDBRANCH  16  18
ENDBRANCH  15  16
ENDBRANCH  14  15
ENDBRANCH  13  14
BRANCH  13  20
HETATM   20  C   UNK N   1      23.552  11.870  11.839  0.00  0.00     0.163 C 
HETATM   21  O   UNK N   1      24.699  11.968  12.243  0.00  0.00    -0.648 OA
BRANCH  20  22
HETATM   22  O   UNK N   1      22.575  11.515  12.696  0.00  0.00    -0.775 OA
HETATM   23  H   UNK N   1      22.786  11.165  13.540  0.00  0.00     0.167 HD
ENDBRANCH  20  22
ENDBRANCH  13  20
ENDBRANCH  11  13
BRANCH  10  24
HETATM   24  O   UNK N   1      20.791  12.465   9.019  0.00  0.00    -0.350 OA
HETATM   25  H   UNK N   1      19.889  12.239   9.137  0.00  0.00     0.219 HD
ENDBRANCH  10  24
ENDBRANCH   9  10
ENDBRANCH   8   9
ENDBRANCH   7   8
BRANCH   7  26
HETATM   26  C   UNK N   1      20.261  17.720   7.880  0.00  0.00     0.163 C 
HETATM   27  O   UNK N   1      19.202  17.586   8.472  0.00  0.00    -0.648 OA
BRANCH  26  28
HETATM   28  O   UNK N   1      20.712  18.959   7.601  0.00  0.00    -0.775 OA
HETATM   29  H   UNK N   1      20.806  19.682   8.189  0.00  0.00     0.167 HD
ENDBRANCH  26  28
ENDBRANCH   7  26
ENDBRANCH   5   7
BRANCH   4  30
HETATM   30  O   UNK N   1      23.188  17.696   5.945  0.00  0.00    -0.350 OA
HETATM   31  H   UNK N   1      23.906  18.298   5.920  0.00  0.00     0.219 HD
ENDBRANCH   4  30
ENDBRANCH   3   4
ENDBRANCH   2   3
ENDBRANCH   1   2
BRANCH   1  32
HETATM   32  C   UNK N   1      21.037  20.649   2.861  0.00  0.00     0.163 C 
HETATM   33  O   UNK N   1      20.262  20.882   3.774  0.00  0.00    -0.648 OA
BRANCH  32  34
HETATM   34  O   UNK N   1      21.098  21.488   1.812  0.00  0.00    -0.775 OA
HETATM   35  H   UNK N   1      20.380  21.559   1.214  0.00  0.00     0.167 HD
ENDBRANCH  32  34
ENDBRANCH   1  32
BRANCH   1  36
HETATM   36  N   UNK N   1      23.080  19.715   3.809  0.00  0.00    -0.343 N 
HETATM   37  C   UNK N   1      24.269  20.085   3.288  0.00  0.00     0.252 C 
HETATM   38  O   UNK N   1      24.312  20.820   2.309  0.00  0.00    -0.268 OA
HETATM   39  H   UNK N   1      22.982  19.618   4.784  0.00  0.00     0.163 HD
BRANCH  37  40
HETATM   40  C   UNK N   1      25.448  19.304   3.661  0.00  0.00     0.032 A 
HETATM   41  C   UNK N   1      25.492  17.923   3.406  0.00  0.00     0.019 A 
HETATM   42  C   UNK N   1      26.700  17.227   3.494  0.00  0.00     0.030 A 
HETATM   43  C   UNK N   1      27.870  17.916   3.810  0.00  0.00     0.028 A 
HETATM   44  C   UNK N   1      27.813  19.290   4.079  0.00  0.00     0.030 A 
HETATM   45  C   UNK N   1      26.616  19.980   4.005  0.00  0.00     0.019 A 
BRANCH  43  46
HETATM   46  N   UNK N   1      29.109  17.233   3.850  0.00  0.00    -0.388 N 
HETATM   47  H   UNK N   1      29.655  17.161   3.035  0.00  0.00     0.159 HD
BRANCH  46  48
HETATM   48  C   UNK N   1      29.574  16.643   5.083  0.00  0.00     0.147 C 
BRANCH  48  49
HETATM   49  C   UNK N   1      30.421  17.650   5.871  0.00  0.00     0.128 C 
HETATM   50  C   UNK N   1      29.766  17.854   7.225  0.00  0.00     0.148 C 
HETATM   51  N   UNK N   1      30.076  16.762   8.097  0.00  0.00    -0.372 N 
HETATM   52  C   UNK N   1      31.420  16.368   8.229  0.00  0.00     0.148 A 
HETATM   53  H   UNK N   1      29.364  16.296   8.595  0.00  0.00     0.161 HD
HETATM   54  C   UNK N   1      32.336  16.630   7.184  0.00  0.00     0.133 A 
HETATM   55  N   UNK N   1      31.820  15.770   9.375  0.00  0.00    -0.175 N 
HETATM   56  C   UNK N   1      33.703  16.304   7.450  0.00  0.00     0.186 A 
HETATM   57  N   UNK N   1      31.815  17.190   5.940  0.00  0.00    -0.310 N 
HETATM   58  N   UNK N   1      34.039  15.719   8.627  0.00  0.00    -0.168 N 
HETATM   59  C   UNK N   1      33.114  15.433   9.573  0.00  0.00     0.679 A 
ATOM     60  HN  UNK N   1      35.016  15.488   8.805  1.00  0.00     0.186 HD
HETATM   61  N   UNK N   1      33.468  14.873  10.663  0.00  0.00    -0.234 N 
HETATM   62  H   UNK N   1      32.804  14.660  11.357  0.00  0.00     0.174 HD
ATOM     63  HN  UNK N   1      34.450  14.644  10.817  1.00  0.00     0.174 HD
HETATM   64  H   UNK N   1      31.158  15.578  10.078  0.00  0.00     0.186 HD
BRANCH  56  65
HETATM   65  O   UNK N   1      34.697  16.590   6.600  0.00  0.00    -0.344 OA
HETATM   66  H   UNK N   1      35.329  15.941   6.359  0.00  0.00     0.219 HD
ENDBRANCH  56  65
BRANCH  57  67
HETATM   67  C   UNK N   1      32.470  17.191   4.735  0.00  0.00     0.356 C 
HETATM   68  O   UNK N   1      32.220  17.946   3.817  0.00  0.00    -0.283 OA
ENDBRANCH  57  67
ENDBRANCH  48  49
ENDBRANCH  46  48
ENDBRANCH  43  46
ENDBRANCH  37  40
ENDBRANCH   1  36
TORSDOF 27
ENDMDL
MODEL 3
REMARK VINA RESULT:      -7.8      4.129     10.287
REMARK  27 active torsions:
REMARK  status: ('A' for Active; 'I' for Inactive)
REMARK    1  A    between atoms: C_8  and  C_5 
REMARK    2  A    between atoms: C_17  and  C_5 
REMARK    3  A    between atoms: C_9  and  C_6 
REMARK    4  A    between atoms: C_19  and  C_6 
REMARK    5  A    between atoms: C_10  and  C_7 
REMARK    6  A    between atoms: C_18  and  C_7 
REMARK    7  A    between atoms: C_20  and  C_8 
REMARK    8  A    between atoms: C_21  and  C_9 
REMARK    9  A    between atoms: C_22  and  C_10 
REMARK   10  A    between atoms: C_16  and  C_11 
REMARK   11  A    between atoms: N_33  and  C_11 
REMARK   12  A    between atoms: N_43  and  C_13 
REMARK   13  A    between atoms: C_25  and  C_14 
REMARK   14  A    between atoms: N_33  and  C_15 
REMARK   15  A    between atoms: C_27  and  C_17 
REMARK   16  A    between atoms: C_17  and  N_35 
REMARK   17  A    between atoms: C_28  and  C_18 
REMARK   18  A    between atoms: C_18  and  N_37 
REMARK   19  A    between atoms: C_29  and  C_19 
REMARK   20  A    between atoms: C_19  and  N_39 
REMARK   21  A    between atoms: C_20  and  O_45 
REMARK   22  A    between atoms: C_21  and  O_46 
REMARK   23  A    between atoms: O_48  and  C_22 
REMARK       I    between atoms: N_39  and  C_25 
REMARK   24  A    between atoms: O_50  and  C_26 
REMARK   25  A    between atoms: O_52  and  C_27 
REMARK   26  A    between atoms: O_54  and  C_28 
REMARK   27  A    between atoms: O_56  and  C_29 
REMARK       I    between atoms: N_31  and  C_30 
ROOT
HETATM    1  C   UNK N   1      26.026  17.753   4.832  0.00  0.00     0.183 C 
ENDROOT
BRANCH   1   2
HETATM    2  C   UNK N   1      25.598  16.279   4.941  0.00  0.00     0.044 C 
BRANCH   2   3
HETATM    3  C   UNK N   1      25.686  15.658   6.349  0.00  0.00     0.086 C 
BRANCH   3   4
HETATM    4  C   UNK N   1      24.305  15.222   6.718  0.00  0.00     0.112 C 
HETATM    5  N   UNK N   1      23.309  15.939   6.315  0.00  0.00    -0.360 N 
ATOM      6  HN  UNK N   1      23.514  16.682   5.646  1.00  0.00     0.162 HD
BRANCH   5   7
HETATM    7  C   UNK N   1      21.925  15.785   6.728  0.00  0.00     0.181 C 
BRANCH   7   8
HETATM    8  C   UNK N   1      21.174  14.892   5.730  0.00  0.00     0.044 C 
BRANCH   8   9
HETATM    9  C   UNK N   1      21.652  15.110   4.290  0.00  0.00     0.086 C 
BRANCH   9  10
HETATM   10  C   UNK N   1      20.620  15.713   3.391  0.00  0.00     0.112 C 
HETATM   11  N   UNK N   1      20.757  16.941   3.009  0.00  0.00    -0.360 N 
ATOM     12  HN  UNK N   1      21.589  17.447   3.310  1.00  0.00     0.162 HD
BRANCH  11  13
HETATM   13  C   UNK N   1      19.793  17.645   2.174  0.00  0.00     0.181 C 
BRANCH  13  14
HETATM   14  C   UNK N   1      19.916  19.147   2.408  0.00  0.00     0.046 C 
BRANCH  14  15
HETATM   15  C   UNK N   1      21.237  19.535   3.053  0.00  0.00     0.112 C 
BRANCH  15  16
HETATM   16  C   UNK N   1      21.840  20.665   2.278  0.00  0.00     0.139 C 
HETATM   17  O   UNK N   1      22.472  21.537   2.853  0.00  0.00    -0.650 OA
BRANCH  16  18
HETATM   18  O   UNK N   1      21.683  20.723   0.943  0.00  0.00    -0.776 OA
HETATM   19  H   UNK N   1      20.848  20.684   0.521  0.00  0.00     0.167 HD
ENDBRANCH  16  18
ENDBRANCH  15  16
ENDBRANCH  14  15
ENDBRANCH  13  14
BRANCH  13  20
HETATM   20  C   UNK N   1      20.012  17.410   0.700  0.00  0.00     0.163 C 
HETATM   21  O   UNK N   1      19.847  16.307   0.205  0.00  0.00    -0.648 OA
BRANCH  20  22
HETATM   22  O   UNK N   1      20.399  18.437  -0.081  0.00  0.00    -0.775 OA
HETATM   23  H   UNK N   1      20.045  18.540  -0.943  0.00  0.00     0.167 HD
ENDBRANCH  20  22
ENDBRANCH  13  20
ENDBRANCH  11  13
BRANCH  10  24
HETATM   24  O   UNK N   1      19.540  14.989   3.022  0.00  0.00    -0.350 OA
HETATM   25  H   UNK N   1      19.427  14.069   3.159  0.00  0.00     0.219 HD
ENDBRANCH  10  24
ENDBRANCH   9  10
ENDBRANCH   8   9
ENDBRANCH   7   8
BRANCH   7  26
HETATM   26  C   UNK N   1      21.196  17.092   6.926  0.00  0.00     0.163 C 
HETATM   27  O   UNK N   1      21.182  17.944   6.053  0.00  0.00    -0.648 OA
BRANCH  26  28
HETATM   28  O   UNK N   1      20.576  17.332   8.098  0.00  0.00    -0.775 OA
HETATM   29  H   UNK N   1      20.967  17.541   8.923  0.00  0.00     0.167 HD
ENDBRANCH  26  28
ENDBRANCH   7  26
ENDBRANCH   5   7
BRANCH   4  30
HETATM   30  O   UNK N   1      24.123  14.166   7.541  0.00  0.00    -0.350 OA
HETATM   31  H   UNK N   1      23.806  13.805   8.345  0.00  0.00     0.219 HD
ENDBRANCH   4  30
ENDBRANCH   3   4
ENDBRANCH   2   3
ENDBRANCH   1   2
BRANCH   1  32
HETATM   32  C   UNK N   1      24.875  18.654   4.501  0.00  0.00     0.163 C 
HETATM   33  O   UNK N   1      24.866  19.261   3.442  0.00  0.00    -0.648 OA
BRANCH  32  34
HETATM   34  O   UNK N   1      23.827  18.765   5.338  0.00  0.00    -0.775 OA
HETATM   35  H   UNK N   1      23.386  18.001   5.654  0.00  0.00     0.167 HD
ENDBRANCH  32  34
ENDBRANCH   1  32
BRANCH   1  36
HETATM   36  N   UNK N   1      26.683  18.150   6.056  0.00  0.00    -0.343 N 
HETATM   37  C   UNK N   1      27.936  18.649   6.028  0.00  0.00     0.252 C 
HETATM   38  O   UNK N   1      28.293  19.369   5.104  0.00  0.00    -0.268 OA
HETATM   39  H   UNK N   1      26.212  18.056   6.917  0.00  0.00     0.163 HD
BRANCH  37  40
HETATM   40  C   UNK N   1      28.940  18.018   6.885  0.00  0.00     0.032 A 
HETATM   41  C   UNK N   1      29.857  17.102   6.344  0.00  0.00     0.019 A 
HETATM   42  C   UNK N   1      30.983  16.714   7.075  0.00  0.00     0.030 A 
HETATM   43  C   UNK N   1      31.205  17.262   8.338  0.00  0.00     0.028 A 
HETATM   44  C   UNK N   1      30.276  18.163   8.875  0.00  0.00     0.030 A 
HETATM   45  C   UNK N   1      29.154  18.540   8.158  0.00  0.00     0.019 A 
BRANCH  43  46
HETATM   46  N   UNK N   1      32.369  16.918   9.067  0.00  0.00    -0.388 N 
HETATM   47  H   UNK N   1      32.923  17.626   9.469  0.00  0.00     0.159 HD
BRANCH  46  48
HETATM   48  C   UNK N   1      32.745  15.534   9.224  0.00  0.00     0.147 C 
BRANCH  48  49
HETATM   49  C   UNK N   1      34.261  15.370   9.059  0.00  0.00     0.128 C 
HETATM   50  C   UNK N   1      34.936  16.558   9.723  0.00  0.00     0.148 C 
HETATM   51  N   UNK N   1      34.972  16.379  11.143  0.00  0.00    -0.372 N 
HETATM   52  C   UNK N   1      35.454  15.160  11.654  0.00  0.00     0.148 A 
HETATM   53  H   UNK N   1      34.667  17.094  11.749  0.00  0.00     0.161 HD
HETATM   54  C   UNK N   1      35.384  13.989  10.865  0.00  0.00     0.133 A 
HETATM   55  N   UNK N   1      36.009  15.139  12.888  0.00  0.00    -0.175 N 
HETATM   56  C   UNK N   1      36.003  12.823  11.415  0.00  0.00     0.186 A 
HETATM   57  N   UNK N   1      34.686  14.065   9.584  0.00  0.00    -0.310 N 
HETATM   58  N   UNK N   1      36.555  12.874  12.654  0.00  0.00    -0.168 N 
HETATM   59  C   UNK N   1      36.543  14.006  13.395  0.00  0.00     0.679 A 
ATOM     60  HN  UNK N   1      36.991  12.035  13.036  1.00  0.00     0.186 HD
HETATM   61  N   UNK N   1      37.063  14.011  14.560  0.00  0.00    -0.234 N 
HETATM   62  H   UNK N   1      37.059  14.828  15.109  0.00  0.00     0.174 HD
ATOM     63  HN  UNK N   1      37.488  13.159  14.927  1.00  0.00     0.174 HD
HETATM   64  H   UNK N   1      36.024  15.963  13.427  0.00  0.00     0.186 HD
BRANCH  56  65
HETATM   65  O   UNK N   1      36.109  11.670  10.742  0.00  0.00    -0.344 OA
HETATM   66  H   UNK N   1      36.418  10.891  11.163  0.00  0.00     0.219 HD
ENDBRANCH  56  65
BRANCH  57  67
HETATM   67  C   UNK N   1      34.232  12.992   8.863  0.00  0.00     0.356 C 
HETATM   68  O   UNK N   1      33.481  12.140   9.294  0.00  0.00    -0.283 OA
ENDBRANCH  57  67
ENDBRANCH  48  49
ENDBRANCH  46  48
ENDBRANCH  43  46
ENDBRANCH  37  40
ENDBRANCH   1  36
TORSDOF 27
ENDMDL
MODEL 4
REMARK VINA RESULT:      -7.7      2.494      7.889
REMARK  27 active torsions:
REMARK  status: ('A' for Active; 'I' for Inactive)
REMARK    1  A    between atoms: C_8  and  C_5 
REMARK    2  A    between atoms: C_17  and  C_5 
REMARK    3  A    between atoms: C_9  and  C_6 
REMARK    4  A    between atoms: C_19  and  C_6 
REMARK    5  A    between atoms: C_10  and  C_7 
REMARK    6  A    between atoms: C_18  and  C_7 
REMARK    7  A    between atoms: C_20  and  C_8 
REMARK    8  A    between atoms: C_21  and  C_9 
REMARK    9  A    between atoms: C_22  and  C_10 
REMARK   10  A    between atoms: C_16  and  C_11 
REMARK   11  A    between atoms: N_33  and  C_11 
REMARK   12  A    between atoms: N_43  and  C_13 
REMARK   13  A    between atoms: C_25  and  C_14 
REMARK   14  A    between atoms: N_33  and  C_15 
REMARK   15  A    between atoms: C_27  and  C_17 
REMARK   16  A    between atoms: C_17  and  N_35 
REMARK   17  A    between atoms: C_28  and  C_18 
REMARK   18  A    between atoms: C_18  and  N_37 
REMARK   19  A    between atoms: C_29  and  C_19 
REMARK   20  A    between atoms: C_19  and  N_39 
REMARK   21  A    between atoms: C_20  and  O_45 
REMARK   22  A    between atoms: C_21  and  O_46 
REMARK   23  A    between atoms: O_48  and  C_22 
REMARK       I    between atoms: N_39  and  C_25 
REMARK   24  A    between atoms: O_50  and  C_26 
REMARK   25  A    between atoms: O_52  and  C_27 
REMARK   26  A    between atoms: O_54  and  C_28 
REMARK   27  A    between atoms: O_56  and  C_29 
REMARK       I    between atoms: N_31  and  C_30 
ROOT
HETATM    1  C   UNK N   1      23.000  12.152  10.191  0.00  0.00     0.183 C 
ENDROOT
BRANCH   1   2
HETATM    2  C   UNK N   1      23.964  11.723   9.072  0.00  0.00     0.044 C 
BRANCH   2   3
HETATM    3  C   UNK N   1      24.558  12.864   8.224  0.00  0.00     0.086 C 
BRANCH   3   4
HETATM    4  C   UNK N   1      24.518  12.413   6.800  0.00  0.00     0.112 C 
HETATM    5  N   UNK N   1      25.261  13.028   5.942  0.00  0.00    -0.360 N 
ATOM      6  HN  UNK N   1      25.942  13.693   6.310  1.00  0.00     0.162 HD
BRANCH   5   7
HETATM    7  C   UNK N   1      25.217  12.860   4.499  0.00  0.00     0.181 C 
BRANCH   7   8
HETATM    8  C   UNK N   1      26.629  12.992   3.909  0.00  0.00     0.044 C 
BRANCH   8   9
HETATM    9  C   UNK N   1      27.645  13.474   4.951  0.00  0.00     0.086 C 
BRANCH   9  10
HETATM   10  C   UNK N   1      28.064  14.899   4.777  0.00  0.00     0.112 C 
HETATM   11  N   UNK N   1      29.079  15.344   5.446  0.00  0.00    -0.360 N 
ATOM     12  HN  UNK N   1      29.581  14.691   6.046  1.00  0.00     0.162 HD
BRANCH  11  13
HETATM   13  C   UNK N   1      29.547  16.722   5.392  0.00  0.00     0.181 C 
BRANCH  13  14
HETATM   14  C   UNK N   1      30.255  17.072   6.697  0.00  0.00     0.046 C 
BRANCH  14  15
HETATM   15  C   UNK N   1      29.287  17.424   7.815  0.00  0.00     0.112 C 
BRANCH  15  16
HETATM   16  C   UNK N   1      28.059  18.034   7.216  0.00  0.00     0.139 C 
HETATM   17  O   UNK N   1      28.054  19.211   6.890  0.00  0.00    -0.650 OA
BRANCH  16  18
HETATM   18  O   UNK N   1      26.954  17.286   7.039  0.00  0.00    -0.776 OA
HETATM   19  H   UNK N   1      26.836  16.706   6.313  0.00  0.00     0.167 HD
ENDBRANCH  16  18
ENDBRANCH  15  16
ENDBRANCH  14  15
ENDBRANCH  13  14
BRANCH  13  20
HETATM   20  C   UNK N   1      30.535  16.962   4.277  0.00  0.00     0.163 C 
HETATM   21  O   UNK N   1      31.734  17.021   4.498  0.00  0.00    -0.648 OA
BRANCH  20  22
HETATM   22  O   UNK N   1      30.083  17.119   3.018  0.00  0.00    -0.775 OA
HETATM   23  H   UNK N   1      29.173  17.273   2.854  0.00  0.00     0.167 HD
ENDBRANCH  20  22
ENDBRANCH  13  20
ENDBRANCH  11  13
BRANCH  10  24
HETATM   24  O   UNK N   1      27.360  15.715   3.962  0.00  0.00    -0.350 OA
HETATM   25  H   UNK N   1      27.558  16.614   3.785  0.00  0.00     0.219 HD
ENDBRANCH  10  24
ENDBRANCH   9  10
ENDBRANCH   8   9
ENDBRANCH   7   8
BRANCH   7  26
HETATM   26  C   UNK N   1      24.260  13.797   3.803  0.00  0.00     0.163 C 
HETATM   27  O   UNK N   1      23.968  14.877   4.291  0.00  0.00    -0.648 OA
BRANCH  26  28
HETATM   28  O   UNK N   1      23.696  13.422   2.638  0.00  0.00    -0.775 OA
HETATM   29  H   UNK N   1      23.728  12.580   2.230  0.00  0.00     0.167 HD
ENDBRANCH  26  28
ENDBRANCH   7  26
ENDBRANCH   5   7
BRANCH   4  30
HETATM   30  O   UNK N   1      23.644  11.457   6.415  0.00  0.00    -0.350 OA
HETATM   31  H   UNK N   1      23.029  11.116   5.796  0.00  0.00     0.219 HD
ENDBRANCH   4  30
ENDBRANCH   3   4
ENDBRANCH   2   3
ENDBRANCH   1   2
BRANCH   1  32
HETATM   32  C   UNK N   1      23.652  12.125  11.542  0.00  0.00     0.163 C 
HETATM   33  O   UNK N   1      22.977  11.908  12.535  0.00  0.00    -0.648 OA
BRANCH  32  34
HETATM   34  O   UNK N   1      24.981  12.289  11.665  0.00  0.00    -0.775 OA
HETATM   35  H   UNK N   1      25.387  13.100  11.431  0.00  0.00     0.167 HD
ENDBRANCH  32  34
ENDBRANCH   1  32
BRANCH   1  36
HETATM   36  N   UNK N   1      22.461  13.456   9.882  0.00  0.00    -0.343 N 
HETATM   37  C   UNK N   1      21.130  13.632   9.752  0.00  0.00     0.252 C 
HETATM   38  O   UNK N   1      20.353  13.012  10.468  0.00  0.00    -0.268 OA
HETATM   39  H   UNK N   1      23.070  14.222   9.766  0.00  0.00     0.163 HD
BRANCH  37  40
HETATM   40  C   UNK N   1      20.642  14.256   8.523  0.00  0.00     0.032 A 
HETATM   41  C   UNK N   1      20.026  15.518   8.567  0.00  0.00     0.019 A 
HETATM   42  C   UNK N   1      19.815  16.243   7.391  0.00  0.00     0.030 A 
HETATM   43  C   UNK N   1      20.246  15.717   6.173  0.00  0.00     0.028 A 
HETATM   44  C   UNK N   1      20.845  14.452   6.138  0.00  0.00     0.030 A 
HETATM   45  C   UNK N   1      21.044  13.726   7.299  0.00  0.00     0.019 A 
BRANCH  43  46
HETATM   46  N   UNK N   1      20.086  16.464   4.981  0.00  0.00    -0.388 N 
HETATM   47  H   UNK N   1      19.184  16.637   4.627  0.00  0.00     0.159 HD
BRANCH  46  48
HETATM   48  C   UNK N   1      21.242  16.976   4.284  0.00  0.00     0.147 C 
BRANCH  48  49
HETATM   49  C   UNK N   1      21.750  18.256   4.959  0.00  0.00     0.128 C 
HETATM   50  C   UNK N   1      22.694  17.853   6.078  0.00  0.00     0.148 C 
HETATM   51  N   UNK N   1      23.978  17.508   5.545  0.00  0.00    -0.372 N 
HETATM   52  C   UNK N   1      24.593  18.397   4.646  0.00  0.00     0.148 A 
HETATM   53  H   UNK N   1      24.420  16.665   5.803  0.00  0.00     0.161 HD
HETATM   54  C   UNK N   1      23.802  19.284   3.879  0.00  0.00     0.133 A 
HETATM   55  N   UNK N   1      25.944  18.410   4.555  0.00  0.00    -0.175 N 
HETATM   56  C   UNK N   1      24.515  20.233   3.082  0.00  0.00     0.186 A 
HETATM   57  N   UNK N   1      22.350  19.149   3.957  0.00  0.00    -0.310 N 
HETATM   58  N   UNK N   1      25.871  20.200   3.047  0.00  0.00    -0.168 N 
HETATM   59  C   UNK N   1      26.582  19.291   3.754  0.00  0.00     0.679 A 
ATOM     60  HN  UNK N   1      26.368  20.880   2.473  1.00  0.00     0.186 HD
HETATM   61  N   UNK N   1      27.856  19.285   3.687  0.00  0.00    -0.234 N 
HETATM   62  H   UNK N   1      28.384  18.629   4.196  0.00  0.00     0.174 HD
ATOM     63  HN  UNK N   1      28.334  19.970   3.100  1.00  0.00     0.174 HD
HETATM   64  H   UNK N   1      26.470  17.766   5.083  0.00  0.00     0.186 HD
BRANCH  56  65
HETATM   65  O   UNK N   1      23.905  21.201   2.385  0.00  0.00    -0.344 OA
HETATM   66  H   UNK N   1      23.259  21.750   2.785  0.00  0.00     0.219 HD
ENDBRANCH  56  65
BRANCH  57  67
HETATM   67  C   UNK N   1      21.455  19.670   3.058  0.00  0.00     0.356 C 
HETATM   68  O   UNK N   1      21.092  20.829   3.041  0.00  0.00    -0.283 OA
ENDBRANCH  57  67
ENDBRANCH  48  49
ENDBRANCH  46  48
ENDBRANCH  43  46
ENDBRANCH  37  40
ENDBRANCH   1  36
TORSDOF 27
ENDMDL
MODEL 5
REMARK VINA RESULT:      -7.4      3.422      7.736
REMARK  27 active torsions:
REMARK  status: ('A' for Active; 'I' for Inactive)
REMARK    1  A    between atoms: C_8  and  C_5 
REMARK    2  A    between atoms: C_17  and  C_5 
REMARK    3  A    between atoms: C_9  and  C_6 
REMARK    4  A    between atoms: C_19  and  C_6 
REMARK    5  A    between atoms: C_10  and  C_7 
REMARK    6  A    between atoms: C_18  and  C_7 
REMARK    7  A    between atoms: C_20  and  C_8 
REMARK    8  A    between atoms: C_21  and  C_9 
REMARK    9  A    between atoms: C_22  and  C_10 
REMARK   10  A    between atoms: C_16  and  C_11 
REMARK   11  A    between atoms: N_33  and  C_11 
REMARK   12  A    between atoms: N_43  and  C_13 
REMARK   13  A    between atoms: C_25  and  C_14 
REMARK   14  A    between atoms: N_33  and  C_15 
REMARK   15  A    between atoms: C_27  and  C_17 
REMARK   16  A    between atoms: C_17  and  N_35 
REMARK   17  A    between atoms: C_28  and  C_18 
REMARK   18  A    between atoms: C_18  and  N_37 
REMARK   19  A    between atoms: C_29  and  C_19 
REMARK   20  A    between atoms: C_19  and  N_39 
REMARK   21  A    between atoms: C_20  and  O_45 
REMARK   22  A    between atoms: C_21  and  O_46 
REMARK   23  A    between atoms: O_48  and  C_22 
REMARK       I    between atoms: N_39  and  C_25 
REMARK   24  A    between atoms: O_50  and  C_26 
REMARK   25  A    between atoms: O_52  and  C_27 
REMARK   26  A    between atoms: O_54  and  C_28 
REMARK   27  A    between atoms: O_56  and  C_29 
REMARK       I    between atoms: N_31  and  C_30 
ROOT
HETATM    1  C   UNK N   1      21.675  19.486   2.428  0.00  0.00     0.183 C 
ENDROOT
BRANCH   1   2
HETATM    2  C   UNK N   1      20.813  18.214   2.503  0.00  0.00     0.044 C 
BRANCH   2   3
HETATM    3  C   UNK N   1      20.256  17.701   1.160  0.00  0.00     0.086 C 
BRANCH   3   4
HETATM    4  C   UNK N   1      19.931  16.255   1.350  0.00  0.00     0.112 C 
HETATM    5  N   UNK N   1      20.691  15.553   2.123  0.00  0.00    -0.360 N 
ATOM      6  HN  UNK N   1      21.384  16.059   2.675  1.00  0.00     0.162 HD
BRANCH   5   7
HETATM    7  C   UNK N   1      20.648  14.109   2.279  0.00  0.00     0.181 C 
BRANCH   7   8
HETATM    8  C   UNK N   1      20.496  13.744   3.763  0.00  0.00     0.044 C 
BRANCH   8   9
HETATM    9  C   UNK N   1      19.115  14.123   4.309  0.00  0.00     0.086 C 
BRANCH   9  10
HETATM   10  C   UNK N   1      19.129  15.301   5.231  0.00  0.00     0.112 C 
HETATM   11  N   UNK N   1      20.264  15.770   5.639  0.00  0.00    -0.360 N 
ATOM     12  HN  UNK N   1      21.116  15.336   5.285  1.00  0.00     0.162 HD
BRANCH  11  13
HETATM   13  C   UNK N   1      20.397  16.880   6.571  0.00  0.00     0.181 C 
BRANCH  13  14
HETATM   14  C   UNK N   1      20.812  16.350   7.940  0.00  0.00     0.046 C 
BRANCH  14  15
HETATM   15  C   UNK N   1      19.656  16.300   8.926  0.00  0.00     0.112 C 
BRANCH  15  16
HETATM   16  C   UNK N   1      19.121  17.685   9.114  0.00  0.00     0.139 C 
HETATM   17  O   UNK N   1      19.883  18.614   9.331  0.00  0.00    -0.650 OA
BRANCH  16  18
HETATM   18  O   UNK N   1      17.795  17.909   9.048  0.00  0.00    -0.776 OA
HETATM   19  H   UNK N   1      17.345  18.103   8.250  0.00  0.00     0.167 HD
ENDBRANCH  16  18
ENDBRANCH  15  16
ENDBRANCH  14  15
ENDBRANCH  13  14
BRANCH  13  20
HETATM   20  C   UNK N   1      21.447  17.878   6.150  0.00  0.00     0.163 C 
HETATM   21  O   UNK N   1      21.165  19.051   5.965  0.00  0.00    -0.648 OA
BRANCH  20  22
HETATM   22  O   UNK N   1      22.716  17.464   5.971  0.00  0.00    -0.775 OA
HETATM   23  H   UNK N   1      23.429  17.934   6.359  0.00  0.00     0.167 HD
ENDBRANCH  20  22
ENDBRANCH  13  20
ENDBRANCH  11  13
BRANCH  10  24
HETATM   24  O   UNK N   1      17.964  15.835   5.661  0.00  0.00    -0.350 OA
HETATM   25  H   UNK N   1      17.772  16.090   6.542  0.00  0.00     0.219 HD
ENDBRANCH  10  24
ENDBRANCH   9  10
ENDBRANCH   8   9
ENDBRANCH   7   8
BRANCH   7  26
HETATM   26  C   UNK N   1      21.831  13.393   1.673  0.00  0.00     0.163 C 
HETATM   27  O   UNK N   1      22.260  13.702   0.573  0.00  0.00    -0.648 OA
BRANCH  26  28
HETATM   28  O   UNK N   1      22.405  12.377   2.347  0.00  0.00    -0.775 OA
HETATM   29  H   UNK N   1      23.251  12.001   2.209  0.00  0.00     0.167 HD
ENDBRANCH  26  28
ENDBRANCH   7  26
ENDBRANCH   5   7
BRANCH   4  30
HETATM   30  O   UNK N   1      18.932  15.685   0.640  0.00  0.00    -0.350 OA
HETATM   31  H   UNK N   1      18.639  15.148  -0.069  0.00  0.00     0.219 HD
ENDBRANCH   4  30
ENDBRANCH   3   4
ENDBRANCH   2   3
ENDBRANCH   1   2
BRANCH   1  32
HETATM   32  C   UNK N   1      20.861  20.733   2.605  0.00  0.00     0.163 C 
HETATM   33  O   UNK N   1      20.682  21.479   1.656  0.00  0.00    -0.648 OA
BRANCH  32  34
HETATM   34  O   UNK N   1      20.285  21.014   3.788  0.00  0.00    -0.775 OA
HETATM   35  H   UNK N   1      19.797  21.805   3.906  0.00  0.00     0.167 HD
ENDBRANCH  32  34
ENDBRANCH   1  32
BRANCH   1  36
HETATM   36  N   UNK N   1      22.740  19.398   3.400  0.00  0.00    -0.343 N 
HETATM   37  C   UNK N   1      23.817  20.206   3.308  0.00  0.00     0.252 C 
HETATM   38  O   UNK N   1      23.691  21.361   2.923  0.00  0.00    -0.268 OA
HETATM   39  H   UNK N   1      22.679  18.745   4.135  0.00  0.00     0.163 HD
BRANCH  37  40
HETATM   40  C   UNK N   1      25.139  19.580   3.303  0.00  0.00     0.032 A 
HETATM   41  C   UNK N   1      26.273  20.319   3.680  0.00  0.00     0.019 A 
HETATM   42  C   UNK N   1      27.480  19.671   3.950  0.00  0.00     0.030 A 
HETATM   43  C   UNK N   1      27.547  18.280   3.870  0.00  0.00     0.028 A 
HETATM   44  C   UNK N   1      26.416  17.554   3.478  0.00  0.00     0.030 A 
HETATM   45  C   UNK N   1      25.221  18.194   3.197  0.00  0.00     0.019 A 
BRANCH  43  46
HETATM   46  N   UNK N   1      28.750  17.606   4.192  0.00  0.00    -0.388 N 
HETATM   47  H   UNK N   1      29.121  16.940   3.570  0.00  0.00     0.159 HD
BRANCH  46  48
HETATM   48  C   UNK N   1      29.435  17.895   5.430  0.00  0.00     0.147 C 
BRANCH  48  49
HETATM   49  C   UNK N   1      29.289  16.723   6.407  0.00  0.00     0.128 C 
HETATM   50  C   UNK N   1      28.412  17.181   7.560  0.00  0.00     0.148 C 
HETATM   51  N   UNK N   1      27.033  17.159   7.174  0.00  0.00    -0.372 N 
HETATM   52  C   UNK N   1      26.523  15.997   6.568  0.00  0.00     0.148 A 
HETATM   53  H   UNK N   1      26.454  17.941   7.330  0.00  0.00     0.161 HD
HETATM   54  C   UNK N   1      27.393  15.124   5.874  0.00  0.00     0.133 A 
HETATM   55  N   UNK N   1      25.205  15.717   6.691  0.00  0.00    -0.175 N 
HETATM   56  C   UNK N   1      26.813  13.909   5.393  0.00  0.00     0.186 A 
HETATM   57  N   UNK N   1      28.783  15.538   5.700  0.00  0.00    -0.310 N 
HETATM   58  N   UNK N   1      25.485  13.684   5.561  0.00  0.00    -0.168 N 
HETATM   59  C   UNK N   1      24.682  14.579   6.181  0.00  0.00     0.679 A 
ATOM     60  HN  UNK N   1      25.082  12.815   5.212  1.00  0.00     0.186 HD
HETATM   61  N   UNK N   1      23.436  14.336   6.311  0.00  0.00    -0.234 N 
HETATM   62  H   UNK N   1      22.842  14.979   6.759  0.00  0.00     0.174 HD
ATOM     63  HN  UNK N   1      23.052  13.464   5.947  1.00  0.00     0.174 HD
HETATM   64  H   UNK N   1      24.616  16.352   7.159  0.00  0.00     0.186 HD
BRANCH  56  65
HETATM   65  O   UNK N   1      27.532  12.941   4.810  0.00  0.00    -0.344 OA
HETATM   66  H   UNK N   1      27.117  12.184   4.446  0.00  0.00     0.219 HD
ENDBRANCH  56  65
BRANCH  57  67
HETATM   67  C   UNK N   1      29.662  15.006   4.792  0.00  0.00     0.356 C 
HETATM   68  O   UNK N   1      29.423  14.855   3.610  0.00  0.00    -0.283 OA
ENDBRANCH  57  67
ENDBRANCH  48  49
ENDBRANCH  46  48
ENDBRANCH  43  46
ENDBRANCH  37  40
ENDBRANCH   1  36
TORSDOF 27
ENDMDL
MODEL 6
REMARK VINA RESULT:      -7.4      2.887      7.797
REMARK  27 active torsions:
REMARK  status: ('A' for Active; 'I' for Inactive)
REMARK    1  A    between atoms: C_8  and  C_5 
REMARK    2  A    between atoms: C_17  and  C_5 
REMARK    3  A    between atoms: C_9  and  C_6 
REMARK    4  A    between atoms: C_19  and  C_6 
REMARK    5  A    between atoms: C_10  and  C_7 
REMARK    6  A    between atoms: C_18  and  C_7 
REMARK    7  A    between atoms: C_20  and  C_8 
REMARK    8  A    between atoms: C_21  and  C_9 
REMARK    9  A    between atoms: C_22  and  C_10 
REMARK   10  A    between atoms: C_16  and  C_11 
REMARK   11  A    between atoms: N_33  and  C_11 
REMARK   12  A    between atoms: N_43  and  C_13 
REMARK   13  A    between atoms: C_25  and  C_14 
REMARK   14  A    between atoms: N_33  and  C_15 
REMARK   15  A    between atoms: C_27  and  C_17 
REMARK   16  A    between atoms: C_17  and  N_35 
REMARK   17  A    between atoms: C_28  and  C_18 
REMARK   18  A    between atoms: C_18  and  N_37 
REMARK   19  A    between atoms: C_29  and  C_19 
REMARK   20  A    between atoms: C_19  and  N_39 
REMARK   21  A    between atoms: C_20  and  O_45 
REMARK   22  A    between atoms: C_21  and  O_46 
REMARK   23  A    between atoms: O_48  and  C_22 
REMARK       I    between atoms: N_39  and  C_25 
REMARK   24  A    between atoms: O_50  and  C_26 
REMARK   25  A    between atoms: O_52  and  C_27 
REMARK   26  A    between atoms: O_54  and  C_28 
REMARK   27  A    between atoms: O_56  and  C_29 
REMARK       I    between atoms: N_31  and  C_30 
ROOT
HETATM    1  C   UNK N   1      22.896  19.507   3.015  0.00  0.00     0.183 C 
ENDROOT
BRANCH   1   2
HETATM    2  C   UNK N   1      22.387  18.311   3.838  0.00  0.00     0.044 C 
BRANCH   2   3
HETATM    3  C   UNK N   1      23.020  18.139   5.233  0.00  0.00     0.086 C 
BRANCH   3   4
HETATM    4  C   UNK N   1      23.167  16.671   5.464  0.00  0.00     0.112 C 
HETATM    5  N   UNK N   1      24.199  16.073   4.968  0.00  0.00    -0.360 N 
ATOM      6  HN  UNK N   1      24.930  16.664   4.570  1.00  0.00     0.162 HD
BRANCH   5   7
HETATM    7  C   UNK N   1      24.415  14.637   4.924  0.00  0.00     0.181 C 
BRANCH   7   8
HETATM    8  C   UNK N   1      25.628  14.260   5.787  0.00  0.00     0.044 C 
BRANCH   8   9
HETATM    9  C   UNK N   1      25.336  14.405   7.285  0.00  0.00     0.086 C 
BRANCH   9  10
HETATM   10  C   UNK N   1      24.265  13.491   7.787  0.00  0.00     0.112 C 
HETATM   11  N   UNK N   1      23.152  13.996   8.213  0.00  0.00    -0.360 N 
ATOM     12  HN  UNK N   1      23.033  15.007   8.157  1.00  0.00     0.162 HD
BRANCH  11  13
HETATM   13  C   UNK N   1      22.060  13.208   8.765  0.00  0.00     0.181 C 
BRANCH  13  14
HETATM   14  C   UNK N   1      22.101  13.275  10.289  0.00  0.00     0.046 C 
BRANCH  14  15
HETATM   15  C   UNK N   1      22.462  11.944  10.927  0.00  0.00     0.112 C 
BRANCH  15  16
HETATM   16  C   UNK N   1      23.831  12.048  11.521  0.00  0.00     0.139 C 
HETATM   17  O   UNK N   1      24.818  12.009  10.802  0.00  0.00    -0.650 OA
BRANCH  16  18
HETATM   18  O   UNK N   1      23.978  12.180  12.852  0.00  0.00    -0.776 OA
HETATM   19  H   UNK N   1      24.762  11.947  13.309  0.00  0.00     0.167 HD
ENDBRANCH  16  18
ENDBRANCH  15  16
ENDBRANCH  14  15
ENDBRANCH  13  14
BRANCH  13  20
HETATM   20  C   UNK N   1      20.701  13.707   8.340  0.00  0.00     0.163 C 
HETATM   21  O   UNK N   1      19.889  14.102   9.160  0.00  0.00    -0.648 OA
BRANCH  20  22
HETATM   22  O   UNK N   1      20.381  13.713   7.032  0.00  0.00    -0.775 OA
HETATM   23  H   UNK N   1      19.676  13.184   6.711  0.00  0.00     0.167 HD
ENDBRANCH  20  22
ENDBRANCH  13  20
ENDBRANCH  11  13
BRANCH  10  24
HETATM   24  O   UNK N   1      24.481  12.158   7.831  0.00  0.00    -0.350 OA
HETATM   25  H   UNK N   1      24.137  11.569   8.473  0.00  0.00     0.219 HD
ENDBRANCH  10  24
ENDBRANCH   9  10
ENDBRANCH   8   9
ENDBRANCH   7   8
BRANCH   7  26
HETATM   26  C   UNK N   1      24.561  14.082   3.529  0.00  0.00     0.163 C 
HETATM   27  O   UNK N   1      24.146  12.970   3.245  0.00  0.00    -0.648 OA
BRANCH  26  28
HETATM   28  O   UNK N   1      25.187  14.816   2.587  0.00  0.00    -0.775 OA
HETATM   29  H   UNK N   1      26.107  14.966   2.493  0.00  0.00     0.167 HD
ENDBRANCH  26  28
ENDBRANCH   7  26
ENDBRANCH   5   7
BRANCH   4  30
HETATM   30  O   UNK N   1      22.185  15.979   6.084  0.00  0.00    -0.350 OA
HETATM   31  H   UNK N   1      21.863  15.512   6.829  0.00  0.00     0.219 HD
ENDBRANCH   4  30
ENDBRANCH   3   4
ENDBRANCH   2   3
ENDBRANCH   1   2
BRANCH   1  32
HETATM   32  C   UNK N   1      21.777  20.388   2.544  0.00  0.00     0.163 C 
HETATM   33  O   UNK N   1      20.775  19.888   2.060  0.00  0.00    -0.648 OA
BRANCH  32  34
HETATM   34  O   UNK N   1      21.846  21.723   2.694  0.00  0.00    -0.775 OA
HETATM   35  H   UNK N   1      21.076  22.252   2.623  0.00  0.00     0.167 HD
ENDBRANCH  32  34
ENDBRANCH   1  32
BRANCH   1  36
HETATM   36  N   UNK N   1      23.866  20.243   3.793  0.00  0.00    -0.343 N 
HETATM   37  C   UNK N   1      25.130  20.389   3.345  0.00  0.00     0.252 C 
HETATM   38  O   UNK N   1      25.349  20.536   2.149  0.00  0.00    -0.268 OA
HETATM   39  H   UNK N   1      23.602  20.640   4.655  0.00  0.00     0.163 HD
BRANCH  37  40
HETATM   40  C   UNK N   1      26.219  19.991   4.238  0.00  0.00     0.032 A 
HETATM   41  C   UNK N   1      26.745  20.908   5.164  0.00  0.00     0.019 A 
HETATM   42  C   UNK N   1      27.574  20.469   6.199  0.00  0.00     0.030 A 
HETATM   43  C   UNK N   1      27.855  19.109   6.325  0.00  0.00     0.028 A 
HETATM   44  C   UNK N   1      27.338  18.205   5.388  0.00  0.00     0.030 A 
HETATM   45  C   UNK N   1      26.527  18.638   4.354  0.00  0.00     0.019 A 
BRANCH  43  46
HETATM   46  N   UNK N   1      28.649  18.644   7.401  0.00  0.00    -0.388 N 
HETATM   47  H   UNK N   1      28.840  19.239   8.162  0.00  0.00     0.159 HD
BRANCH  46  48
HETATM   48  C   UNK N   1      29.179  17.301   7.387  0.00  0.00     0.147 C 
BRANCH  48  49
HETATM   49  C   UNK N   1      30.681  17.323   7.079  0.00  0.00     0.128 C 
HETATM   50  C   UNK N   1      31.416  17.675   8.360  0.00  0.00     0.148 C 
HETATM   51  N   UNK N   1      31.507  16.528   9.213  0.00  0.00    -0.372 N 
HETATM   52  C   UNK N   1      31.974  15.319   8.666  0.00  0.00     0.148 A 
HETATM   53  H   UNK N   1      31.248  16.584  10.162  0.00  0.00     0.161 HD
HETATM   54  C   UNK N   1      31.839  15.075   7.280  0.00  0.00     0.133 A 
HETATM   55  N   UNK N   1      32.580  14.421   9.477  0.00  0.00    -0.175 N 
HETATM   56  C   UNK N   1      32.447  13.876   6.790  0.00  0.00     0.186 A 
HETATM   57  N   UNK N   1      31.091  16.044   6.482  0.00  0.00    -0.310 N 
HETATM   58  N   UNK N   1      33.051  13.025   7.657  0.00  0.00    -0.168 N 
HETATM   59  C   UNK N   1      33.102  13.276   8.986  0.00  0.00     0.679 A 
ATOM     60  HN  UNK N   1      33.479  12.173   7.297  1.00  0.00     0.186 HD
HETATM   61  N   UNK N   1      33.670  12.446   9.770  0.00  0.00    -0.234 N 
HETATM   62  H   UNK N   1      33.713  12.617  10.738  0.00  0.00     0.174 HD
ATOM     63  HN  UNK N   1      34.085  11.595   9.390  1.00  0.00     0.174 HD
HETATM   64  H   UNK N   1      32.641  14.605  10.443  0.00  0.00     0.186 HD
BRANCH  56  65
HETATM   65  O   UNK N   1      32.491  13.563   5.489  0.00  0.00    -0.344 OA
HETATM   66  H   UNK N   1      33.279  13.240   5.096  0.00  0.00     0.219 HD
ENDBRANCH  56  65
BRANCH  57  67
HETATM   67  C   UNK N   1      30.576  15.814   5.232  0.00  0.00     0.356 C 
HETATM   68  O   UNK N   1      29.832  14.896   4.951  0.00  0.00    -0.283 OA
ENDBRANCH  57  67
ENDBRANCH  48  49
ENDBRANCH  46  48
ENDBRANCH  43  46
ENDBRANCH  37  40
ENDBRANCH   1  36
TORSDOF 27
ENDMDL
MODEL 7
REMARK VINA RESULT:      -7.4      1.715      2.218
REMARK  27 active torsions:
REMARK  status: ('A' for Active; 'I' for Inactive)
REMARK    1  A    between atoms: C_8  and  C_5 
REMARK    2  A    between atoms: C_17  and  C_5 
REMARK    3  A    between atoms: C_9  and  C_6 
REMARK    4  A    between atoms: C_19  and  C_6 
REMARK    5  A    between atoms: C_10  and  C_7 
REMARK    6  A    between atoms: C_18  and  C_7 
REMARK    7  A    between atoms: C_20  and  C_8 
REMARK    8  A    between atoms: C_21  and  C_9 
REMARK    9  A    between atoms: C_22  and  C_10 
REMARK   10  A    between atoms: C_16  and  C_11 
REMARK   11  A    between atoms: N_33  and  C_11 
REMARK   12  A    between atoms: N_43  and  C_13 
REMARK   13  A    between atoms: C_25  and  C_14 
REMARK   14  A    between atoms: N_33  and  C_15 
REMARK   15  A    between atoms: C_27  and  C_17 
REMARK   16  A    between atoms: C_17  and  N_35 
REMARK   17  A    between atoms: C_28  and  C_18 
REMARK   18  A    between atoms: C_18  and  N_37 
REMARK   19  A    between atoms: C_29  and  C_19 
REMARK   20  A    between atoms: C_19  and  N_39 
REMARK   21  A    between atoms: C_20  and  O_45 
REMARK   22  A    between atoms: C_21  and  O_46 
REMARK   23  A    between atoms: O_48  and  C_22 
REMARK       I    between atoms: N_39  and  C_25 
REMARK   24  A    between atoms: O_50  and  C_26 
REMARK   25  A    between atoms: O_52  and  C_27 
REMARK   26  A    between atoms: O_54  and  C_28 
REMARK   27  A    between atoms: O_56  and  C_29 
REMARK       I    between atoms: N_31  and  C_30 
ROOT
HETATM    1  C   UNK N   1      21.082  20.370   2.108  0.00  0.00     0.183 C 
ENDROOT
BRANCH   1   2
HETATM    2  C   UNK N   1      22.433  20.820   2.689  0.00  0.00     0.044 C 
BRANCH   2   3
HETATM    3  C   UNK N   1      23.246  19.732   3.418  0.00  0.00     0.086 C 
BRANCH   3   4
HETATM    4  C   UNK N   1      24.678  20.156   3.372  0.00  0.00     0.112 C 
HETATM    5  N   UNK N   1      25.436  19.861   4.375  0.00  0.00    -0.360 N 
ATOM      6  HN  UNK N   1      25.050  19.229   5.078  1.00  0.00     0.162 HD
BRANCH   5   7
HETATM    7  C   UNK N   1      26.787  20.347   4.596  0.00  0.00     0.181 C 
BRANCH   7   8
HETATM    8  C   UNK N   1      27.799  19.214   4.367  0.00  0.00     0.044 C 
BRANCH   8   9
HETATM    9  C   UNK N   1      27.184  17.834   4.622  0.00  0.00     0.086 C 
BRANCH   9  10
HETATM   10  C   UNK N   1      27.689  17.162   5.859  0.00  0.00     0.112 C 
HETATM   11  N   UNK N   1      28.579  17.761   6.584  0.00  0.00    -0.360 N 
ATOM     12  HN  UNK N   1      28.880  18.693   6.300  1.00  0.00     0.162 HD
BRANCH  11  13
HETATM   13  C   UNK N   1      29.175  17.185   7.780  0.00  0.00     0.181 C 
BRANCH  13  14
HETATM   14  C   UNK N   1      30.678  17.447   7.778  0.00  0.00     0.046 C 
BRANCH  14  15
HETATM   15  C   UNK N   1      31.323  17.160   6.432  0.00  0.00     0.112 C 
BRANCH  15  16
HETATM   16  C   UNK N   1      32.164  15.928   6.552  0.00  0.00     0.139 C 
HETATM   17  O   UNK N   1      32.769  15.695   7.587  0.00  0.00    -0.650 OA
BRANCH  16  18
HETATM   18  O   UNK N   1      32.259  15.075   5.516  0.00  0.00    -0.776 OA
HETATM   19  H   UNK N   1      32.766  15.252   4.748  0.00  0.00     0.167 HD
ENDBRANCH  16  18
ENDBRANCH  15  16
ENDBRANCH  14  15
ENDBRANCH  13  14
BRANCH  13  20
HETATM   20  C   UNK N   1      28.627  17.779   9.054  0.00  0.00     0.163 C 
HETATM   21  O   UNK N   1      27.573  17.390   9.529  0.00  0.00    -0.648 OA
BRANCH  20  22
HETATM   22  O   UNK N   1      29.314  18.758   9.673  0.00  0.00    -0.775 OA
HETATM   23  H   UNK N   1      30.234  18.667   9.832  0.00  0.00     0.167 HD
ENDBRANCH  20  22
ENDBRANCH  13  20
ENDBRANCH  11  13
BRANCH  10  24
HETATM   24  O   UNK N   1      27.247  15.928   6.186  0.00  0.00    -0.350 OA
HETATM   25  H   UNK N   1      27.248  15.557   7.046  0.00  0.00     0.219 HD
ENDBRANCH  10  24
ENDBRANCH   9  10
ENDBRANCH   8   9
ENDBRANCH   7   8
BRANCH   7  26
HETATM   26  C   UNK N   1      26.996  20.982   5.949  0.00  0.00     0.163 C 
HETATM   27  O   UNK N   1      27.877  20.594   6.698  0.00  0.00    -0.648 OA
BRANCH  26  28
HETATM   28  O   UNK N   1      26.177  21.976   6.347  0.00  0.00    -0.775 OA
HETATM   29  H   UNK N   1      25.694  22.572   5.810  0.00  0.00     0.167 HD
ENDBRANCH  26  28
ENDBRANCH   7  26
ENDBRANCH   5   7
BRANCH   4  30
HETATM   30  O   UNK N   1      25.127  20.920   2.353  0.00  0.00    -0.350 OA
HETATM   31  H   UNK N   1      25.186  21.749   1.920  0.00  0.00     0.219 HD
ENDBRANCH   4  30
ENDBRANCH   3   4
ENDBRANCH   2   3
ENDBRANCH   1   2
BRANCH   1  32
HETATM   32  C   UNK N   1      20.729  21.111   0.853  0.00  0.00     0.163 C 
HETATM   33  O   UNK N   1      20.741  20.527  -0.219  0.00  0.00    -0.648 OA
BRANCH  32  34
HETATM   34  O   UNK N   1      20.352  22.401   0.901  0.00  0.00    -0.775 OA
HETATM   35  H   UNK N   1      20.878  23.037   1.345  0.00  0.00     0.167 HD
ENDBRANCH  32  34
ENDBRANCH   1  32
BRANCH   1  36
HETATM   36  N   UNK N   1      21.106  18.941   1.898  0.00  0.00    -0.343 N 
HETATM   37  C   UNK N   1      20.323  18.129   2.639  0.00  0.00     0.252 C 
HETATM   38  O   UNK N   1      19.201  18.488   2.972  0.00  0.00    -0.268 OA
HETATM   39  H   UNK N   1      21.697  18.557   1.209  0.00  0.00     0.163 HD
BRANCH  37  40
HETATM   40  C   UNK N   1      20.966  17.016   3.339  0.00  0.00     0.032 A 
HETATM   41  C   UNK N   1      21.526  15.952   2.612  0.00  0.00     0.019 A 
HETATM   42  C   UNK N   1      22.378  15.040   3.239  0.00  0.00     0.030 A 
HETATM   43  C   UNK N   1      22.693  15.208   4.587  0.00  0.00     0.028 A 
HETATM   44  C   UNK N   1      22.118  16.263   5.306  0.00  0.00     0.030 A 
HETATM   45  C   UNK N   1      21.263  17.161   4.691  0.00  0.00     0.019 A 
BRANCH  43  46
HETATM   46  N   UNK N   1      23.598  14.322   5.221  0.00  0.00    -0.388 N 
HETATM   47  H   UNK N   1      24.266  13.837   4.685  0.00  0.00     0.159 HD
BRANCH  46  48
HETATM   48  C   UNK N   1      23.545  14.130   6.650  0.00  0.00     0.147 C 
BRANCH  48  49
HETATM   49  C   UNK N   1      22.801  12.832   6.988  0.00  0.00     0.128 C 
HETATM   50  C   UNK N   1      23.833  11.786   7.369  0.00  0.00     0.148 C 
HETATM   51  N   UNK N   1      24.280  11.995   8.713  0.00  0.00    -0.372 N 
HETATM   52  C   UNK N   1      23.316  12.159   9.724  0.00  0.00     0.148 A 
HETATM   53  H   UNK N   1      25.242  12.022   8.925  0.00  0.00     0.161 HD
HETATM   54  C   UNK N   1      22.029  12.645   9.396  0.00  0.00     0.133 A 
HETATM   55  N   UNK N   1      23.630  11.816  10.994  0.00  0.00    -0.175 N 
HETATM   56  C   UNK N   1      21.076  12.669  10.462  0.00  0.00     0.186 A 
HETATM   57  N   UNK N   1      21.791  13.086   8.024  0.00  0.00    -0.310 N 
HETATM   58  N   UNK N   1      21.453  12.297  11.711  0.00  0.00    -0.168 N 
HETATM   59  C   UNK N   1      22.716  11.895  11.986  0.00  0.00     0.679 A 
ATOM     60  HN  UNK N   1      20.766  12.320  12.464  1.00  0.00     0.186 HD
HETATM   61  N   UNK N   1      23.035  11.563  13.176  0.00  0.00    -0.234 N 
HETATM   62  H   UNK N   1      23.950  11.270  13.388  0.00  0.00     0.174 HD
ATOM     63  HN  UNK N   1      22.333  11.601  13.916  1.00  0.00     0.174 HD
HETATM   64  H   UNK N   1      24.540  11.502  11.200  0.00  0.00     0.186 HD
BRANCH  56  65
HETATM   65  O   UNK N   1      19.791  13.003  10.282  0.00  0.00    -0.344 OA
HETATM   66  H   UNK N   1      19.151  12.840  10.947  0.00  0.00     0.219 HD
ENDBRANCH  56  65
BRANCH  57  67
HETATM   67  C   UNK N   1      20.750  13.880   7.615  0.00  0.00     0.356 C 
HETATM   68  O   UNK N   1      20.015  13.625   6.682  0.00  0.00    -0.283 OA
ENDBRANCH  57  67
ENDBRANCH  48  49
ENDBRANCH  46  48
ENDBRANCH  43  46
ENDBRANCH  37  40
ENDBRANCH   1  36
TORSDOF 27
ENDMDL
MODEL 8
REMARK VINA RESULT:      -7.4      1.787      3.115
REMARK  27 active torsions:
REMARK  status: ('A' for Active; 'I' for Inactive)
REMARK    1  A    between atoms: C_8  and  C_5 
REMARK    2  A    between atoms: C_17  and  C_5 
REMARK    3  A    between atoms: C_9  and  C_6 
REMARK    4  A    between atoms: C_19  and  C_6 
REMARK    5  A    between atoms: C_10  and  C_7 
REMARK    6  A    between atoms: C_18  and  C_7 
REMARK    7  A    between atoms: C_20  and  C_8 
REMARK    8  A    between atoms: C_21  and  C_9 
REMARK    9  A    between atoms: C_22  and  C_10 
REMARK   10  A    between atoms: C_16  and  C_11 
REMARK   11  A    between atoms: N_33  and  C_11 
REMARK   12  A    between atoms: N_43  and  C_13 
REMARK   13  A    between atoms: C_25  and  C_14 
REMARK   14  A    between atoms: N_33  and  C_15 
REMARK   15  A    between atoms: C_27  and  C_17 
REMARK   16  A    between atoms: C_17  and  N_35 
REMARK   17  A    between atoms: C_28  and  C_18 
REMARK   18  A    between atoms: C_18  and  N_37 
REMARK   19  A    between atoms: C_29  and  C_19 
REMARK   20  A    between atoms: C_19  and  N_39 
REMARK   21  A    between atoms: C_20  and  O_45 
REMARK   22  A    between atoms: C_21  and  O_46 
REMARK   23  A    between atoms: O_48  and  C_22 
REMARK       I    between atoms: N_39  and  C_25 
REMARK   24  A    between atoms: O_50  and  C_26 
REMARK   25  A    between atoms: O_52  and  C_27 
REMARK   26  A    between atoms: O_54  and  C_28 
REMARK   27  A    between atoms: O_56  and  C_29 
REMARK       I    between atoms: N_31  and  C_30 
ROOT
HETATM    1  C   UNK N   1      23.567  19.573   3.784  0.00  0.00     0.183 C 
ENDROOT
BRANCH   1   2
HETATM    2  C   UNK N   1      24.941  19.053   4.240  0.00  0.00     0.044 C 
BRANCH   2   3
HETATM    3  C   UNK N   1      25.717  19.969   5.207  0.00  0.00     0.086 C 
BRANCH   3   4
HETATM    4  C   UNK N   1      27.029  19.305   5.474  0.00  0.00     0.112 C 
HETATM    5  N   UNK N   1      27.091  18.434   6.426  0.00  0.00    -0.360 N 
ATOM      6  HN  UNK N   1      26.208  18.142   6.846  1.00  0.00     0.162 HD
BRANCH   5   7
HETATM    7  C   UNK N   1      28.304  17.831   6.953  0.00  0.00     0.181 C 
BRANCH   7   8
HETATM    8  C   UNK N   1      28.464  16.405   6.406  0.00  0.00     0.044 C 
BRANCH   8   9
HETATM    9  C   UNK N   1      29.511  16.330   5.289  0.00  0.00     0.086 C 
BRANCH   9  10
HETATM   10  C   UNK N   1      30.843  15.820   5.737  0.00  0.00     0.112 C 
HETATM   11  N   UNK N   1      31.159  15.895   6.990  0.00  0.00    -0.360 N 
ATOM     12  HN  UNK N   1      30.467  16.272   7.637  1.00  0.00     0.162 HD
BRANCH  11  13
HETATM   13  C   UNK N   1      32.442  15.472   7.531  0.00  0.00     0.181 C 
BRANCH  13  14
HETATM   14  C   UNK N   1      32.764  16.290   8.778  0.00  0.00     0.046 C 
BRANCH  14  15
HETATM   15  C   UNK N   1      32.829  17.783   8.502  0.00  0.00     0.112 C 
BRANCH  15  16
HETATM   16  C   UNK N   1      34.206  18.127   8.026  0.00  0.00     0.139 C 
HETATM   17  O   UNK N   1      35.077  18.424   8.828  0.00  0.00    -0.650 OA
BRANCH  16  18
HETATM   18  O   UNK N   1      34.485  18.113   6.710  0.00  0.00    -0.776 OA
HETATM   19  H   UNK N   1      34.817  18.856   6.246  0.00  0.00     0.167 HD
ENDBRANCH  16  18
ENDBRANCH  15  16
ENDBRANCH  14  15
ENDBRANCH  13  14
BRANCH  13  20
HETATM   20  C   UNK N   1      32.458  14.021   7.941  0.00  0.00     0.163 C 
HETATM   21  O   UNK N   1      32.595  13.133   7.116  0.00  0.00    -0.648 OA
BRANCH  20  22
HETATM   22  O   UNK N   1      32.314  13.702   9.242  0.00  0.00    -0.775 OA
HETATM   23  H   UNK N   1      32.528  12.841   9.548  0.00  0.00     0.167 HD
ENDBRANCH  20  22
ENDBRANCH  13  20
ENDBRANCH  11  13
BRANCH  10  24
HETATM   24  O   UNK N   1      31.716  15.326   4.832  0.00  0.00    -0.350 OA
HETATM   25  H   UNK N   1      32.623  15.152   4.986  0.00  0.00     0.219 HD
ENDBRANCH  10  24
ENDBRANCH   9  10
ENDBRANCH   8   9
ENDBRANCH   7   8
BRANCH   7  26
HETATM   26  C   UNK N   1      28.385  17.836   8.459  0.00  0.00     0.163 C 
HETATM   27  O   UNK N   1      29.311  17.297   9.043  0.00  0.00    -0.648 OA
BRANCH  26  28
HETATM   28  O   UNK N   1      27.402  18.420   9.173  0.00  0.00    -0.775 OA
HETATM   29  H   UNK N   1      26.772  18.007   9.729  0.00  0.00     0.167 HD
ENDBRANCH  26  28
ENDBRANCH   7  26
ENDBRANCH   5   7
BRANCH   4  30
HETATM   30  O   UNK N   1      28.136  19.693   4.803  0.00  0.00    -0.350 OA
HETATM   31  H   UNK N   1      28.542  20.051   4.039  0.00  0.00     0.219 HD
ENDBRANCH   4  30
ENDBRANCH   3   4
ENDBRANCH   2   3
ENDBRANCH   1   2
BRANCH   1  32
HETATM   32  C   UNK N   1      23.681  20.782   2.905  0.00  0.00     0.163 C 
HETATM   33  O   UNK N   1      24.643  20.904   2.165  0.00  0.00    -0.648 OA
BRANCH  32  34
HETATM   34  O   UNK N   1      22.709  21.713   2.888  0.00  0.00    -0.775 OA
HETATM   35  H   UNK N   1      22.563  22.264   3.631  0.00  0.00     0.167 HD
ENDBRANCH  32  34
ENDBRANCH   1  32
BRANCH   1  36
HETATM   36  N   UNK N   1      22.845  18.504   3.134  0.00  0.00    -0.343 N 
HETATM   37  C   UNK N   1      21.528  18.326   3.371  0.00  0.00     0.252 C 
HETATM   38  O   UNK N   1      20.794  19.293   3.535  0.00  0.00    -0.268 OA
HETATM   39  H   UNK N   1      23.317  17.902   2.513  0.00  0.00     0.163 HD
BRANCH  37  40
HETATM   40  C   UNK N   1      21.087  16.999   3.800  0.00  0.00     0.032 A 
HETATM   41  C   UNK N   1      21.947  15.894   3.678  0.00  0.00     0.019 A 
HETATM   42  C   UNK N   1      21.653  14.696   4.333  0.00  0.00     0.030 A 
HETATM   43  C   UNK N   1      20.515  14.610   5.133  0.00  0.00     0.028 A 
HETATM   44  C   UNK N   1      19.656  15.712   5.236  0.00  0.00     0.030 A 
HETATM   45  C   UNK N   1      19.937  16.897   4.578  0.00  0.00     0.019 A 
BRANCH  43  46
HETATM   46  N   UNK N   1      20.234  13.419   5.846  0.00  0.00    -0.388 N 
HETATM   47  H   UNK N   1      19.369  12.966   5.721  0.00  0.00     0.159 HD
BRANCH  46  48
HETATM   48  C   UNK N   1      21.212  12.867   6.752  0.00  0.00     0.147 C 
BRANCH  48  49
HETATM   49  C   UNK N   1      21.689  13.938   7.741  0.00  0.00     0.128 C 
HETATM   50  C   UNK N   1      20.604  14.127   8.786  0.00  0.00     0.148 C 
HETATM   51  N   UNK N   1      20.656  13.071   9.752  0.00  0.00    -0.372 N 
HETATM   52  C   UNK N   1      21.894  12.762  10.344  0.00  0.00     0.148 A 
HETATM   53  H   UNK N   1      19.842  12.572   9.998  0.00  0.00     0.161 HD
HETATM   54  C   UNK N   1      23.096  13.061   9.661  0.00  0.00     0.133 A 
HETATM   55  N   UNK N   1      21.912  12.211  11.580  0.00  0.00    -0.175 N 
HETATM   56  C   UNK N   1      24.306  12.823  10.384  0.00  0.00     0.186 A 
HETATM   57  N   UNK N   1      22.999  13.565   8.293  0.00  0.00    -0.310 N 
HETATM   58  N   UNK N   1      24.253  12.281  11.627  0.00  0.00    -0.168 N 
HETATM   59  C   UNK N   1      23.078  11.958  12.215  0.00  0.00     0.679 A 
ATOM     60  HN  UNK N   1      25.123  12.115  12.132  1.00  0.00     0.186 HD
HETATM   61  N   UNK N   1      23.069  11.440  13.381  0.00  0.00    -0.234 N 
HETATM   62  H   UNK N   1      22.222  11.199  13.819  0.00  0.00     0.174 HD
ATOM     63  HN  UNK N   1      23.952  11.274  13.866  1.00  0.00     0.174 HD
HETATM   64  H   UNK N   1      21.062  11.992  12.025  0.00  0.00     0.186 HD
BRANCH  56  65
HETATM   65  O   UNK N   1      25.514  13.154   9.909  0.00  0.00    -0.344 OA
HETATM   66  H   UNK N   1      25.733  14.047   9.725  0.00  0.00     0.219 HD
ENDBRANCH  56  65
BRANCH  57  67
HETATM   67  C   UNK N   1      24.022  13.584   7.381  0.00  0.00     0.356 C 
HETATM   68  O   UNK N   1      24.751  12.642   7.143  0.00  0.00    -0.283 OA
ENDBRANCH  57  67
ENDBRANCH  48  49
ENDBRANCH  46  48
ENDBRANCH  43  46
ENDBRANCH  37  40
ENDBRANCH   1  36
TORSDOF 27
ENDMDL
MODEL 9
REMARK VINA RESULT:      -7.3      3.901      9.532
REMARK  27 active torsions:
REMARK  status: ('A' for Active; 'I' for Inactive)
REMARK    1  A    between atoms: C_8  and  C_5 
REMARK    2  A    between atoms: C_17  and  C_5 
REMARK    3  A    between atoms: C_9  and  C_6 
REMARK    4  A    between atoms: C_19  and  C_6 
REMARK    5  A    between atoms: C_10  and  C_7 
REMARK    6  A    between atoms: C_18  and  C_7 
REMARK    7  A    between atoms: C_20  and  C_8 
REMARK    8  A    between atoms: C_21  and  C_9 
REMARK    9  A    between atoms: C_22  and  C_10 
REMARK   10  A    between atoms: C_16  and  C_11 
REMARK   11  A    between atoms: N_33  and  C_11 
REMARK   12  A    between atoms: N_43  and  C_13 
REMARK   13  A    between atoms: C_25  and  C_14 
REMARK   14  A    between atoms: N_33  and  C_15 
REMARK   15  A    between atoms: C_27  and  C_17 
REMARK   16  A    between atoms: C_17  and  N_35 
REMARK   17  A    between atoms: C_28  and  C_18 
REMARK   18  A    between atoms: C_18  and  N_37 
REMARK   19  A    between atoms: C_29  and  C_19 
REMARK   20  A    between atoms: C_19  and  N_39 
REMARK   21  A    between atoms: C_20  and  O_45 
REMARK   22  A    between atoms: C_21  and  O_46 
REMARK   23  A    between atoms: O_48  and  C_22 
REMARK       I    between atoms: N_39  and  C_25 
REMARK   24  A    between atoms: O_50  and  C_26 
REMARK   25  A    between atoms: O_52  and  C_27 
REMARK   26  A    between atoms: O_54  and  C_28 
REMARK   27  A    between atoms: O_56  and  C_29 
REMARK       I    between atoms: N_31  and  C_30 
ROOT
HETATM    1  C   UNK N   1      25.083  18.214   4.954  0.00  0.00     0.183 C 
ENDROOT
BRANCH   1   2
HETATM    2  C   UNK N   1      24.163  18.654   3.802  0.00  0.00     0.044 C 
BRANCH   2   3
HETATM    3  C   UNK N   1      24.347  20.104   3.313  0.00  0.00     0.086 C 
BRANCH   3   4
HETATM    4  C   UNK N   1      22.981  20.651   3.054  0.00  0.00     0.112 C 
HETATM    5  N   UNK N   1      22.014  19.816   2.863  0.00  0.00    -0.360 N 
ATOM      6  HN  UNK N   1      22.209  18.831   3.043  1.00  0.00     0.162 HD
BRANCH   5   7
HETATM    7  C   UNK N   1      20.673  20.152   2.414  0.00  0.00     0.181 C 
BRANCH   7   8
HETATM    8  C   UNK N   1      19.758  18.923   2.521  0.00  0.00     0.044 C 
BRANCH   8   9
HETATM    9  C   UNK N   1      20.520  17.678   2.989  0.00  0.00     0.086 C 
BRANCH   9  10
HETATM   10  C   UNK N   1      20.042  17.129   4.296  0.00  0.00     0.112 C 
HETATM   11  N   UNK N   1      20.815  17.202   5.331  0.00  0.00    -0.360 N 
ATOM     12  HN  UNK N   1      21.716  17.666   5.225  1.00  0.00     0.162 HD
BRANCH  11  13
HETATM   13  C   UNK N   1      20.474  16.660   6.639  0.00  0.00     0.181 C 
BRANCH  13  14
HETATM   14  C   UNK N   1      21.620  15.790   7.145  0.00  0.00     0.046 C 
BRANCH  14  15
HETATM   15  C   UNK N   1      21.185  14.365   7.449  0.00  0.00     0.112 C 
BRANCH  15  16
HETATM   16  C   UNK N   1      20.793  14.276   8.890  0.00  0.00     0.139 C 
HETATM   17  O   UNK N   1      19.625  14.410   9.219  0.00  0.00    -0.650 OA
BRANCH  16  18
HETATM   18  O   UNK N   1      21.731  14.052   9.829  0.00  0.00    -0.776 OA
HETATM   19  H   UNK N   1      21.896  13.208  10.201  0.00  0.00     0.167 HD
ENDBRANCH  16  18
ENDBRANCH  15  16
ENDBRANCH  14  15
ENDBRANCH  13  14
BRANCH  13  20
HETATM   20  C   UNK N   1      20.245  17.732   7.676  0.00  0.00     0.163 C 
HETATM   21  O   UNK N   1      20.764  18.831   7.574  0.00  0.00    -0.648 OA
BRANCH  20  22
HETATM   22  O   UNK N   1      19.456  17.466   8.735  0.00  0.00    -0.775 OA
HETATM   23  H   UNK N   1      19.310  18.116   9.395  0.00  0.00     0.167 HD
ENDBRANCH  20  22
ENDBRANCH  13  20
ENDBRANCH  11  13
BRANCH  10  24
HETATM   24  O   UNK N   1      18.834  16.529   4.374  0.00  0.00    -0.350 OA
HETATM   25  H   UNK N   1      18.494  16.080   5.123  0.00  0.00     0.219 HD
ENDBRANCH  10  24
ENDBRANCH   9  10
ENDBRANCH   8   9
ENDBRANCH   7   8
BRANCH   7  26
HETATM   26  C   UNK N   1      20.622  20.734   1.022  0.00  0.00     0.163 C 
HETATM   27  O   UNK N   1      20.769  20.029   0.037  0.00  0.00    -0.648 OA
BRANCH  26  28
HETATM   28  O   UNK N   1      20.439  22.061   0.866  0.00  0.00    -0.775 OA
HETATM   29  H   UNK N   1      20.589  22.739   1.494  0.00  0.00     0.167 HD
ENDBRANCH  26  28
ENDBRANCH   7  26
ENDBRANCH   5   7
BRANCH   4  30
HETATM   30  O   UNK N   1      22.796  21.983   2.919  0.00  0.00    -0.350 OA
HETATM   31  H   UNK N   1      23.004  22.797   2.504  0.00  0.00     0.219 HD
ENDBRANCH   4  30
ENDBRANCH   3   4
ENDBRANCH   2   3
ENDBRANCH   1   2
BRANCH   1  32
HETATM   32  C   UNK N   1      24.823  16.800   5.378  0.00  0.00     0.163 C 
HETATM   33  O   UNK N   1      23.993  16.132   4.784  0.00  0.00    -0.648 OA
BRANCH  32  34
HETATM   34  O   UNK N   1      25.531  16.243   6.378  0.00  0.00    -0.775 OA
HETATM   35  H   UNK N   1      25.418  15.339   6.597  0.00  0.00     0.167 HD
ENDBRANCH  32  34
ENDBRANCH   1  32
BRANCH   1  36
HETATM   36  N   UNK N   1      26.460  18.413   4.565  0.00  0.00    -0.343 N 
HETATM   37  C   UNK N   1      27.098  17.491   3.814  0.00  0.00     0.252 C 
HETATM   38  O   UNK N   1      26.494  16.886   2.936  0.00  0.00    -0.268 OA
HETATM   39  H   UNK N   1      26.937  19.226   4.851  0.00  0.00     0.163 HD
BRANCH  37  40
HETATM   40  C   UNK N   1      28.371  16.970   4.310  0.00  0.00     0.032 A 
HETATM   41  C   UNK N   1      29.283  16.369   3.425  0.00  0.00     0.019 A 
HETATM   42  C   UNK N   1      30.599  16.128   3.824  0.00  0.00     0.030 A 
HETATM   43  C   UNK N   1      31.013  16.511   5.099  0.00  0.00     0.028 A 
HETATM   44  C   UNK N   1      30.092  17.095   5.979  0.00  0.00     0.030 A 
HETATM   45  C   UNK N   1      28.784  17.324   5.592  0.00  0.00     0.019 A 
BRANCH  43  46
HETATM   46  N   UNK N   1      32.358  16.321   5.498  0.00  0.00    -0.388 N 
HETATM   47  H   UNK N   1      33.064  16.238   4.817  0.00  0.00     0.159 HD
BRANCH  46  48
HETATM   48  C   UNK N   1      32.698  16.249   6.899  0.00  0.00     0.147 C 
BRANCH  48  49
HETATM   49  C   UNK N   1      34.119  16.777   7.131  0.00  0.00     0.128 C 
HETATM   50  C   UNK N   1      34.038  17.912   8.136  0.00  0.00     0.148 C 
HETATM   51  N   UNK N   1      33.909  17.392   9.464  0.00  0.00    -0.372 N 
HETATM   52  C   UNK N   1      34.805  16.394   9.885  0.00  0.00     0.148 A 
HETATM   53  H   UNK N   1      33.207  17.727  10.070  0.00  0.00     0.161 HD
HETATM   54  C   UNK N   1      35.426  15.556   8.930  0.00  0.00     0.133 A 
HETATM   55  N   UNK N   1      35.085  16.275  11.204  0.00  0.00    -0.175 N 
HETATM   56  C   UNK N   1      36.411  14.649   9.433  0.00  0.00     0.186 A 
HETATM   57  N   UNK N   1      35.005  15.676   7.536  0.00  0.00    -0.310 N 
HETATM   58  N   UNK N   1      36.653  14.591  10.767  0.00  0.00    -0.168 N 
HETATM   59  C   UNK N   1      35.988  15.374  11.648  0.00  0.00     0.679 A 
ATOM     60  HN  UNK N   1      37.355  13.939  11.115  1.00  0.00     0.186 HD
HETATM   61  N   UNK N   1      36.236  15.282  12.897  0.00  0.00    -0.234 N 
HETATM   62  H   UNK N   1      35.760  15.845  13.547  0.00  0.00     0.174 HD
ATOM     63  HN  UNK N   1      36.939  14.617  13.224  1.00  0.00     0.174 HD
HETATM   64  H   UNK N   1      34.622  16.855  11.851  0.00  0.00     0.186 HD
BRANCH  56  65
HETATM   65  O   UNK N   1      37.154  13.869   8.638  0.00  0.00    -0.344 OA
HETATM   66  H   UNK N   1      36.841  13.598   7.798  0.00  0.00     0.219 HD
ENDBRANCH  56  65
BRANCH  57  67
HETATM   67  C   UNK N   1      35.234  14.747   6.555  0.00  0.00     0.356 C 
HETATM   68  O   UNK N   1      34.889  13.583   6.614  0.00  0.00    -0.283 OA
ENDBRANCH  57  67
ENDBRANCH  48  49
ENDBRANCH  46  48
ENDBRANCH  43  46
ENDBRANCH  37  40
ENDBRANCH   1  36
TORSDOF 27
ENDMDL
