MODEL 1
REMARK VINA RESULT:      -5.3      0.000      0.000
REMARK  2 active torsions:
REMARK  status: ('A' for Active; 'I' for Inactive)
REMARK    1  A    between atoms: O_1  and  C_2 
REMARK    2  A    between atoms: C_4  and  C_2 
ROOT
HETATM    1  C   UNK N   1      20.494  19.218   1.603  0.00  0.00     0.193 A 
HETATM    2  C   UNK N   1      20.294  18.810   3.055  0.00  0.00     0.139 A 
HETATM    3  C   UNK N   1      19.864  17.382   3.199  0.00  0.00     0.228 A 
HETATM    4  O   UNK N   1      19.671  16.938   4.319  0.00  0.00    -0.273 OA
HETATM    5  N   UNK N   1      19.684  16.573   2.123  0.00  0.00    -0.279 N 
HETATM    6  C   UNK N   1      19.875  16.981   0.842  0.00  0.00     0.323 A 
HETATM    7  O   UNK N   1      19.692  16.191  -0.070  0.00  0.00    -0.247 OA
HETATM    8  N   UNK N   1      20.264  18.247   0.560  0.00  0.00    -0.328 N 
HETATM    9  H   UNK N   1      19.401  15.644   2.280  0.00  0.00     0.173 HD
HETATM   10  H   UNK N   1      20.394  18.512  -0.380  0.00  0.00     0.165 HD
ENDROOT
BRANCH   1  11
HETATM   11  C   UNK N   1      20.923  20.600   1.227  0.00  0.00     0.164 C 
HETATM   12  O   UNK N   1      21.125  20.877   0.055  0.00  0.00    -0.648 OA
BRANCH  11  13
HETATM   13  O   UNK N   1      21.088  21.543   2.173  0.00  0.00    -0.775 OA
HETATM   14  H   UNK N   1      21.202  22.439   1.926  0.00  0.00     0.167 HD
ENDBRANCH  11  13
ENDBRANCH   1  11
TORSDOF 2
ENDMDL
MODEL 2
REMARK VINA RESULT:      -5.2      1.618      3.706
REMARK  2 active torsions:
REMARK  status: ('A' for Active; 'I' for Inactive)
REMARK    1  A    between atoms: O_1  and  C_2 
REMARK    2  A    between atoms: C_4  and  C_2 
ROOT
HETATM    1  C   UNK N   1      20.272  18.198   1.531  0.00  0.00     0.193 A 
HETATM    2  C   UNK N   1      20.462  18.144   3.039  0.00  0.00     0.139 A 
HETATM    3  C   UNK N   1      20.795  19.481   3.627  0.00  0.00     0.228 A 
HETATM    4  O   UNK N   1      20.971  19.565   4.831  0.00  0.00    -0.273 OA
HETATM    5  N   UNK N   1      20.906  20.596   2.860  0.00  0.00    -0.279 N 
HETATM    6  C   UNK N   1      20.727  20.598   1.514  0.00  0.00     0.323 A 
HETATM    7  O   UNK N   1      20.844  21.643   0.897  0.00  0.00    -0.247 OA
HETATM    8  N   UNK N   1      20.421  19.460   0.846  0.00  0.00    -0.328 N 
HETATM    9  H   UNK N   1      21.127  21.447   3.302  0.00  0.00     0.173 HD
HETATM   10  H   UNK N   1      20.297  19.494  -0.131  0.00  0.00     0.165 HD
ENDROOT
BRANCH   1  11
HETATM   11  C   UNK N   1      19.933  16.977   0.738  0.00  0.00     0.164 C 
HETATM   12  O   UNK N   1      20.781  16.118   0.551  0.00  0.00    -0.648 OA
BRANCH  11  13
HETATM   13  O   UNK N   1      18.699  16.816   0.227  0.00  0.00    -0.775 OA
HETATM   14  H   UNK N   1      18.307  15.966   0.206  0.00  0.00     0.167 HD
ENDBRANCH  11  13
ENDBRANCH   1  11
TORSDOF 2
ENDMDL
MODEL 3
REMARK VINA RESULT:      -5.1     15.721     16.170
REMARK  2 active torsions:
REMARK  status: ('A' for Active; 'I' for Inactive)
REMARK    1  A    between atoms: O_1  and  C_2 
REMARK    2  A    between atoms: C_4  and  C_2 
ROOT
HETATM    1  C   UNK N   1      34.434  17.148   9.129  0.00  0.00     0.193 A 
HETATM    2  C   UNK N   1      35.348  16.779  10.287  0.00  0.00     0.139 A 
HETATM    3  C   UNK N   1      34.832  15.619  11.083  0.00  0.00     0.228 A 
HETATM    4  O   UNK N   1      35.480  15.230  12.040  0.00  0.00    -0.273 OA
HETATM    5  N   UNK N   1      33.668  14.994  10.770  0.00  0.00    -0.279 N 
HETATM    6  C   UNK N   1      32.882  15.358   9.724  0.00  0.00     0.323 A 
HETATM    7  O   UNK N   1      31.850  14.743   9.509  0.00  0.00    -0.247 OA
HETATM    8  N   UNK N   1      33.224  16.390   8.916  0.00  0.00    -0.328 N 
HETATM    9  H   UNK N   1      33.379  14.237  11.329  0.00  0.00     0.173 HD
HETATM   10  H   UNK N   1      32.632  16.629   8.166  0.00  0.00     0.165 HD
ENDROOT
BRANCH   1  11
HETATM   11  C   UNK N   1      34.755  18.276   8.202  0.00  0.00     0.164 C 
HETATM   12  O   UNK N   1      34.442  18.205   7.024  0.00  0.00    -0.648 OA
BRANCH  11  13
HETATM   13  O   UNK N   1      35.389  19.373   8.658  0.00  0.00    -0.775 OA
HETATM   14  H   UNK N   1      35.812  19.356   9.494  0.00  0.00     0.167 HD
ENDBRANCH  11  13
ENDBRANCH   1  11
TORSDOF 2
ENDMDL
MODEL 4
REMARK VINA RESULT:      -5.1     15.560     16.091
REMARK  2 active torsions:
REMARK  status: ('A' for Active; 'I' for Inactive)
REMARK    1  A    between atoms: O_1  and  C_2 
REMARK    2  A    between atoms: C_4  and  C_2 
ROOT
HETATM    1  C   UNK N   1      34.240  17.046   8.877  0.00  0.00     0.193 A 
HETATM    2  C   UNK N   1      33.174  16.063   8.417  0.00  0.00     0.139 A 
HETATM    3  C   UNK N   1      32.946  14.956   9.402  0.00  0.00     0.228 A 
HETATM    4  O   UNK N   1      32.112  14.104   9.143  0.00  0.00    -0.273 OA
HETATM    5  N   UNK N   1      33.638  14.878  10.567  0.00  0.00    -0.279 N 
HETATM    6  C   UNK N   1      34.582  15.780  10.938  0.00  0.00     0.323 A 
HETATM    7  O   UNK N   1      35.160  15.638  12.003  0.00  0.00    -0.247 OA
HETATM    8  N   UNK N   1      34.894  16.834  10.146  0.00  0.00    -0.328 N 
HETATM    9  H   UNK N   1      33.445  14.128  11.175  0.00  0.00     0.173 HD
HETATM   10  H   UNK N   1      35.584  17.471  10.443  0.00  0.00     0.165 HD
ENDROOT
BRANCH   1  11
HETATM   11  C   UNK N   1      34.628  18.228   8.048  0.00  0.00     0.164 C 
HETATM   12  O   UNK N   1      34.347  18.258   6.860  0.00  0.00    -0.648 OA
BRANCH  11  13
HETATM   13  O   UNK N   1      35.287  19.262   8.603  0.00  0.00    -0.775 OA
HETATM   14  H   UNK N   1      36.106  19.542   8.246  0.00  0.00     0.167 HD
ENDBRANCH  11  13
ENDBRANCH   1  11
TORSDOF 2
ENDMDL
MODEL 5
REMARK VINA RESULT:      -4.9     15.169     15.998
REMARK  2 active torsions:
REMARK  status: ('A' for Active; 'I' for Inactive)
REMARK    1  A    between atoms: O_1  and  C_2 
REMARK    2  A    between atoms: C_4  and  C_2 
ROOT
HETATM    1  C   UNK N   1      33.965  16.087   9.246  0.00  0.00     0.193 A 
HETATM    2  C   UNK N   1      32.919  15.963   8.149  0.00  0.00     0.139 A 
HETATM    3  C   UNK N   1      32.878  17.163   7.252  0.00  0.00     0.228 A 
HETATM    4  O   UNK N   1      32.077  17.180   6.333  0.00  0.00    -0.273 OA
HETATM    5  N   UNK N   1      33.703  18.225   7.435  0.00  0.00    -0.279 N 
HETATM    6  C   UNK N   1      34.625  18.293   8.431  0.00  0.00     0.323 A 
HETATM    7  O   UNK N   1      35.329  19.284   8.527  0.00  0.00    -0.247 OA
HETATM    8  N   UNK N   1      34.774  17.280   9.318  0.00  0.00    -0.328 N 
HETATM    9  H   UNK N   1      33.631  18.986   6.815  0.00  0.00     0.173 HD
HETATM   10  H   UNK N   1      35.452  17.360  10.029  0.00  0.00     0.165 HD
ENDROOT
BRANCH   1  11
HETATM   11  C   UNK N   1      34.178  15.004  10.255  0.00  0.00     0.164 C 
HETATM   12  O   UNK N   1      35.097  14.212  10.113  0.00  0.00    -0.648 OA
BRANCH  11  13
HETATM   13  O   UNK N   1      33.363  14.895  11.321  0.00  0.00    -0.775 OA
HETATM   14  H   UNK N   1      33.550  15.373  12.104  0.00  0.00     0.167 HD
ENDBRANCH  11  13
ENDBRANCH   1  11
TORSDOF 2
ENDMDL
MODEL 6
REMARK VINA RESULT:      -4.9     16.977     17.852
REMARK  2 active torsions:
REMARK  status: ('A' for Active; 'I' for Inactive)
REMARK    1  A    between atoms: O_1  and  C_2 
REMARK    2  A    between atoms: C_4  and  C_2 
ROOT
HETATM    1  C   UNK N   1      35.033  14.867  11.612  0.00  0.00     0.193 A 
HETATM    2  C   UNK N   1      35.657  16.193  11.205  0.00  0.00     0.139 A 
HETATM    3  C   UNK N   1      34.941  16.840  10.058  0.00  0.00     0.228 A 
HETATM    4  O   UNK N   1      35.350  17.911   9.642  0.00  0.00    -0.273 OA
HETATM    5  N   UNK N   1      33.856  16.269   9.475  0.00  0.00    -0.279 N 
HETATM    6  C   UNK N   1      33.332  15.081   9.872  0.00  0.00     0.323 A 
HETATM    7  O   UNK N   1      32.354  14.636   9.294  0.00  0.00    -0.247 OA
HETATM    8  N   UNK N   1      33.876  14.382  10.897  0.00  0.00    -0.328 N 
HETATM    9  H   UNK N   1      33.427  16.741   8.725  0.00  0.00     0.173 HD
HETATM   10  H   UNK N   1      33.473  13.523  11.161  0.00  0.00     0.165 HD
ENDROOT
BRANCH   1  11
HETATM   11  C   UNK N   1      35.588  14.049  12.734  0.00  0.00     0.164 C 
HETATM   12  O   UNK N   1      34.831  13.441  13.476  0.00  0.00    -0.648 OA
BRANCH  11  13
HETATM   13  O   UNK N   1      36.916  13.979  12.935  0.00  0.00    -0.775 OA
HETATM   14  H   UNK N   1      37.400  14.752  13.145  0.00  0.00     0.167 HD
ENDBRANCH  11  13
ENDBRANCH   1  11
TORSDOF 2
ENDMDL
MODEL 7
REMARK VINA RESULT:      -4.8      9.501     11.641
REMARK  2 active torsions:
REMARK  status: ('A' for Active; 'I' for Inactive)
REMARK    1  A    between atoms: O_1  and  C_2 
REMARK    2  A    between atoms: C_4  and  C_2 
ROOT
HETATM    1  C   UNK N   1      23.035  12.300  11.305  0.00  0.00     0.193 A 
HETATM    2  C   UNK N   1      21.729  12.242  10.528  0.00  0.00     0.139 A 
HETATM    3  C   UNK N   1      21.880  12.703   9.110  0.00  0.00     0.228 A 
HETATM    4  O   UNK N   1      20.899  12.702   8.385  0.00  0.00    -0.273 OA
HETATM    5  N   UNK N   1      23.073  13.121   8.613  0.00  0.00    -0.279 N 
HETATM    6  C   UNK N   1      24.216  13.156   9.346  0.00  0.00     0.323 A 
HETATM    7  O   UNK N   1      25.248  13.545   8.824  0.00  0.00    -0.247 OA
HETATM    8  N   UNK N   1      24.230  12.768  10.643  0.00  0.00    -0.328 N 
HETATM    9  H   UNK N   1      23.112  13.413   7.674  0.00  0.00     0.173 HD
HETATM   10  H   UNK N   1      25.076  12.805  11.147  0.00  0.00     0.165 HD
ENDROOT
BRANCH   1  11
HETATM   11  C   UNK N   1      23.115  11.886  12.740  0.00  0.00     0.164 C 
HETATM   12  O   UNK N   1      24.027  12.294  13.442  0.00  0.00    -0.648 OA
BRANCH  11  13
HETATM   13  O   UNK N   1      22.188  11.064  13.264  0.00  0.00    -0.775 OA
HETATM   14  H   UNK N   1      21.316  11.063  12.923  0.00  0.00     0.167 HD
ENDBRANCH  11  13
ENDBRANCH   1  11
TORSDOF 2
ENDMDL
MODEL 8
REMARK VINA RESULT:      -4.8     22.037     22.920
REMARK  2 active torsions:
REMARK  status: ('A' for Active; 'I' for Inactive)
REMARK    1  A    between atoms: O_1  and  C_2 
REMARK    2  A    between atoms: C_4  and  C_2 
ROOT
HETATM    1  C   UNK N   1      43.180  22.211   3.504  0.00  0.00     0.193 A 
HETATM    2  C   UNK N   1      42.631  20.841   3.137  0.00  0.00     0.139 A 
HETATM    3  C   UNK N   1      41.562  20.909   2.090  0.00  0.00     0.228 A 
HETATM    4  O   UNK N   1      41.044  19.871   1.713  0.00  0.00    -0.273 OA
HETATM    5  N   UNK N   1      41.156  22.088   1.553  0.00  0.00    -0.279 N 
HETATM    6  C   UNK N   1      41.676  23.291   1.912  0.00  0.00     0.323 A 
HETATM    7  O   UNK N   1      41.256  24.306   1.380  0.00  0.00    -0.247 OA
HETATM    8  N   UNK N   1      42.651  23.382   2.848  0.00  0.00    -0.328 N 
HETATM    9  H   UNK N   1      40.450  22.071   0.868  0.00  0.00     0.173 HD
HETATM   10  H   UNK N   1      43.006  24.270   3.086  0.00  0.00     0.165 HD
ENDROOT
BRANCH   1  11
HETATM   11  C   UNK N   1      44.256  22.378   4.530  0.00  0.00     0.164 C 
HETATM   12  O   UNK N   1      43.965  22.706   5.669  0.00  0.00    -0.648 OA
BRANCH  11  13
HETATM   13  O   UNK N   1      45.545  22.169   4.205  0.00  0.00    -0.775 OA
HETATM   14  H   UNK N   1      46.017  21.459   4.593  0.00  0.00     0.167 HD
ENDBRANCH  11  13
ENDBRANCH   1  11
TORSDOF 2
ENDMDL
MODEL 9
REMARK VINA RESULT:      -4.8      9.318     11.056
REMARK  2 active torsions:
REMARK  status: ('A' for Active; 'I' for Inactive)
REMARK    1  A    between atoms: O_1  and  C_2 
REMARK    2  A    between atoms: C_4  and  C_2 
ROOT
HETATM    1  C   UNK N   1      21.866  12.944  10.124  0.00  0.00     0.193 A 
HETATM    2  C   UNK N   1      21.683  12.285  11.482  0.00  0.00     0.139 A 
HETATM    3  C   UNK N   1      22.987  11.997  12.164  0.00  0.00     0.228 A 
HETATM    4  O   UNK N   1      22.969  11.468  13.263  0.00  0.00    -0.273 OA
HETATM    5  N   UNK N   1      24.179  12.308  11.595  0.00  0.00    -0.279 N 
HETATM    6  C   UNK N   1      24.295  12.898  10.377  0.00  0.00     0.323 A 
HETATM    7  O   UNK N   1      25.405  13.145   9.936  0.00  0.00    -0.247 OA
HETATM    8  N   UNK N   1      23.201  13.216   9.645  0.00  0.00    -0.328 N 
HETATM    9  H   UNK N   1      25.003  12.096  12.090  0.00  0.00     0.173 HD
HETATM   10  H   UNK N   1      23.318  13.643   8.765  0.00  0.00     0.165 HD
ENDROOT
BRANCH   1  11
HETATM   11  C   UNK N   1      20.698  13.319   9.269  0.00  0.00     0.164 C 
HETATM   12  O   UNK N   1      20.717  13.077   8.072  0.00  0.00    -0.648 OA
BRANCH  11  13
HETATM   13  O   UNK N   1      19.624  13.923   9.810  0.00  0.00    -0.775 OA
HETATM   14  H   UNK N   1      18.872  14.103   9.281  0.00  0.00     0.167 HD
ENDBRANCH  11  13
ENDBRANCH   1  11
TORSDOF 2
ENDMDL
