MODEL 1
REMARK VINA RESULT:      -8.5      0.000      0.000
REMARK  11 active torsions:
REMARK  status: ('A' for Active; 'I' for Inactive)
REMARK       I    between atoms: C_10  and  N_14 
REMARK    1  A    between atoms: C_11  and  C_15 
REMARK    2  A    between atoms: C_15  and  N_16 
REMARK    3  A    between atoms: N_16  and  C_17 
REMARK    4  A    between atoms: C_22  and  C_23 
REMARK       I    between atoms: C_23  and  N_24 
REMARK    5  A    between atoms: N_24  and  C_26 
REMARK    6  A    between atoms: C_26  and  C_27 
REMARK    7  A    between atoms: C_26  and  C_28 
REMARK    8  A    between atoms: C_27  and  C_29 
REMARK    9  A    between atoms: C_28  and  O_30 
REMARK   10  A    between atoms: C_29  and  C_32 
REMARK   11  A    between atoms: C_32  and  O_33 
ROOT
HETATM    1  C   UNK N   1      26.737  17.799   4.368  0.00  0.00     0.028 A 
HETATM    2  C   UNK N   1      26.992  19.093   3.875  0.00  0.00     0.030 A 
HETATM    3  C   UNK N   1      25.429  17.322   4.406  0.00  0.00     0.030 A 
HETATM    4  C   UNK N   1      25.932  19.907   3.448  0.00  0.00     0.019 A 
HETATM    5  C   UNK N   1      24.380  18.120   3.955  0.00  0.00     0.019 A 
HETATM    6  C   UNK N   1      24.617  19.417   3.478  0.00  0.00     0.032 A 
ENDROOT
BRANCH   1   7
HETATM    7  N   UNK N   1      27.791  16.945   4.771  0.00  0.00    -0.385 N 
HETATM    8  H   UNK N   1      27.589  16.081   5.197  0.00  0.00     0.160 HD
BRANCH   7   9
HETATM    9  C   UNK N   1      29.156  17.337   4.555  0.00  0.00     0.174 C 
BRANCH   9  10
HETATM   10  C   UNK N   1      29.948  17.479   5.806  0.00  0.00     0.022 A 
HETATM   11  N   UNK N   1      31.230  17.556   5.692  0.00  0.00    -0.353 N 
HETATM   12  C   UNK N   1      32.103  17.490   6.801  0.00  0.00     0.146 A 
ATOM     13  HN  UNK N   1      31.632  17.669   4.762  1.00  0.00     0.166 HD
HETATM   14  C   UNK N   1      31.595  17.294   8.081  0.00  0.00     0.149 A 
HETATM   15  C   UNK N   1      33.485  17.561   6.630  0.00  0.00     0.290 A 
HETATM   16  N   UNK N   1      30.194  17.222   8.268  0.00  0.00    -0.368 N 
HETATM   17  N   UNK N   1      32.443  17.152   9.134  0.00  0.00    -0.175 N 
HETATM   18  C   UNK N   1      29.265  17.326   7.155  0.00  0.00     0.175 A 
HETATM   19  H   UNK N   1      29.840  17.098   9.177  0.00  0.00     0.161 HD
HETATM   20  C   UNK N   1      33.791  17.205   8.955  0.00  0.00     0.680 A 
ATOM     21  HN  UNK N   1      32.063  17.004  10.070  1.00  0.00     0.186 HD
HETATM   22  N   UNK N   1      34.654  17.024  10.052  0.00  0.00    -0.234 N 
HETATM   23  N   UNK N   1      34.308  17.417   7.715  0.00  0.00    -0.154 N 
HETATM   24  H   UNK N   1      35.605  17.273  10.004  0.00  0.00     0.174 HD
HETATM   25  H   UNK N   1      34.299  16.640  10.886  0.00  0.00     0.174 HD
HETATM   26  H   UNK N   1      35.284  17.466   7.596  0.00  0.00     0.187 HD
HETATM   27  O   UNK N   1      33.964  17.735   5.522  0.00  0.00    -0.265 OA
ENDBRANCH   9  10
ENDBRANCH   7   9
ENDBRANCH   1   7
BRANCH   6  28
HETATM   28  C   UNK N   1      23.461  20.250   3.075  0.00  0.00     0.252 C 
HETATM   29  N   UNK N   1      22.272  19.634   2.849  0.00  0.00    -0.343 N 
HETATM   30  H   UNK N   1      22.286  18.649   2.858  0.00  0.00     0.163 HD
HETATM   31  O   UNK N   1      23.563  21.467   3.009  0.00  0.00    -0.268 OA
BRANCH  29  32
HETATM   32  C   UNK N   1      20.987  20.254   2.595  0.00  0.00     0.183 C 
BRANCH  32  33
HETATM   33  C   UNK N   1      19.903  19.261   3.041  0.00  0.00     0.046 C 
BRANCH  33  34
HETATM   34  C   UNK N   1      20.480  17.857   3.217  0.00  0.00     0.112 C 
BRANCH  34  35
HETATM   35  C   UNK N   1      19.998  16.942   2.145  0.00  0.00     0.139 C 
HETATM   36  O   UNK N   1      20.306  15.762   2.171  0.00  0.00    -0.650 OA
BRANCH  35  37
HETATM   37  O   UNK N   1      19.257  17.421   1.128  0.00  0.00    -0.776 OA
HETATM   38  H   UNK N   1      18.350  17.615   1.260  0.00  0.00     0.167 HD
ENDBRANCH  35  37
ENDBRANCH  34  35
ENDBRANCH  33  34
ENDBRANCH  32  33
BRANCH  32  39
HETATM   39  C   UNK N   1      20.786  20.703   1.161  0.00  0.00     0.163 C 
HETATM   40  O   UNK N   1      20.770  21.893   0.880  0.00  0.00    -0.648 OA
BRANCH  39  41
HETATM   41  O   UNK N   1      20.705  19.796   0.171  0.00  0.00    -0.775 OA
HETATM   42  H   UNK N   1      20.268  20.000  -0.632  0.00  0.00     0.167 HD
ENDBRANCH  39  41
ENDBRANCH  32  39
ENDBRANCH  29  32
ENDBRANCH   6  28
TORSDOF 11
ENDMDL
MODEL 2
REMARK VINA RESULT:      -8.4      1.243      1.717
REMARK  11 active torsions:
REMARK  status: ('A' for Active; 'I' for Inactive)
REMARK       I    between atoms: C_10  and  N_14 
REMARK    1  A    between atoms: C_11  and  C_15 
REMARK    2  A    between atoms: C_15  and  N_16 
REMARK    3  A    between atoms: N_16  and  C_17 
REMARK    4  A    between atoms: C_22  and  C_23 
REMARK       I    between atoms: C_23  and  N_24 
REMARK    5  A    between atoms: N_24  and  C_26 
REMARK    6  A    between atoms: C_26  and  C_27 
REMARK    7  A    between atoms: C_26  and  C_28 
REMARK    8  A    between atoms: C_27  and  C_29 
REMARK    9  A    between atoms: C_28  and  O_30 
REMARK   10  A    between atoms: C_29  and  C_32 
REMARK   11  A    between atoms: C_32  and  O_33 
ROOT
HETATM    1  C   UNK N   1      26.616  18.095   4.535  0.00  0.00     0.028 A 
HETATM    2  C   UNK N   1      26.803  19.305   3.839  0.00  0.00     0.030 A 
HETATM    3  C   UNK N   1      25.329  17.596   4.714  0.00  0.00     0.030 A 
HETATM    4  C   UNK N   1      25.697  20.017   3.352  0.00  0.00     0.019 A 
HETATM    5  C   UNK N   1      24.232  18.288   4.204  0.00  0.00     0.019 A 
HETATM    6  C   UNK N   1      24.402  19.503   3.525  0.00  0.00     0.032 A 
ENDROOT
BRANCH   1   7
HETATM    7  N   UNK N   1      27.717  17.340   5.005  0.00  0.00    -0.385 N 
HETATM    8  H   UNK N   1      27.733  17.021   5.937  0.00  0.00     0.160 HD
BRANCH   7   9
HETATM    9  C   UNK N   1      28.810  17.037   4.123  0.00  0.00     0.174 C 
BRANCH   9  10
HETATM   10  C   UNK N   1      30.137  17.008   4.796  0.00  0.00     0.022 A 
HETATM   11  N   UNK N   1      30.149  17.002   6.085  0.00  0.00    -0.353 N 
HETATM   12  C   UNK N   1      31.329  17.176   6.841  0.00  0.00     0.146 A 
ATOM     13  HN  UNK N   1      29.269  16.864   6.581  1.00  0.00     0.166 HD
HETATM   14  C   UNK N   1      32.542  17.409   6.201  0.00  0.00     0.149 A 
HETATM   15  C   UNK N   1      31.294  17.179   8.235  0.00  0.00     0.290 A 
HETATM   16  N   UNK N   1      32.592  17.406   4.786  0.00  0.00    -0.368 N 
HETATM   17  N   UNK N   1      33.661  17.654   6.932  0.00  0.00    -0.175 N 
HETATM   18  C   UNK N   1      31.404  17.189   3.977  0.00  0.00     0.175 A 
HETATM   19  H   UNK N   1      33.455  17.556   4.339  0.00  0.00     0.161 HD
HETATM   20  C   UNK N   1      33.613  17.673   8.293  0.00  0.00     0.680 A 
ATOM     21  HN  UNK N   1      34.547  17.828   6.456  1.00  0.00     0.186 HD
HETATM   22  N   UNK N   1      34.775  17.961   9.034  0.00  0.00    -0.234 N 
HETATM   23  N   UNK N   1      32.442  17.428   8.939  0.00  0.00    -0.154 N 
HETATM   24  H   UNK N   1      34.831  17.767   9.997  0.00  0.00     0.174 HD
HETATM   25  H   UNK N   1      35.548  18.366   8.579  0.00  0.00     0.174 HD
HETATM   26  H   UNK N   1      32.418  17.431   9.923  0.00  0.00     0.187 HD
HETATM   27  O   UNK N   1      30.248  16.977   8.828  0.00  0.00    -0.265 OA
ENDBRANCH   9  10
ENDBRANCH   7   9
ENDBRANCH   1   7
BRANCH   6  28
HETATM   28  C   UNK N   1      23.200  20.235   3.063  0.00  0.00     0.252 C 
HETATM   29  N   UNK N   1      22.078  19.520   2.791  0.00  0.00    -0.343 N 
HETATM   30  H   UNK N   1      22.173  18.540   2.811  0.00  0.00     0.163 HD
HETATM   31  O   UNK N   1      23.204  21.455   2.990  0.00  0.00    -0.268 OA
BRANCH  29  32
HETATM   32  C   UNK N   1      20.758  20.029   2.474  0.00  0.00     0.183 C 
BRANCH  32  33
HETATM   33  C   UNK N   1      19.767  18.867   2.635  0.00  0.00     0.046 C 
BRANCH  33  34
HETATM   34  C   UNK N   1      20.464  17.519   2.451  0.00  0.00     0.112 C 
BRANCH  34  35
HETATM   35  C   UNK N   1      20.073  16.886   1.161  0.00  0.00     0.139 C 
HETATM   36  O   UNK N   1      20.772  16.011   0.678  0.00  0.00    -0.650 OA
BRANCH  35  37
HETATM   37  O   UNK N   1      18.973  17.303   0.507  0.00  0.00    -0.776 OA
HETATM   38  H   UNK N   1      18.136  17.261   0.924  0.00  0.00     0.167 HD
ENDBRANCH  35  37
ENDBRANCH  34  35
ENDBRANCH  33  34
ENDBRANCH  32  33
BRANCH  32  39
HETATM   39  C   UNK N   1      20.653  20.677   1.107  0.00  0.00     0.163 C 
HETATM   40  O   UNK N   1      20.662  21.894   0.995  0.00  0.00    -0.648 OA
BRANCH  39  41
HETATM   41  O   UNK N   1      20.631  19.918  -0.003  0.00  0.00    -0.775 OA
HETATM   42  H   UNK N   1      21.049  20.206  -0.790  0.00  0.00     0.167 HD
ENDBRANCH  39  41
ENDBRANCH  32  39
ENDBRANCH  29  32
ENDBRANCH   6  28
TORSDOF 11
ENDMDL
MODEL 3
REMARK VINA RESULT:      -8.2      1.670      1.887
REMARK  11 active torsions:
REMARK  status: ('A' for Active; 'I' for Inactive)
REMARK       I    between atoms: C_10  and  N_14 
REMARK    1  A    between atoms: C_11  and  C_15 
REMARK    2  A    between atoms: C_15  and  N_16 
REMARK    3  A    between atoms: N_16  and  C_17 
REMARK    4  A    between atoms: C_22  and  C_23 
REMARK       I    between atoms: C_23  and  N_24 
REMARK    5  A    between atoms: N_24  and  C_26 
REMARK    6  A    between atoms: C_26  and  C_27 
REMARK    7  A    between atoms: C_26  and  C_28 
REMARK    8  A    between atoms: C_27  and  C_29 
REMARK    9  A    between atoms: C_28  and  O_30 
REMARK   10  A    between atoms: C_29  and  C_32 
REMARK   11  A    between atoms: C_32  and  O_33 
ROOT
HETATM    1  C   UNK N   1      27.766  18.676   3.979  0.00  0.00     0.028 A 
HETATM    2  C   UNK N   1      27.566  20.069   3.960  0.00  0.00     0.030 A 
HETATM    3  C   UNK N   1      26.693  17.823   3.733  0.00  0.00     0.030 A 
HETATM    4  C   UNK N   1      26.287  20.596   3.721  0.00  0.00     0.019 A 
HETATM    5  C   UNK N   1      25.429  18.346   3.467  0.00  0.00     0.019 A 
HETATM    6  C   UNK N   1      25.211  19.732   3.463  0.00  0.00     0.032 A 
ENDROOT
BRANCH   1   7
HETATM    7  N   UNK N   1      29.052  18.121   4.181  0.00  0.00    -0.385 N 
HETATM    8  H   UNK N   1      29.838  18.531   3.752  0.00  0.00     0.160 HD
BRANCH   7   9
HETATM    9  C   UNK N   1      29.211  16.960   5.013  0.00  0.00     0.174 C 
BRANCH   9  10
HETATM   10  C   UNK N   1      30.088  17.181   6.194  0.00  0.00     0.022 A 
HETATM   11  N   UNK N   1      31.346  17.358   5.974  0.00  0.00    -0.353 N 
HETATM   12  C   UNK N   1      32.309  17.376   7.007  0.00  0.00     0.146 A 
ATOM     13  HN  UNK N   1      31.660  17.491   5.013  1.00  0.00     0.166 HD
HETATM   14  C   UNK N   1      31.925  17.156   8.326  0.00  0.00     0.149 A 
HETATM   15  C   UNK N   1      33.663  17.555   6.723  0.00  0.00     0.290 A 
HETATM   16  N   UNK N   1      30.554  16.976   8.628  0.00  0.00    -0.368 N 
HETATM   17  N   UNK N   1      32.864  17.096   9.307  0.00  0.00    -0.175 N 
HETATM   18  C   UNK N   1      29.532  16.991   7.595  0.00  0.00     0.175 A 
HETATM   19  H   UNK N   1      30.286  16.836   9.565  0.00  0.00     0.161 HD
HETATM   20  C   UNK N   1      34.185  17.253   9.017  0.00  0.00     0.680 A 
ATOM     21  HN  UNK N   1      32.576  16.930  10.272  1.00  0.00     0.186 HD
HETATM   22  N   UNK N   1      35.146  17.156  10.040  0.00  0.00    -0.234 N 
HETATM   23  N   UNK N   1      34.580  17.490   7.737  0.00  0.00    -0.154 N 
HETATM   24  H   UNK N   1      36.067  17.479   9.913  0.00  0.00     0.174 HD
HETATM   25  H   UNK N   1      34.893  16.756  10.903  0.00  0.00     0.174 HD
HETATM   26  H   UNK N   1      35.536  17.615   7.538  0.00  0.00     0.187 HD
HETATM   27  O   UNK N   1      34.034  17.752   5.578  0.00  0.00    -0.265 OA
ENDBRANCH   9  10
ENDBRANCH   7   9
ENDBRANCH   1   7
BRANCH   6  28
HETATM   28  C   UNK N   1      23.836  20.235   3.244  0.00  0.00     0.252 C 
HETATM   29  N   UNK N   1      22.805  19.360   3.364  0.00  0.00    -0.343 N 
HETATM   30  H   UNK N   1      23.050  18.414   3.479  0.00  0.00     0.163 HD
HETATM   31  O   UNK N   1      23.636  21.421   3.022  0.00  0.00    -0.268 OA
BRANCH  29  32
HETATM   32  C   UNK N   1      21.385  19.656   3.341  0.00  0.00     0.183 C 
BRANCH  32  33
HETATM   33  C   UNK N   1      20.677  18.563   4.156  0.00  0.00     0.046 C 
BRANCH  33  34
HETATM   34  C   UNK N   1      21.682  17.725   4.946  0.00  0.00     0.112 C 
BRANCH  34  35
HETATM   35  C   UNK N   1      21.351  17.720   6.397  0.00  0.00     0.139 C 
HETATM   36  O   UNK N   1      21.391  16.675   7.025  0.00  0.00    -0.650 OA
BRANCH  35  37
HETATM   37  O   UNK N   1      20.968  18.857   7.009  0.00  0.00    -0.776 OA
HETATM   38  H   UNK N   1      21.369  19.112   7.816  0.00  0.00     0.167 HD
ENDBRANCH  35  37
ENDBRANCH  34  35
ENDBRANCH  33  34
ENDBRANCH  32  33
BRANCH  32  39
HETATM   39  C   UNK N   1      20.800  19.792   1.949  0.00  0.00     0.163 C 
HETATM   40  O   UNK N   1      20.998  20.802   1.289  0.00  0.00    -0.648 OA
BRANCH  39  41
HETATM   41  O   UNK N   1      20.126  18.769   1.394  0.00  0.00    -0.775 OA
HETATM   42  H   UNK N   1      19.462  18.316   1.874  0.00  0.00     0.167 HD
ENDBRANCH  39  41
ENDBRANCH  32  39
ENDBRANCH  29  32
ENDBRANCH   6  28
TORSDOF 11
ENDMDL
MODEL 4
REMARK VINA RESULT:      -7.8      2.066      2.557
REMARK  11 active torsions:
REMARK  status: ('A' for Active; 'I' for Inactive)
REMARK       I    between atoms: C_10  and  N_14 
REMARK    1  A    between atoms: C_11  and  C_15 
REMARK    2  A    between atoms: C_15  and  N_16 
REMARK    3  A    between atoms: N_16  and  C_17 
REMARK    4  A    between atoms: C_22  and  C_23 
REMARK       I    between atoms: C_23  and  N_24 
REMARK    5  A    between atoms: N_24  and  C_26 
REMARK    6  A    between atoms: C_26  and  C_27 
REMARK    7  A    between atoms: C_26  and  C_28 
REMARK    8  A    between atoms: C_27  and  C_29 
REMARK    9  A    between atoms: C_28  and  O_30 
REMARK   10  A    between atoms: C_29  and  C_32 
REMARK   11  A    between atoms: C_32  and  O_33 
ROOT
HETATM    1  C   UNK N   1      26.656  18.334   4.467  0.00  0.00     0.028 A 
HETATM    2  C   UNK N   1      26.865  19.548   3.785  0.00  0.00     0.030 A 
HETATM    3  C   UNK N   1      25.360  17.851   4.631  0.00  0.00     0.030 A 
HETATM    4  C   UNK N   1      25.772  20.280   3.297  0.00  0.00     0.019 A 
HETATM    5  C   UNK N   1      24.277  18.563   4.121  0.00  0.00     0.019 A 
HETATM    6  C   UNK N   1      24.469  19.783   3.456  0.00  0.00     0.032 A 
ENDROOT
BRANCH   1   7
HETATM    7  N   UNK N   1      27.743  17.559   4.937  0.00  0.00    -0.385 N 
HETATM    8  H   UNK N   1      27.752  16.585   4.791  0.00  0.00     0.160 HD
BRANCH   7   9
HETATM    9  C   UNK N   1      28.834  18.193   5.624  0.00  0.00     0.174 C 
BRANCH   9  10
HETATM   10  C   UNK N   1      30.086  17.390   5.639  0.00  0.00     0.022 A 
HETATM   11  N   UNK N   1      30.763  17.326   4.544  0.00  0.00    -0.353 N 
HETATM   12  C   UNK N   1      31.851  16.444   4.367  0.00  0.00     0.146 A 
ATOM     13  HN  UNK N   1      30.503  17.940   3.773  1.00  0.00     0.166 HD
HETATM   14  C   UNK N   1      32.209  15.561   5.381  0.00  0.00     0.149 A 
HETATM   15  C   UNK N   1      32.547  16.397   3.159  0.00  0.00     0.290 A 
HETATM   16  N   UNK N   1      31.513  15.601   6.612  0.00  0.00    -0.368 N 
HETATM   17  N   UNK N   1      33.206  14.659   5.178  0.00  0.00    -0.175 N 
HETATM   18  C   UNK N   1      30.414  16.524   6.844  0.00  0.00     0.175 A 
HETATM   19  H   UNK N   1      31.780  14.985   7.331  0.00  0.00     0.161 HD
HETATM   20  C   UNK N   1      33.867  14.609   3.989  0.00  0.00     0.680 A 
ATOM     21  HN  UNK N   1      33.461  14.013   5.924  1.00  0.00     0.186 HD
HETATM   22  N   UNK N   1      34.874  13.648   3.784  0.00  0.00    -0.234 N 
HETATM   23  N   UNK N   1      33.547  15.476   2.991  0.00  0.00    -0.154 N 
HETATM   24  H   UNK N   1      35.514  13.723   3.039  0.00  0.00     0.174 HD
HETATM   25  H   UNK N   1      34.941  12.882   4.399  0.00  0.00     0.174 HD
HETATM   26  H   UNK N   1      34.038  15.441   2.139  0.00  0.00     0.187 HD
HETATM   27  O   UNK N   1      32.261  17.157   2.250  0.00  0.00    -0.265 OA
ENDBRANCH   9  10
ENDBRANCH   7   9
ENDBRANCH   1   7
BRANCH   6  28
HETATM   28  C   UNK N   1      23.280  20.536   2.993  0.00  0.00     0.252 C 
HETATM   29  N   UNK N   1      22.154  19.838   2.694  0.00  0.00    -0.343 N 
HETATM   30  H   UNK N   1      22.239  18.858   2.696  0.00  0.00     0.163 HD
HETATM   31  O   UNK N   1      23.298  21.757   2.943  0.00  0.00    -0.268 OA
BRANCH  29  32
HETATM   32  C   UNK N   1      20.844  20.368   2.370  0.00  0.00     0.183 C 
BRANCH  32  33
HETATM   33  C   UNK N   1      19.845  19.204   2.458  0.00  0.00     0.046 C 
BRANCH  33  34
HETATM   34  C   UNK N   1      20.555  17.857   2.324  0.00  0.00     0.112 C 
BRANCH  34  35
HETATM   35  C   UNK N   1      20.127  17.148   1.086  0.00  0.00     0.139 C 
HETATM   36  O   UNK N   1      19.612  16.045   1.166  0.00  0.00    -0.650 OA
BRANCH  35  37
HETATM   37  O   UNK N   1      20.343  17.702  -0.122  0.00  0.00    -0.776 OA
HETATM   38  H   UNK N   1      19.655  17.725  -0.756  0.00  0.00     0.167 HD
ENDBRANCH  35  37
ENDBRANCH  34  35
ENDBRANCH  33  34
ENDBRANCH  32  33
BRANCH  32  39
HETATM   39  C   UNK N   1      20.772  21.075   1.031  0.00  0.00     0.163 C 
HETATM   40  O   UNK N   1      21.047  20.480  -0.001  0.00  0.00    -0.648 OA
BRANCH  39  41
HETATM   41  O   UNK N   1      20.325  22.342   0.957  0.00  0.00    -0.775 OA
HETATM   42  H   UNK N   1      19.507  22.585   1.341  0.00  0.00     0.167 HD
ENDBRANCH  39  41
ENDBRANCH  32  39
ENDBRANCH  29  32
ENDBRANCH   6  28
TORSDOF 11
ENDMDL
MODEL 5
REMARK VINA RESULT:      -7.6      2.327     11.780
REMARK  11 active torsions:
REMARK  status: ('A' for Active; 'I' for Inactive)
REMARK       I    between atoms: C_10  and  N_14 
REMARK    1  A    between atoms: C_11  and  C_15 
REMARK    2  A    between atoms: C_15  and  N_16 
REMARK    3  A    between atoms: N_16  and  C_17 
REMARK    4  A    between atoms: C_22  and  C_23 
REMARK       I    between atoms: C_23  and  N_24 
REMARK    5  A    between atoms: N_24  and  C_26 
REMARK    6  A    between atoms: C_26  and  C_27 
REMARK    7  A    between atoms: C_26  and  C_28 
REMARK    8  A    between atoms: C_27  and  C_29 
REMARK    9  A    between atoms: C_28  and  O_30 
REMARK   10  A    between atoms: C_29  and  C_32 
REMARK   11  A    between atoms: C_32  and  O_33 
ROOT
HETATM    1  C   UNK N   1      27.774  18.150   6.420  0.00  0.00     0.028 A 
HETATM    2  C   UNK N   1      28.261  18.123   7.741  0.00  0.00     0.030 A 
HETATM    3  C   UNK N   1      28.511  17.548   5.403  0.00  0.00     0.030 A 
HETATM    4  C   UNK N   1      29.493  17.515   8.027  0.00  0.00     0.019 A 
HETATM    5  C   UNK N   1      29.720  16.919   5.692  0.00  0.00     0.019 A 
HETATM    6  C   UNK N   1      30.226  16.900   7.000  0.00  0.00     0.032 A 
ENDROOT
BRANCH   1   7
HETATM    7  N   UNK N   1      26.518  18.724   6.111  0.00  0.00    -0.385 N 
HETATM    8  H   UNK N   1      25.825  18.795   6.806  0.00  0.00     0.160 HD
BRANCH   7   9
HETATM    9  C   UNK N   1      26.256  19.205   4.782  0.00  0.00     0.174 C 
BRANCH   9  10
HETATM   10  C   UNK N   1      24.955  18.748   4.222  0.00  0.00     0.022 A 
HETATM   11  N   UNK N   1      24.167  19.649   3.742  0.00  0.00    -0.353 N 
HETATM   12  C   UNK N   1      22.833  19.378   3.367  0.00  0.00     0.146 A 
ATOM     13  HN  UNK N   1      24.523  20.597   3.626  1.00  0.00     0.166 HD
HETATM   14  C   UNK N   1      22.299  18.106   3.550  0.00  0.00     0.149 A 
HETATM   15  C   UNK N   1      22.010  20.386   2.866  0.00  0.00     0.290 A 
HETATM   16  N   UNK N   1      23.124  17.074   4.055  0.00  0.00    -0.368 N 
HETATM   17  N   UNK N   1      20.991  17.869   3.262  0.00  0.00    -0.175 N 
HETATM   18  C   UNK N   1      24.514  17.307   4.413  0.00  0.00     0.175 A 
HETATM   19  H   UNK N   1      22.746  16.172   4.168  0.00  0.00     0.161 HD
HETATM   20  C   UNK N   1      20.192  18.865   2.791  0.00  0.00     0.680 A 
ATOM     21  HN  UNK N   1      20.606  16.935   3.402  1.00  0.00     0.186 HD
HETATM   22  N   UNK N   1      18.833  18.610   2.528  0.00  0.00    -0.234 N 
HETATM   23  N   UNK N   1      20.698  20.110   2.585  0.00  0.00    -0.154 N 
HETATM   24  H   UNK N   1      18.288  19.227   1.988  0.00  0.00     0.174 HD
HETATM   25  H   UNK N   1      18.415  17.797   2.894  0.00  0.00     0.174 HD
HETATM   26  H   UNK N   1      20.116  20.821   2.233  0.00  0.00     0.187 HD
HETATM   27  O   UNK N   1      22.446  21.511   2.692  0.00  0.00    -0.265 OA
ENDBRANCH   9  10
ENDBRANCH   7   9
ENDBRANCH   1   7
BRANCH   6  28
HETATM   28  C   UNK N   1      31.548  16.280   7.244  0.00  0.00     0.252 C 
HETATM   29  N   UNK N   1      31.875  15.944   8.518  0.00  0.00    -0.343 N 
HETATM   30  H   UNK N   1      31.251  16.241   9.219  0.00  0.00     0.163 HD
HETATM   31  O   UNK N   1      32.297  16.024   6.312  0.00  0.00    -0.268 OA
BRANCH  29  32
HETATM   32  C   UNK N   1      33.036  15.201   8.969  0.00  0.00     0.183 C 
BRANCH  32  33
HETATM   33  C   UNK N   1      34.279  15.916   8.420  0.00  0.00     0.046 C 
BRANCH  33  34
HETATM   34  C   UNK N   1      34.524  17.235   9.152  0.00  0.00     0.112 C 
BRANCH  34  35
HETATM   35  C   UNK N   1      34.780  18.342   8.189  0.00  0.00     0.139 C 
HETATM   36  O   UNK N   1      35.323  19.365   8.571  0.00  0.00    -0.650 OA
BRANCH  35  37
HETATM   37  O   UNK N   1      34.378  18.233   6.909  0.00  0.00    -0.776 OA
HETATM   38  H   UNK N   1      33.963  17.448   6.614  0.00  0.00     0.167 HD
ENDBRANCH  35  37
ENDBRANCH  34  35
ENDBRANCH  33  34
ENDBRANCH  32  33
BRANCH  32  39
HETATM   39  C   UNK N   1      33.017  13.732   8.594  0.00  0.00     0.163 C 
HETATM   40  O   UNK N   1      33.610  12.909   9.277  0.00  0.00    -0.648 OA
BRANCH  39  41
HETATM   41  O   UNK N   1      32.281  13.307   7.552  0.00  0.00    -0.775 OA
HETATM   42  H   UNK N   1      32.087  13.879   6.836  0.00  0.00     0.167 HD
ENDBRANCH  39  41
ENDBRANCH  32  39
ENDBRANCH  29  32
ENDBRANCH   6  28
TORSDOF 11
ENDMDL
MODEL 6
REMARK VINA RESULT:      -7.5      2.986     11.861
REMARK  11 active torsions:
REMARK  status: ('A' for Active; 'I' for Inactive)
REMARK       I    between atoms: C_10  and  N_14 
REMARK    1  A    between atoms: C_11  and  C_15 
REMARK    2  A    between atoms: C_15  and  N_16 
REMARK    3  A    between atoms: N_16  and  C_17 
REMARK    4  A    between atoms: C_22  and  C_23 
REMARK       I    between atoms: C_23  and  N_24 
REMARK    5  A    between atoms: N_24  and  C_26 
REMARK    6  A    between atoms: C_26  and  C_27 
REMARK    7  A    between atoms: C_26  and  C_28 
REMARK    8  A    between atoms: C_27  and  C_29 
REMARK    9  A    between atoms: C_28  and  O_30 
REMARK   10  A    between atoms: C_29  and  C_32 
REMARK   11  A    between atoms: C_32  and  O_33 
ROOT
HETATM    1  C   UNK N   1      28.733  17.927   7.257  0.00  0.00     0.028 A 
HETATM    2  C   UNK N   1      29.128  18.455   8.501  0.00  0.00     0.030 A 
HETATM    3  C   UNK N   1      29.667  17.270   6.460  0.00  0.00     0.030 A 
HETATM    4  C   UNK N   1      30.461  18.344   8.924  0.00  0.00     0.019 A 
HETATM    5  C   UNK N   1      30.984  17.133   6.893  0.00  0.00     0.019 A 
HETATM    6  C   UNK N   1      31.396  17.670   8.122  0.00  0.00     0.032 A 
ENDROOT
BRANCH   1   7
HETATM    7  N   UNK N   1      27.387  17.994   6.823  0.00  0.00    -0.385 N 
HETATM    8  H   UNK N   1      26.681  18.267   7.453  0.00  0.00     0.160 HD
BRANCH   7   9
HETATM    9  C   UNK N   1      27.053  17.666   5.465  0.00  0.00     0.174 C 
BRANCH   9  10
HETATM   10  C   UNK N   1      26.039  18.570   4.859  0.00  0.00     0.022 A 
HETATM   11  N   UNK N   1      24.796  18.288   5.059  0.00  0.00    -0.353 N 
HETATM   12  C   UNK N   1      23.743  18.940   4.381  0.00  0.00     0.146 A 
ATOM     13  HN  UNK N   1      24.564  17.563   5.738  1.00  0.00     0.166 HD
HETATM   14  C   UNK N   1      24.023  19.904   3.418  0.00  0.00     0.149 A 
HETATM   15  C   UNK N   1      22.414  18.592   4.617  0.00  0.00     0.290 A 
HETATM   16  N   UNK N   1      25.368  20.269   3.171  0.00  0.00    -0.368 N 
HETATM   17  N   UNK N   1      23.010  20.473   2.711  0.00  0.00    -0.175 N 
HETATM   18  C   UNK N   1      26.474  19.647   3.880  0.00  0.00     0.175 A 
HETATM   19  H   UNK N   1      25.559  20.962   2.500  0.00  0.00     0.161 HD
HETATM   20  C   UNK N   1      21.717  20.113   2.936  0.00  0.00     0.680 A 
ATOM     21  HN  UNK N   1      23.223  21.177   2.004  1.00  0.00     0.186 HD
HETATM   22  N   UNK N   1      20.684  20.689   2.173  0.00  0.00    -0.234 N 
HETATM   23  N   UNK N   1      21.420  19.187   3.887  0.00  0.00    -0.154 N 
HETATM   24  H   UNK N   1      19.742  20.624   2.451  0.00  0.00     0.174 HD
HETATM   25  H   UNK N   1      20.908  21.166   1.341  0.00  0.00     0.174 HD
HETATM   26  H   UNK N   1      20.481  18.942   4.052  0.00  0.00     0.187 HD
HETATM   27  O   UNK N   1      22.134  17.752   5.455  0.00  0.00    -0.265 OA
ENDBRANCH   9  10
ENDBRANCH   7   9
ENDBRANCH   1   7
BRANCH   6  28
HETATM   28  C   UNK N   1      32.822  17.559   8.505  0.00  0.00     0.252 C 
HETATM   29  N   UNK N   1      33.225  16.443   9.166  0.00  0.00    -0.343 N 
HETATM   30  H   UNK N   1      32.512  15.826   9.449  0.00  0.00     0.163 HD
HETATM   31  O   UNK N   1      33.624  18.423   8.179  0.00  0.00    -0.268 OA
BRANCH  29  32
HETATM   32  C   UNK N   1      34.580  16.054   9.505  0.00  0.00     0.183 C 
BRANCH  32  33
HETATM   33  C   UNK N   1      35.022  14.996   8.483  0.00  0.00     0.046 C 
BRANCH  33  34
HETATM   34  C   UNK N   1      33.824  14.434   7.718  0.00  0.00     0.112 C 
BRANCH  34  35
HETATM   35  C   UNK N   1      33.278  13.224   8.392  0.00  0.00     0.139 C 
HETATM   36  O   UNK N   1      33.699  12.120   8.091  0.00  0.00    -0.650 OA
BRANCH  35  37
HETATM   37  O   UNK N   1      32.294  13.342   9.304  0.00  0.00    -0.776 OA
HETATM   38  H   UNK N   1      32.431  13.850  10.078  0.00  0.00     0.167 HD
ENDBRANCH  35  37
ENDBRANCH  34  35
ENDBRANCH  33  34
ENDBRANCH  32  33
BRANCH  32  39
HETATM   39  C   UNK N   1      34.750  15.569  10.931  0.00  0.00     0.163 C 
HETATM   40  O   UNK N   1      35.701  15.941  11.604  0.00  0.00    -0.648 OA
BRANCH  39  41
HETATM   41  O   UNK N   1      33.811  14.790  11.498  0.00  0.00    -0.775 OA
HETATM   42  H   UNK N   1      33.725  13.890  11.257  0.00  0.00     0.167 HD
ENDBRANCH  39  41
ENDBRANCH  32  39
ENDBRANCH  29  32
ENDBRANCH   6  28
TORSDOF 11
ENDMDL
MODEL 7
REMARK VINA RESULT:      -7.4      1.790      2.214
REMARK  11 active torsions:
REMARK  status: ('A' for Active; 'I' for Inactive)
REMARK       I    between atoms: C_10  and  N_14 
REMARK    1  A    between atoms: C_11  and  C_15 
REMARK    2  A    between atoms: C_15  and  N_16 
REMARK    3  A    between atoms: N_16  and  C_17 
REMARK    4  A    between atoms: C_22  and  C_23 
REMARK       I    between atoms: C_23  and  N_24 
REMARK    5  A    between atoms: N_24  and  C_26 
REMARK    6  A    between atoms: C_26  and  C_27 
REMARK    7  A    between atoms: C_26  and  C_28 
REMARK    8  A    between atoms: C_27  and  C_29 
REMARK    9  A    between atoms: C_28  and  O_30 
REMARK   10  A    between atoms: C_29  and  C_32 
REMARK   11  A    between atoms: C_32  and  O_33 
ROOT
HETATM    1  C   UNK N   1      26.486  18.664   5.045  0.00  0.00     0.028 A 
HETATM    2  C   UNK N   1      25.314  17.895   4.911  0.00  0.00     0.030 A 
HETATM    3  C   UNK N   1      26.505  19.976   4.578  0.00  0.00     0.030 A 
HETATM    4  C   UNK N   1      24.181  18.438   4.286  0.00  0.00     0.019 A 
HETATM    5  C   UNK N   1      25.371  20.525   3.984  0.00  0.00     0.019 A 
HETATM    6  C   UNK N   1      24.202  19.765   3.827  0.00  0.00     0.032 A 
ENDROOT
BRANCH   1   7
HETATM    7  N   UNK N   1      27.630  18.152   5.702  0.00  0.00    -0.385 N 
HETATM    8  H   UNK N   1      28.026  17.300   5.408  0.00  0.00     0.160 HD
BRANCH   7   9
HETATM    9  C   UNK N   1      28.213  18.876   6.797  0.00  0.00     0.174 C 
BRANCH   9  10
HETATM   10  C   UNK N   1      29.340  18.165   7.458  0.00  0.00     0.022 A 
HETATM   11  N   UNK N   1      29.842  17.148   6.844  0.00  0.00    -0.353 N 
HETATM   12  C   UNK N   1      30.771  16.271   7.446  0.00  0.00     0.146 A 
ATOM     13  HN  UNK N   1      29.557  16.970   5.881  1.00  0.00     0.166 HD
HETATM   14  C   UNK N   1      31.152  16.457   8.771  0.00  0.00     0.149 A 
HETATM   15  C   UNK N   1      31.278  15.174   6.750  0.00  0.00     0.290 A 
HETATM   16  N   UNK N   1      30.647  17.568   9.488  0.00  0.00    -0.368 N 
HETATM   17  N   UNK N   1      31.985  15.566   9.371  0.00  0.00    -0.175 N 
HETATM   18  C   UNK N   1      29.721  18.514   8.887  0.00  0.00     0.175 A 
HETATM   19  H   UNK N   1      30.932  17.704  10.420  0.00  0.00     0.161 HD
HETATM   20  C   UNK N   1      32.459  14.488   8.688  0.00  0.00     0.680 A 
ATOM     21  HN  UNK N   1      32.257  15.706  10.344  1.00  0.00     0.186 HD
HETATM   22  N   UNK N   1      33.295  13.558   9.335  0.00  0.00    -0.234 N 
HETATM   23  N   UNK N   1      32.116  14.299   7.386  0.00  0.00    -0.154 N 
HETATM   24  H   UNK N   1      33.827  12.904   8.826  0.00  0.00     0.174 HD
HETATM   25  H   UNK N   1      33.348  13.560  10.318  0.00  0.00     0.174 HD
HETATM   26  H   UNK N   1      32.473  13.523   6.896  0.00  0.00     0.187 HD
HETATM   27  O   UNK N   1      30.966  14.982   5.586  0.00  0.00    -0.265 OA
ENDBRANCH   9  10
ENDBRANCH   7   9
ENDBRANCH   1   7
BRANCH   6  28
HETATM   28  C   UNK N   1      23.047  20.371   3.128  0.00  0.00     0.252 C 
HETATM   29  N   UNK N   1      21.927  19.620   2.968  0.00  0.00    -0.343 N 
HETATM   30  H   UNK N   1      21.998  18.675   3.230  0.00  0.00     0.163 HD
HETATM   31  O   UNK N   1      23.083  21.537   2.762  0.00  0.00    -0.268 OA
BRANCH  29  32
HETATM   32  C   UNK N   1      20.640  20.048   2.455  0.00  0.00     0.183 C 
BRANCH  32  33
HETATM   33  C   UNK N   1      19.699  18.835   2.511  0.00  0.00     0.046 C 
BRANCH  33  34
HETATM   34  C   UNK N   1      20.471  17.529   2.331  0.00  0.00     0.112 C 
BRANCH  34  35
HETATM   35  C   UNK N   1      20.067  16.523   3.352  0.00  0.00     0.139 C 
HETATM   36  O   UNK N   1      19.174  16.784   4.140  0.00  0.00    -0.650 OA
BRANCH  35  37
HETATM   37  O   UNK N   1      20.711  15.344   3.433  0.00  0.00    -0.776 OA
HETATM   38  H   UNK N   1      21.473  15.189   2.912  0.00  0.00     0.167 HD
ENDBRANCH  35  37
ENDBRANCH  34  35
ENDBRANCH  33  34
ENDBRANCH  32  33
BRANCH  32  39
HETATM   39  C   UNK N   1      20.694  20.657   1.068  0.00  0.00     0.163 C 
HETATM   40  O   UNK N   1      20.734  19.943   0.076  0.00  0.00    -0.648 OA
BRANCH  39  41
HETATM   41  O   UNK N   1      20.616  21.991   0.910  0.00  0.00    -0.775 OA
HETATM   42  H   UNK N   1      21.183  22.565   1.385  0.00  0.00     0.167 HD
ENDBRANCH  39  41
ENDBRANCH  32  39
ENDBRANCH  29  32
ENDBRANCH   6  28
TORSDOF 11
ENDMDL
MODEL 8
REMARK VINA RESULT:      -7.4     10.658     17.542
REMARK  11 active torsions:
REMARK  status: ('A' for Active; 'I' for Inactive)
REMARK       I    between atoms: C_10  and  N_14 
REMARK    1  A    between atoms: C_11  and  C_15 
REMARK    2  A    between atoms: C_15  and  N_16 
REMARK    3  A    between atoms: N_16  and  C_17 
REMARK    4  A    between atoms: C_22  and  C_23 
REMARK       I    between atoms: C_23  and  N_24 
REMARK    5  A    between atoms: N_24  and  C_26 
REMARK    6  A    between atoms: C_26  and  C_27 
REMARK    7  A    between atoms: C_26  and  C_28 
REMARK    8  A    between atoms: C_27  and  C_29 
REMARK    9  A    between atoms: C_28  and  O_30 
REMARK   10  A    between atoms: C_29  and  C_32 
REMARK   11  A    between atoms: C_32  and  O_33 
ROOT
HETATM    1  C   UNK N   1      35.938  11.898  15.177  0.00  0.00     0.028 A 
HETATM    2  C   UNK N   1      35.239  12.941  15.814  0.00  0.00     0.030 A 
HETATM    3  C   UNK N   1      36.359  10.798  15.920  0.00  0.00     0.030 A 
HETATM    4  C   UNK N   1      34.991  12.885  17.194  0.00  0.00     0.019 A 
HETATM    5  C   UNK N   1      36.088  10.728  17.285  0.00  0.00     0.019 A 
HETATM    6  C   UNK N   1      35.408  11.769  17.936  0.00  0.00     0.032 A 
ENDROOT
BRANCH   1   7
HETATM    7  N   UNK N   1      36.169  11.913  13.781  0.00  0.00    -0.385 N 
HETATM    8  H   UNK N   1      37.071  11.736  13.430  0.00  0.00     0.160 HD
BRANCH   7   9
HETATM    9  C   UNK N   1      35.086  12.184  12.876  0.00  0.00     0.174 C 
BRANCH   9  10
HETATM   10  C   UNK N   1      35.079  13.573  12.343  0.00  0.00     0.022 A 
HETATM   11  N   UNK N   1      34.260  13.836  11.383  0.00  0.00    -0.353 N 
HETATM   12  C   UNK N   1      34.293  15.048  10.658  0.00  0.00     0.146 A 
ATOM     13  HN  UNK N   1      33.556  13.140  11.138  1.00  0.00     0.166 HD
HETATM   14  C   UNK N   1      35.265  16.003  10.936  0.00  0.00     0.149 A 
HETATM   15  C   UNK N   1      33.397  15.285   9.616  0.00  0.00     0.290 A 
HETATM   16  N   UNK N   1      36.179  15.776  11.993  0.00  0.00    -0.368 N 
HETATM   17  N   UNK N   1      35.343  17.133  10.184  0.00  0.00    -0.175 N 
HETATM   18  C   UNK N   1      36.147  14.559  12.787  0.00  0.00     0.175 A 
HETATM   19  H   UNK N   1      36.854  16.462  12.195  0.00  0.00     0.161 HD
HETATM   20  C   UNK N   1      34.476  17.346   9.157  0.00  0.00     0.680 A 
ATOM     21  HN  UNK N   1      36.061  17.828  10.391  1.00  0.00     0.186 HD
HETATM   22  N   UNK N   1      34.591  18.506   8.368  0.00  0.00    -0.234 N 
HETATM   23  N   UNK N   1      33.505  16.435   8.881  0.00  0.00    -0.154 N 
HETATM   24  H   UNK N   1      33.863  18.800   7.775  0.00  0.00     0.174 HD
HETATM   25  H   UNK N   1      35.420  19.037   8.410  0.00  0.00     0.174 HD
HETATM   26  H   UNK N   1      32.874  16.603   8.145  0.00  0.00     0.187 HD
HETATM   27  O   UNK N   1      32.532  14.469   9.347  0.00  0.00    -0.265 OA
ENDBRANCH   9  10
ENDBRANCH   7   9
ENDBRANCH   1   7
BRANCH   6  28
HETATM   28  C   UNK N   1      35.205  11.680  19.400  0.00  0.00     0.252 C 
HETATM   29  N   UNK N   1      34.634  10.555  19.902  0.00  0.00    -0.343 N 
HETATM   30  H   UNK N   1      34.285   9.914  19.241  0.00  0.00     0.163 HD
HETATM   31  O   UNK N   1      35.599  12.571  20.139  0.00  0.00    -0.268 OA
BRANCH  29  32
HETATM   32  C   UNK N   1      34.475  10.188  21.296  0.00  0.00     0.183 C 
BRANCH  32  33
HETATM   33  C   UNK N   1      34.800   8.691  21.415  0.00  0.00     0.046 C 
BRANCH  33  34
HETATM   34  C   UNK N   1      34.938   8.045  20.038  0.00  0.00     0.112 C 
BRANCH  34  35
HETATM   35  C   UNK N   1      33.707   7.288  19.677  0.00  0.00     0.139 C 
HETATM   36  O   UNK N   1      33.751   6.073  19.573  0.00  0.00    -0.650 OA
BRANCH  35  37
HETATM   37  O   UNK N   1      32.558   7.942  19.425  0.00  0.00    -0.776 OA
HETATM   38  H   UNK N   1      32.535   8.616  18.775  0.00  0.00     0.167 HD
ENDBRANCH  35  37
ENDBRANCH  34  35
ENDBRANCH  33  34
ENDBRANCH  32  33
BRANCH  32  39
HETATM   39  C   UNK N   1      33.114  10.519  21.875  0.00  0.00     0.163 C 
HETATM   40  O   UNK N   1      32.159   9.779  21.680  0.00  0.00    -0.648 OA
BRANCH  39  41
HETATM   41  O   UNK N   1      32.960  11.586  22.679  0.00  0.00    -0.775 OA
HETATM   42  H   UNK N   1      33.455  11.667  23.470  0.00  0.00     0.167 HD
ENDBRANCH  39  41
ENDBRANCH  32  39
ENDBRANCH  29  32
ENDBRANCH   6  28
TORSDOF 11
ENDMDL
MODEL 9
REMARK VINA RESULT:      -7.3      2.621     12.159
REMARK  11 active torsions:
REMARK  status: ('A' for Active; 'I' for Inactive)
REMARK       I    between atoms: C_10  and  N_14 
REMARK    1  A    between atoms: C_11  and  C_15 
REMARK    2  A    between atoms: C_15  and  N_16 
REMARK    3  A    between atoms: N_16  and  C_17 
REMARK    4  A    between atoms: C_22  and  C_23 
REMARK       I    between atoms: C_23  and  N_24 
REMARK    5  A    between atoms: N_24  and  C_26 
REMARK    6  A    between atoms: C_26  and  C_27 
REMARK    7  A    between atoms: C_26  and  C_28 
REMARK    8  A    between atoms: C_27  and  C_29 
REMARK    9  A    between atoms: C_28  and  O_30 
REMARK   10  A    between atoms: C_29  and  C_32 
REMARK   11  A    between atoms: C_32  and  O_33 
ROOT
HETATM    1  C   UNK N   1      27.407  17.298   6.040  0.00  0.00     0.028 A 
HETATM    2  C   UNK N   1      28.282  16.336   5.500  0.00  0.00     0.030 A 
HETATM    3  C   UNK N   1      27.858  18.154   7.041  0.00  0.00     0.030 A 
HETATM    4  C   UNK N   1      29.593  16.223   5.986  0.00  0.00     0.019 A 
HETATM    5  C   UNK N   1      29.169  18.061   7.503  0.00  0.00     0.019 A 
HETATM    6  C   UNK N   1      30.047  17.096   6.988  0.00  0.00     0.032 A 
ENDROOT
BRANCH   1   7
HETATM    7  N   UNK N   1      26.091  17.456   5.542  0.00  0.00    -0.385 N 
HETATM    8  H   UNK N   1      25.321  17.197   6.098  0.00  0.00     0.160 HD
BRANCH   7   9
HETATM    9  C   UNK N   1      25.881  17.996   4.228  0.00  0.00     0.174 C 
BRANCH   9  10
HETATM   10  C   UNK N   1      24.505  18.517   4.003  0.00  0.00     0.022 A 
HETATM   11  N   UNK N   1      23.530  17.678   4.095  0.00  0.00    -0.353 N 
HETATM   12  C   UNK N   1      22.209  17.994   3.711  0.00  0.00     0.146 A 
ATOM     13  HN  UNK N   1      23.722  16.745   4.461  1.00  0.00     0.166 HD
HETATM   14  C   UNK N   1      21.918  19.241   3.168  0.00  0.00     0.149 A 
HETATM   15  C   UNK N   1      21.187  17.051   3.812  0.00  0.00     0.290 A 
HETATM   16  N   UNK N   1      22.945  20.209   3.062  0.00  0.00    -0.368 N 
HETATM   17  N   UNK N   1      20.661  19.515   2.726  0.00  0.00    -0.175 N 
HETATM   18  C   UNK N   1      24.308  19.931   3.485  0.00  0.00     0.175 A 
HETATM   19  H   UNK N   1      22.730  21.095   2.691  0.00  0.00     0.161 HD
HETATM   20  C   UNK N   1      19.675  18.580   2.813  0.00  0.00     0.680 A 
ATOM     21  HN  UNK N   1      20.455  20.430   2.325  1.00  0.00     0.186 HD
HETATM   22  N   UNK N   1      18.388  18.869   2.322  0.00  0.00    -0.234 N 
HETATM   23  N   UNK N   1      19.933  17.362   3.359  0.00  0.00    -0.154 N 
HETATM   24  H   UNK N   1      17.609  18.317   2.563  0.00  0.00     0.174 HD
HETATM   25  H   UNK N   1      18.262  19.640   1.722  0.00  0.00     0.174 HD
HETATM   26  H   UNK N   1      19.211  16.696   3.429  0.00  0.00     0.187 HD
HETATM   27  O   UNK N   1      21.407  15.948   4.285  0.00  0.00    -0.265 OA
ENDBRANCH   9  10
ENDBRANCH   7   9
ENDBRANCH   1   7
BRANCH   6  28
HETATM   28  C   UNK N   1      31.408  16.992   7.561  0.00  0.00     0.252 C 
HETATM   29  N   UNK N   1      32.134  15.876   7.295  0.00  0.00    -0.343 N 
HETATM   30  H   UNK N   1      31.659  15.152   6.826  0.00  0.00     0.163 HD
HETATM   31  O   UNK N   1      31.884  17.916   8.205  0.00  0.00    -0.268 OA
BRANCH  29  32
HETATM   32  C   UNK N   1      33.524  15.625   7.620  0.00  0.00     0.183 C 
BRANCH  32  33
HETATM   33  C   UNK N   1      33.689  15.846   9.131  0.00  0.00     0.046 C 
BRANCH  33  34
HETATM   34  C   UNK N   1      35.037  15.320   9.621  0.00  0.00     0.112 C 
BRANCH  34  35
HETATM   35  C   UNK N   1      35.777  16.367  10.379  0.00  0.00     0.139 C 
HETATM   36  O   UNK N   1      35.379  17.520  10.364  0.00  0.00    -0.650 OA
BRANCH  35  37
HETATM   37  O   UNK N   1      36.903  16.053  11.046  0.00  0.00    -0.776 OA
HETATM   38  H   UNK N   1      37.515  15.450  10.674  0.00  0.00     0.167 HD
ENDBRANCH  35  37
ENDBRANCH  34  35
ENDBRANCH  33  34
ENDBRANCH  32  33
BRANCH  32  39
HETATM   39  C   UNK N   1      34.510  16.451   6.817  0.00  0.00     0.163 C 
HETATM   40  O   UNK N   1      35.259  15.916   6.012  0.00  0.00    -0.648 OA
BRANCH  39  41
HETATM   41  O   UNK N   1      34.513  17.792   6.921  0.00  0.00    -0.775 OA
HETATM   42  H   UNK N   1      35.122  18.310   6.434  0.00  0.00     0.167 HD
ENDBRANCH  39  41
ENDBRANCH  32  39
ENDBRANCH  29  32
ENDBRANCH   6  28
TORSDOF 11
ENDMDL
