MODEL 1
REMARK VINA RESULT:      -7.1      0.000      0.000
REMARK  13 active torsions:
REMARK  status: ('A' for Active; 'I' for Inactive)
REMARK    1  A    between atoms: C_1  and  N_2 
REMARK    2  A    between atoms: C_7  and  C_12 
REMARK    3  A    between atoms: C_8  and  O_13 
REMARK    4  A    between atoms: C_12  and  O_16 
REMARK    5  A    between atoms: O_16  and  P_18 
REMARK    6  A    between atoms: P_18  and  O_19 
REMARK    7  A    between atoms: P_18  and  O_20 
REMARK    8  A    between atoms: O_19  and  P_22 
REMARK    9  A    between atoms: P_22  and  O_23 
REMARK   10  A    between atoms: P_22  and  O_24 
REMARK   11  A    between atoms: O_23  and  P_26 
REMARK   12  A    between atoms: P_26  and  O_27 
REMARK   13  A    between atoms: P_26  and  O_28 
ROOT
HETATM    1  C   UNK N   1      34.542  14.908   8.985  0.00  0.00     0.215 C 
ENDROOT
BRANCH   1   2
HETATM    2  C   UNK N   1      33.771  16.220   9.156  0.00  0.00     0.177 C 
HETATM    3  O   UNK N   1      32.454  16.140   8.709  0.00  0.00    -0.356 OA
HETATM    4  C   UNK N   1      32.095  17.497   8.659  0.00  0.00     0.235 C 
HETATM    5  C   UNK N   1      33.259  18.239   8.031  0.00  0.00     0.088 C 
HETATM    6  C   UNK N   1      34.428  17.404   8.472  0.00  0.00     0.153 C 
BRANCH   4   7
HETATM    7  N   UNK N   1      30.816  17.709   7.963  0.00  0.00    -0.282 N 
HETATM    8  C   UNK N   1      29.760  18.339   8.596  0.00  0.00     0.331 A 
HETATM    9  N   UNK N   1      28.551  18.452   7.960  0.00  0.00    -0.275 N 
HETATM   10  O   UNK N   1      29.886  18.785   9.722  0.00  0.00    -0.246 OA
HETATM   11  C   UNK N   1      28.365  17.942   6.705  0.00  0.00     0.256 A 
HETATM   12  H   UNK N   1      27.805  18.907   8.413  0.00  0.00     0.173 HD
HETATM   13  O   UNK N   1      27.274  18.035   6.169  0.00  0.00    -0.267 OA
HETATM   14  C   UNK N   1      29.427  17.313   6.050  0.00  0.00     0.022 A 
HETATM   15  C   UNK N   1      30.648  17.209   6.705  0.00  0.00     0.110 A 
HETATM   16  C   UNK N   1      29.272  16.733   4.685  0.00  0.00     0.056 C 
ENDBRANCH   4   7
BRANCH   6  17
HETATM   17  O   UNK N   1      35.240  18.092   9.373  0.00  0.00    -0.393 OA
HETATM   18  H   UNK N   1      35.679  18.931   9.162  0.00  0.00     0.210 HD
ENDBRANCH   6  17
ENDBRANCH   1   2
BRANCH   1  19
HETATM   19  O   UNK N   1      35.963  14.971   9.081  0.00  0.00    -0.294 OA
BRANCH  19  20
HETATM   20  P   UNK N   1      36.647  14.323  10.588  0.00  0.00     0.401 P 
HETATM   21  O   UNK N   1      35.261  13.635  10.455  0.00  0.00    -0.631 OA
BRANCH  20  22
HETATM   22  O   UNK N   1      35.842  14.609  12.176  0.00  0.00    -0.195 OA
BRANCH  22  23
HETATM   23  P   UNK N   1      36.090  13.594  13.659  0.00  0.00     0.410 P 
HETATM   24  O   UNK N   1      37.211  12.816  12.924  0.00  0.00    -0.631 OA
BRANCH  23  25
HETATM   25  O   UNK N   1      35.538  11.941  13.573  0.00  0.00    -0.195 OA
BRANCH  25  26
HETATM   26  P   UNK N   1      34.535  11.652  14.970  0.00  0.00     0.399 P 
HETATM   27  O   UNK N   1      35.293  10.726  15.960  0.00  0.00    -0.631 OA
BRANCH  26  28
HETATM   28  O   UNK N   1      33.096  10.801  14.506  0.00  0.00    -0.307 OA
HETATM   29  H   UNK N   1      32.449  10.091  14.647  0.00  0.00     0.222 HD
ENDBRANCH  26  28
BRANCH  26  30
HETATM   30  O   UNK N   1      34.145  13.126  15.798  0.00  0.00    -0.307 OA
HETATM   31  H   UNK N   1      34.182  14.088  15.681  0.00  0.00     0.222 HD
ENDBRANCH  26  30
ENDBRANCH  25  26
ENDBRANCH  23  25
BRANCH  23  32
HETATM   32  O   UNK N   1      34.470  13.319  13.083  0.00  0.00    -0.307 OA
HETATM   33  H   UNK N   1      34.256  13.261  12.138  0.00  0.00     0.222 HD
ENDBRANCH  23  32
ENDBRANCH  22  23
ENDBRANCH  20  22
BRANCH  20  34
HETATM   34  O   UNK N   1      36.756  16.036  10.891  0.00  0.00    -0.307 OA
HETATM   35  H   UNK N   1      37.578  16.509  11.089  0.00  0.00     0.222 HD
ENDBRANCH  20  34
ENDBRANCH  19  20
ENDBRANCH   1  19
TORSDOF 13
ENDMDL
MODEL 2
REMARK VINA RESULT:      -7.0      4.770      8.523
REMARK  13 active torsions:
REMARK  status: ('A' for Active; 'I' for Inactive)
REMARK    1  A    between atoms: C_1  and  N_2 
REMARK    2  A    between atoms: C_7  and  C_12 
REMARK    3  A    between atoms: C_8  and  O_13 
REMARK    4  A    between atoms: C_12  and  O_16 
REMARK    5  A    between atoms: O_16  and  P_18 
REMARK    6  A    between atoms: P_18  and  O_19 
REMARK    7  A    between atoms: P_18  and  O_20 
REMARK    8  A    between atoms: O_19  and  P_22 
REMARK    9  A    between atoms: P_22  and  O_23 
REMARK   10  A    between atoms: P_22  and  O_24 
REMARK   11  A    between atoms: O_23  and  P_26 
REMARK   12  A    between atoms: P_26  and  O_27 
REMARK   13  A    between atoms: P_26  and  O_28 
ROOT
HETATM    1  C   UNK N   1      34.799  15.102   7.786  0.00  0.00     0.215 C 
ENDROOT
BRANCH   1   2
HETATM    2  C   UNK N   1      35.604  15.458   9.040  0.00  0.00     0.177 C 
HETATM    3  O   UNK N   1      35.971  14.340   9.787  0.00  0.00    -0.356 OA
HETATM    4  C   UNK N   1      36.373  14.934  10.994  0.00  0.00     0.235 C 
HETATM    5  C   UNK N   1      35.343  15.995  11.330  0.00  0.00     0.088 C 
HETATM    6  C   UNK N   1      34.893  16.428   9.963  0.00  0.00     0.153 C 
BRANCH   4   7
HETATM    7  N   UNK N   1      36.569  13.943  12.064  0.00  0.00    -0.282 N 
HETATM    8  C   UNK N   1      37.520  12.946  11.942  0.00  0.00     0.331 A 
HETATM    9  N   UNK N   1      37.628  11.984  12.912  0.00  0.00    -0.275 N 
HETATM   10  O   UNK N   1      38.255  12.903  10.973  0.00  0.00    -0.246 OA
HETATM   11  C   UNK N   1      36.803  11.986  14.002  0.00  0.00     0.256 A 
HETATM   12  H   UNK N   1      38.311  11.280  12.822  0.00  0.00     0.173 HD
HETATM   13  O   UNK N   1      36.905  11.106  14.840  0.00  0.00    -0.267 OA
HETATM   14  C   UNK N   1      35.846  12.993  14.143  0.00  0.00     0.022 A 
HETATM   15  C   UNK N   1      35.750  13.966  13.154  0.00  0.00     0.110 A 
HETATM   16  C   UNK N   1      34.918  13.034  15.309  0.00  0.00     0.056 C 
ENDBRANCH   4   7
BRANCH   6  17
HETATM   17  O   UNK N   1      35.285  17.736   9.683  0.00  0.00    -0.393 OA
HETATM   18  H   UNK N   1      36.136  17.962   9.274  0.00  0.00     0.210 HD
ENDBRANCH   6  17
ENDBRANCH   1   2
BRANCH   1  19
HETATM   19  O   UNK N   1      35.140  15.781   6.580  0.00  0.00    -0.294 OA
BRANCH  19  20
HETATM   20  P   UNK N   1      33.816  16.701   5.833  0.00  0.00     0.401 P 
HETATM   21  O   UNK N   1      34.606  17.749   6.665  0.00  0.00    -0.631 OA
BRANCH  20  22
HETATM   22  O   UNK N   1      32.564  17.520   6.841  0.00  0.00    -0.195 OA
BRANCH  22  23
HETATM   23  P   UNK N   1      31.053  16.729   7.457  0.00  0.00     0.410 P 
HETATM   24  O   UNK N   1      30.346  17.067   6.120  0.00  0.00    -0.631 OA
BRANCH  23  25
HETATM   25  O   UNK N   1      29.734  17.790   7.878  0.00  0.00    -0.195 OA
BRANCH  25  26
HETATM   26  P   UNK N   1      29.387  17.546   9.570  0.00  0.00     0.399 P 
HETATM   27  O   UNK N   1      27.866  17.282   9.745  0.00  0.00    -0.631 OA
BRANCH  26  28
HETATM   28  O   UNK N   1      29.741  18.990  10.465  0.00  0.00    -0.307 OA
HETATM   29  H   UNK N   1      30.344  19.523  11.008  0.00  0.00     0.222 HD
ENDBRANCH  26  28
BRANCH  26  30
HETATM   30  O   UNK N   1      30.251  16.187  10.215  0.00  0.00    -0.307 OA
HETATM   31  H   UNK N   1      30.458  15.261  10.012  0.00  0.00     0.222 HD
ENDBRANCH  26  30
ENDBRANCH  25  26
ENDBRANCH  23  25
BRANCH  23  32
HETATM   32  O   UNK N   1      31.413  18.083   8.492  0.00  0.00    -0.307 OA
HETATM   33  H   UNK N   1      31.858  18.882   8.167  0.00  0.00     0.222 HD
ENDBRANCH  23  32
ENDBRANCH  22  23
ENDBRANCH  20  22
BRANCH  20  34
HETATM   34  O   UNK N   1      32.923  15.435   6.630  0.00  0.00    -0.307 OA
HETATM   35  H   UNK N   1      32.607  14.627   6.196  0.00  0.00     0.222 HD
ENDBRANCH  20  34
ENDBRANCH  19  20
ENDBRANCH   1  19
TORSDOF 13
ENDMDL
MODEL 3
REMARK VINA RESULT:      -6.8      2.166      3.680
REMARK  13 active torsions:
REMARK  status: ('A' for Active; 'I' for Inactive)
REMARK    1  A    between atoms: C_1  and  N_2 
REMARK    2  A    between atoms: C_7  and  C_12 
REMARK    3  A    between atoms: C_8  and  O_13 
REMARK    4  A    between atoms: C_12  and  O_16 
REMARK    5  A    between atoms: O_16  and  P_18 
REMARK    6  A    between atoms: P_18  and  O_19 
REMARK    7  A    between atoms: P_18  and  O_20 
REMARK    8  A    between atoms: O_19  and  P_22 
REMARK    9  A    between atoms: P_22  and  O_23 
REMARK   10  A    between atoms: P_22  and  O_24 
REMARK   11  A    between atoms: O_23  and  P_26 
REMARK   12  A    between atoms: P_26  and  O_27 
REMARK   13  A    between atoms: P_26  and  O_28 
ROOT
HETATM    1  C   UNK N   1      32.668  16.915   6.570  0.00  0.00     0.215 C 
ENDROOT
BRANCH   1   2
HETATM    2  C   UNK N   1      31.253  16.773   7.140  0.00  0.00     0.177 C 
HETATM    3  O   UNK N   1      30.270  17.271   6.289  0.00  0.00    -0.356 OA
HETATM    4  C   UNK N   1      29.163  17.334   7.150  0.00  0.00     0.235 C 
HETATM    5  C   UNK N   1      29.655  17.913   8.462  0.00  0.00     0.088 C 
HETATM    6  C   UNK N   1      31.077  17.427   8.497  0.00  0.00     0.153 C 
BRANCH   4   7
HETATM    7  N   UNK N   1      28.040  18.079   6.561  0.00  0.00    -0.282 N 
HETATM    8  C   UNK N   1      27.065  17.430   5.824  0.00  0.00     0.331 A 
HETATM    9  N   UNK N   1      26.075  18.154   5.214  0.00  0.00    -0.275 N 
HETATM   10  O   UNK N   1      27.084  16.219   5.698  0.00  0.00    -0.246 OA
HETATM   11  C   UNK N   1      26.035  19.517   5.313  0.00  0.00     0.256 A 
HETATM   12  H   UNK N   1      25.380  17.685   4.696  0.00  0.00     0.173 HD
HETATM   13  O   UNK N   1      25.156  20.139   4.742  0.00  0.00    -0.267 OA
HETATM   14  C   UNK N   1      27.006  20.184   6.062  0.00  0.00     0.022 A 
HETATM   15  C   UNK N   1      28.003  19.437   6.680  0.00  0.00     0.110 A 
HETATM   16  C   UNK N   1      27.011  21.669   6.193  0.00  0.00     0.056 C 
ENDBRANCH   4   7
BRANCH   6  17
HETATM   17  O   UNK N   1      31.277  16.494   9.513  0.00  0.00    -0.393 OA
HETATM   18  H   UNK N   1      31.605  15.595   9.354  0.00  0.00     0.210 HD
ENDBRANCH   6  17
ENDBRANCH   1   2
BRANCH   1  19
HETATM   19  O   UNK N   1      33.469  15.737   6.516  0.00  0.00    -0.294 OA
BRANCH  19  20
HETATM   20  P   UNK N   1      34.604  15.534   7.869  0.00  0.00     0.401 P 
HETATM   21  O   UNK N   1      33.349  14.713   8.277  0.00  0.00    -0.631 OA
BRANCH  20  22
HETATM   22  O   UNK N   1      34.195  16.120   9.524  0.00  0.00    -0.195 OA
BRANCH  22  23
HETATM   23  P   UNK N   1      35.005  15.562  11.048  0.00  0.00     0.410 P 
HETATM   24  O   UNK N   1      35.966  14.689  10.203  0.00  0.00    -0.631 OA
BRANCH  23  25
HETATM   25  O   UNK N   1      34.698  13.916  11.537  0.00  0.00    -0.195 OA
BRANCH  25  26
HETATM   26  P   UNK N   1      35.693  13.591  12.933  0.00  0.00     0.399 P 
HETATM   27  O   UNK N   1      36.573  12.342  12.652  0.00  0.00    -0.631 OA
BRANCH  26  28
HETATM   28  O   UNK N   1      34.697  13.194  14.296  0.00  0.00    -0.307 OA
HETATM   29  H   UNK N   1      34.139  12.566  14.783  0.00  0.00     0.222 HD
ENDBRANCH  26  28
BRANCH  26  30
HETATM   30  O   UNK N   1      36.744  14.923  13.298  0.00  0.00    -0.307 OA
HETATM   31  H   UNK N   1      37.542  15.135  13.806  0.00  0.00     0.222 HD
ENDBRANCH  26  30
ENDBRANCH  25  26
ENDBRANCH  23  25
BRANCH  23  32
HETATM   32  O   UNK N   1      33.345  15.038  11.098  0.00  0.00    -0.307 OA
HETATM   33  H   UNK N   1      32.736  15.168  10.355  0.00  0.00     0.222 HD
ENDBRANCH  23  32
ENDBRANCH  22  23
ENDBRANCH  20  22
BRANCH  20  34
HETATM   34  O   UNK N   1      34.524  17.271   7.767  0.00  0.00    -0.307 OA
HETATM   35  H   UNK N   1      34.301  17.767   6.964  0.00  0.00     0.222 HD
ENDBRANCH  20  34
ENDBRANCH  19  20
ENDBRANCH   1  19
TORSDOF 13
ENDMDL
MODEL 4
REMARK VINA RESULT:      -6.8      4.694      7.328
REMARK  13 active torsions:
REMARK  status: ('A' for Active; 'I' for Inactive)
REMARK    1  A    between atoms: C_1  and  N_2 
REMARK    2  A    between atoms: C_7  and  C_12 
REMARK    3  A    between atoms: C_8  and  O_13 
REMARK    4  A    between atoms: C_12  and  O_16 
REMARK    5  A    between atoms: O_16  and  P_18 
REMARK    6  A    between atoms: P_18  and  O_19 
REMARK    7  A    between atoms: P_18  and  O_20 
REMARK    8  A    between atoms: O_19  and  P_22 
REMARK    9  A    between atoms: P_22  and  O_23 
REMARK   10  A    between atoms: P_22  and  O_24 
REMARK   11  A    between atoms: O_23  and  P_26 
REMARK   12  A    between atoms: P_26  and  O_27 
REMARK   13  A    between atoms: P_26  and  O_28 
ROOT
HETATM    1  C   UNK N   1      32.142  17.814   8.407  0.00  0.00     0.215 C 
ENDROOT
BRANCH   1   2
HETATM    2  C   UNK N   1      30.676  17.372   8.373  0.00  0.00     0.177 C 
HETATM    3  O   UNK N   1      29.986  17.862   7.266  0.00  0.00    -0.356 OA
HETATM    4  C   UNK N   1      28.655  17.614   7.638  0.00  0.00     0.235 C 
HETATM    5  C   UNK N   1      28.517  18.025   9.091  0.00  0.00     0.088 C 
HETATM    6  C   UNK N   1      29.898  17.752   9.618  0.00  0.00     0.153 C 
BRANCH   4   7
HETATM    7  N   UNK N   1      27.694  18.279   6.744  0.00  0.00    -0.282 N 
HETATM    8  C   UNK N   1      27.001  17.561   5.786  0.00  0.00     0.331 A 
HETATM    9  N   UNK N   1      26.174  18.213   4.909  0.00  0.00    -0.275 N 
HETATM   10  O   UNK N   1      27.128  16.353   5.702  0.00  0.00    -0.246 OA
HETATM   11  C   UNK N   1      26.026  19.571   4.957  0.00  0.00     0.256 A 
HETATM   12  H   UNK N   1      25.679  17.695   4.233  0.00  0.00     0.173 HD
HETATM   13  O   UNK N   1      25.302  20.129   4.151  0.00  0.00    -0.267 OA
HETATM   14  C   UNK N   1      26.711  20.307   5.926  0.00  0.00     0.022 A 
HETATM   15  C   UNK N   1      27.543  19.633   6.813  0.00  0.00     0.110 A 
HETATM   16  C   UNK N   1      26.589  21.791   6.014  0.00  0.00     0.056 C 
ENDBRANCH   4   7
BRANCH   6  17
HETATM   17  O   UNK N   1      29.901  16.697  10.529  0.00  0.00    -0.393 OA
HETATM   18  H   UNK N   1      29.177  16.055  10.604  0.00  0.00     0.210 HD
ENDBRANCH   6  17
ENDBRANCH   1   2
BRANCH   1  19
HETATM   19  O   UNK N   1      33.111  16.827   8.754  0.00  0.00    -0.294 OA
BRANCH  19  20
HETATM   20  P   UNK N   1      34.417  16.602   7.570  0.00  0.00     0.401 P 
HETATM   21  O   UNK N   1      33.971  18.080   7.392  0.00  0.00    -0.631 OA
BRANCH  20  22
HETATM   22  O   UNK N   1      34.111  16.776   5.801  0.00  0.00    -0.195 OA
BRANCH  22  23
HETATM   23  P   UNK N   1      32.888  15.818   4.864  0.00  0.00     0.410 P 
HETATM   24  O   UNK N   1      33.881  15.735   3.677  0.00  0.00    -0.631 OA
BRANCH  23  25
HETATM   25  O   UNK N   1      32.106  16.639   3.537  0.00  0.00    -0.195 OA
BRANCH  25  26
HETATM   26  P   UNK N   1      30.393  16.647   3.866  0.00  0.00     0.399 P 
HETATM   27  O   UNK N   1      29.629  16.174   2.599  0.00  0.00    -0.631 OA
BRANCH  26  28
HETATM   28  O   UNK N   1      29.855  18.265   4.187  0.00  0.00    -0.307 OA
HETATM   29  H   UNK N   1      29.424  19.087   3.901  0.00  0.00     0.222 HD
ENDBRANCH  26  28
BRANCH  26  30
HETATM   30  O   UNK N   1      29.984  15.585   5.175  0.00  0.00    -0.307 OA
HETATM   31  H   UNK N   1      29.307  14.942   5.440  0.00  0.00     0.222 HD
ENDBRANCH  26  30
ENDBRANCH  25  26
ENDBRANCH  23  25
BRANCH  23  32
HETATM   32  O   UNK N   1      32.212  17.391   5.182  0.00  0.00    -0.307 OA
HETATM   33  H   UNK N   1      31.841  17.634   6.045  0.00  0.00     0.222 HD
ENDBRANCH  23  32
ENDBRANCH  22  23
ENDBRANCH  20  22
BRANCH  20  34
HETATM   34  O   UNK N   1      33.346  15.300   7.128  0.00  0.00    -0.307 OA
HETATM   35  H   UNK N   1      33.294  14.449   7.589  0.00  0.00     0.222 HD
ENDBRANCH  20  34
ENDBRANCH  19  20
ENDBRANCH   1  19
TORSDOF 13
ENDMDL
MODEL 5
REMARK VINA RESULT:      -6.6      1.549      1.940
REMARK  13 active torsions:
REMARK  status: ('A' for Active; 'I' for Inactive)
REMARK    1  A    between atoms: C_1  and  N_2 
REMARK    2  A    between atoms: C_7  and  C_12 
REMARK    3  A    between atoms: C_8  and  O_13 
REMARK    4  A    between atoms: C_12  and  O_16 
REMARK    5  A    between atoms: O_16  and  P_18 
REMARK    6  A    between atoms: P_18  and  O_19 
REMARK    7  A    between atoms: P_18  and  O_20 
REMARK    8  A    between atoms: O_19  and  P_22 
REMARK    9  A    between atoms: P_22  and  O_23 
REMARK   10  A    between atoms: P_22  and  O_24 
REMARK   11  A    between atoms: O_23  and  P_26 
REMARK   12  A    between atoms: P_26  and  O_27 
REMARK   13  A    between atoms: P_26  and  O_28 
ROOT
HETATM    1  C   UNK N   1      33.879  16.093   9.262  0.00  0.00     0.215 C 
ENDROOT
BRANCH   1   2
HETATM    2  C   UNK N   1      33.041  17.027   8.383  0.00  0.00     0.177 C 
HETATM    3  O   UNK N   1      31.679  16.736   8.422  0.00  0.00    -0.356 OA
HETATM    4  C   UNK N   1      31.207  17.472   7.324  0.00  0.00     0.235 C 
HETATM    5  C   UNK N   1      32.186  17.249   6.187  0.00  0.00     0.088 C 
HETATM    6  C   UNK N   1      33.476  17.048   6.931  0.00  0.00     0.153 C 
BRANCH   4   7
HETATM    7  N   UNK N   1      29.817  17.130   6.980  0.00  0.00    -0.282 N 
HETATM    8  C   UNK N   1      28.756  17.771   7.594  0.00  0.00     0.331 A 
HETATM    9  N   UNK N   1      27.472  17.380   7.322  0.00  0.00    -0.275 N 
HETATM   10  O   UNK N   1      28.950  18.674   8.388  0.00  0.00    -0.246 OA
HETATM   11  C   UNK N   1      27.217  16.354   6.455  0.00  0.00     0.256 A 
HETATM   12  H   UNK N   1      26.721  17.845   7.757  0.00  0.00     0.173 HD
HETATM   13  O   UNK N   1      26.066  16.010   6.246  0.00  0.00    -0.267 OA
HETATM   14  C   UNK N   1      28.278  15.705   5.820  0.00  0.00     0.022 A 
HETATM   15  C   UNK N   1      29.576  16.115   6.102  0.00  0.00     0.110 A 
HETATM   16  C   UNK N   1      28.052  14.575   4.874  0.00  0.00     0.056 C 
ENDBRANCH   4   7
BRANCH   6  17
HETATM   17  O   UNK N   1      34.366  18.097   6.708  0.00  0.00    -0.393 OA
HETATM   18  H   UNK N   1      34.917  18.486   7.406  0.00  0.00     0.210 HD
ENDBRANCH   6  17
ENDBRANCH   1   2
BRANCH   1  19
HETATM   19  O   UNK N   1      34.800  16.701  10.164  0.00  0.00    -0.294 OA
BRANCH  19  20
HETATM   20  P   UNK N   1      35.453  15.622  11.416  0.00  0.00     0.401 P 
HETATM   21  O   UNK N   1      36.466  15.525  10.242  0.00  0.00    -0.631 OA
BRANCH  20  22
HETATM   22  O   UNK N   1      35.638  13.853  11.118  0.00  0.00    -0.195 OA
BRANCH  22  23
HETATM   23  P   UNK N   1      35.836  12.601  12.415  0.00  0.00     0.410 P 
HETATM   24  O   UNK N   1      34.528  13.100  13.080  0.00  0.00    -0.631 OA
BRANCH  23  25
HETATM   25  O   UNK N   1      36.301  13.181  13.994  0.00  0.00    -0.195 OA
BRANCH  25  26
HETATM   26  P   UNK N   1      35.404  12.261  15.173  0.00  0.00     0.399 P 
HETATM   27  O   UNK N   1      36.353  11.856  16.334  0.00  0.00    -0.631 OA
BRANCH  26  28
HETATM   28  O   UNK N   1      34.833  10.782  14.467  0.00  0.00    -0.307 OA
HETATM   29  H   UNK N   1      34.813  10.146  13.734  0.00  0.00     0.222 HD
ENDBRANCH  26  28
BRANCH  26  30
HETATM   30  O   UNK N   1      34.091  13.178  15.842  0.00  0.00    -0.307 OA
HETATM   31  H   UNK N   1      33.916  14.001  16.323  0.00  0.00     0.222 HD
ENDBRANCH  26  30
ENDBRANCH  25  26
ENDBRANCH  23  25
BRANCH  23  32
HETATM   32  O   UNK N   1      37.195  13.686  12.502  0.00  0.00    -0.307 OA
HETATM   33  H   UNK N   1      38.098  13.378  12.678  0.00  0.00     0.222 HD
ENDBRANCH  23  32
ENDBRANCH  22  23
ENDBRANCH  20  22
BRANCH  20  34
HETATM   34  O   UNK N   1      33.841  14.984  11.244  0.00  0.00    -0.307 OA
HETATM   35  H   UNK N   1      33.349  14.533  11.947  0.00  0.00     0.222 HD
ENDBRANCH  20  34
ENDBRANCH  19  20
ENDBRANCH   1  19
TORSDOF 13
ENDMDL
MODEL 6
REMARK VINA RESULT:      -6.6      5.114      9.321
REMARK  13 active torsions:
REMARK  status: ('A' for Active; 'I' for Inactive)
REMARK    1  A    between atoms: C_1  and  N_2 
REMARK    2  A    between atoms: C_7  and  C_12 
REMARK    3  A    between atoms: C_8  and  O_13 
REMARK    4  A    between atoms: C_12  and  O_16 
REMARK    5  A    between atoms: O_16  and  P_18 
REMARK    6  A    between atoms: P_18  and  O_19 
REMARK    7  A    between atoms: P_18  and  O_20 
REMARK    8  A    between atoms: O_19  and  P_22 
REMARK    9  A    between atoms: P_22  and  O_23 
REMARK   10  A    between atoms: P_22  and  O_24 
REMARK   11  A    between atoms: O_23  and  P_26 
REMARK   12  A    between atoms: P_26  and  O_27 
REMARK   13  A    between atoms: P_26  and  O_28 
ROOT
HETATM    1  C   UNK N   1      34.986  16.563  10.850  0.00  0.00     0.215 C 
ENDROOT
BRANCH   1   2
HETATM    2  C   UNK N   1      35.106  15.036  10.839  0.00  0.00     0.177 C 
HETATM    3  O   UNK N   1      34.628  14.443  12.005  0.00  0.00    -0.356 OA
HETATM    4  C   UNK N   1      35.146  13.143  11.887  0.00  0.00     0.235 C 
HETATM    5  C   UNK N   1      36.582  13.280  11.420  0.00  0.00     0.088 C 
HETATM    6  C   UNK N   1      36.520  14.540  10.604  0.00  0.00     0.153 C 
BRANCH   4   7
HETATM    7  N   UNK N   1      35.001  12.371  13.131  0.00  0.00    -0.282 N 
HETATM    8  C   UNK N   1      34.541  11.067  13.108  0.00  0.00     0.331 A 
HETATM    9  N   UNK N   1      34.334  10.395  14.284  0.00  0.00    -0.275 N 
HETATM   10  O   UNK N   1      34.302  10.510  12.051  0.00  0.00    -0.246 OA
HETATM   11  C   UNK N   1      34.567  10.995  15.490  0.00  0.00     0.256 A 
HETATM   12  H   UNK N   1      34.012   9.464  14.260  0.00  0.00     0.173 HD
HETATM   13  O   UNK N   1      34.354  10.383  16.522  0.00  0.00    -0.267 OA
HETATM   14  C   UNK N   1      35.042  12.308  15.527  0.00  0.00     0.022 A 
HETATM   15  C   UNK N   1      35.252  12.977  14.327  0.00  0.00     0.110 A 
HETATM   16  C   UNK N   1      35.304  13.009  16.817  0.00  0.00     0.056 C 
ENDBRANCH   4   7
BRANCH   6  17
HETATM   17  O   UNK N   1      36.723  14.285   9.249  0.00  0.00    -0.393 OA
HETATM   18  H   UNK N   1      37.602  14.265   8.836  0.00  0.00     0.210 HD
ENDBRANCH   6  17
ENDBRANCH   1   2
BRANCH   1  19
HETATM   19  O   UNK N   1      35.400  17.258   9.676  0.00  0.00    -0.294 OA
BRANCH  19  20
HETATM   20  P   UNK N   1      34.115  17.557   8.485  0.00  0.00     0.401 P 
HETATM   21  O   UNK N   1      34.758  16.213   8.044  0.00  0.00    -0.631 OA
BRANCH  20  22
HETATM   22  O   UNK N   1      34.499  17.786   6.738  0.00  0.00    -0.195 OA
BRANCH  22  23
HETATM   23  P   UNK N   1      33.321  17.546   5.380  0.00  0.00     0.410 P 
HETATM   24  O   UNK N   1      32.188  17.338   6.417  0.00  0.00    -0.631 OA
BRANCH  23  25
HETATM   25  O   UNK N   1      32.744  15.919   5.126  0.00  0.00    -0.195 OA
BRANCH  25  26
HETATM   26  P   UNK N   1      32.255  15.793   3.457  0.00  0.00     0.399 P 
HETATM   27  O   UNK N   1      31.546  14.428   3.235  0.00  0.00    -0.631 OA
BRANCH  26  28
HETATM   28  O   UNK N   1      33.649  15.796   2.425  0.00  0.00    -0.307 OA
HETATM   29  H   UNK N   1      34.575  16.031   2.253  0.00  0.00     0.222 HD
ENDBRANCH  26  28
BRANCH  26  30
HETATM   30  O   UNK N   1      31.150  17.055   3.013  0.00  0.00    -0.307 OA
HETATM   31  H   UNK N   1      31.111  18.019   2.906  0.00  0.00     0.222 HD
ENDBRANCH  26  30
ENDBRANCH  25  26
ENDBRANCH  23  25
BRANCH  23  32
HETATM   32  O   UNK N   1      34.512  16.280   5.289  0.00  0.00    -0.307 OA
HETATM   33  H   UNK N   1      34.277  15.339   5.329  0.00  0.00     0.222 HD
ENDBRANCH  23  32
ENDBRANCH  22  23
ENDBRANCH  20  22
BRANCH  20  34
HETATM   34  O   UNK N   1      35.018  19.044   8.373  0.00  0.00    -0.307 OA
HETATM   35  H   UNK N   1      34.697  19.907   8.676  0.00  0.00     0.222 HD
ENDBRANCH  20  34
ENDBRANCH  19  20
ENDBRANCH   1  19
TORSDOF 13
ENDMDL
MODEL 7
REMARK VINA RESULT:      -6.5      7.486     13.646
REMARK  13 active torsions:
REMARK  status: ('A' for Active; 'I' for Inactive)
REMARK    1  A    between atoms: C_1  and  N_2 
REMARK    2  A    between atoms: C_7  and  C_12 
REMARK    3  A    between atoms: C_8  and  O_13 
REMARK    4  A    between atoms: C_12  and  O_16 
REMARK    5  A    between atoms: O_16  and  P_18 
REMARK    6  A    between atoms: P_18  and  O_19 
REMARK    7  A    between atoms: P_18  and  O_20 
REMARK    8  A    between atoms: O_19  and  P_22 
REMARK    9  A    between atoms: P_22  and  O_23 
REMARK   10  A    between atoms: P_22  and  O_24 
REMARK   11  A    between atoms: O_23  and  P_26 
REMARK   12  A    between atoms: P_26  and  O_27 
REMARK   13  A    between atoms: P_26  and  O_28 
ROOT
HETATM    1  C   UNK N   1      23.732  16.686   4.682  0.00  0.00     0.215 C 
ENDROOT
BRANCH   1   2
HETATM    2  C   UNK N   1      24.989  17.520   4.421  0.00  0.00     0.177 C 
HETATM    3  O   UNK N   1      26.113  17.035   5.085  0.00  0.00    -0.356 OA
HETATM    4  C   UNK N   1      26.996  18.120   4.963  0.00  0.00     0.235 C 
HETATM    5  C   UNK N   1      26.199  19.376   5.254  0.00  0.00     0.088 C 
HETATM    6  C   UNK N   1      24.829  18.986   4.775  0.00  0.00     0.153 C 
BRANCH   4   7
HETATM    7  N   UNK N   1      28.187  17.967   5.813  0.00  0.00    -0.282 N 
HETATM    8  C   UNK N   1      29.360  17.438   5.305  0.00  0.00     0.331 A 
HETATM    9  N   UNK N   1      30.430  17.226   6.134  0.00  0.00    -0.275 N 
HETATM   10  O   UNK N   1      29.449  17.142   4.127  0.00  0.00    -0.246 OA
HETATM   11  C   UNK N   1      30.358  17.522   7.467  0.00  0.00     0.256 A 
HETATM   12  H   UNK N   1      31.264  16.855   5.765  0.00  0.00     0.173 HD
HETATM   13  O   UNK N   1      31.316  17.303   8.188  0.00  0.00    -0.267 OA
HETATM   14  C   UNK N   1      29.183  18.066   7.992  0.00  0.00     0.022 A 
HETATM   15  C   UNK N   1      28.107  18.280   7.138  0.00  0.00     0.110 A 
HETATM   16  C   UNK N   1      29.052  18.398   9.439  0.00  0.00     0.056 C 
ENDBRANCH   4   7
BRANCH   6  17
HETATM   17  O   UNK N   1      24.451  19.717   3.649  0.00  0.00    -0.393 OA
HETATM   18  H   UNK N   1      24.379  19.329   2.762  0.00  0.00     0.210 HD
ENDBRANCH   6  17
ENDBRANCH   1   2
BRANCH   1  19
HETATM   19  O   UNK N   1      23.074  16.874   5.933  0.00  0.00    -0.294 OA
BRANCH  19  20
HETATM   20  P   UNK N   1      21.302  16.748   5.880  0.00  0.00     0.401 P 
HETATM   21  O   UNK N   1      21.768  16.381   4.444  0.00  0.00    -0.631 OA
BRANCH  20  22
HETATM   22  O   UNK N   1      20.323  17.809   4.799  0.00  0.00    -0.195 OA
BRANCH  22  23
HETATM   23  P   UNK N   1      20.947  18.612   3.297  0.00  0.00     0.410 P 
HETATM   24  O   UNK N   1      21.273  19.880   4.126  0.00  0.00    -0.631 OA
BRANCH  23  25
HETATM   25  O   UNK N   1      19.958  19.881   2.623  0.00  0.00    -0.195 OA
BRANCH  25  26
HETATM   26  P   UNK N   1      20.892  20.665   1.376  0.00  0.00     0.399 P 
HETATM   27  O   UNK N   1      20.775  19.847   0.061  0.00  0.00    -0.631 OA
BRANCH  26  28
HETATM   28  O   UNK N   1      22.573  20.668   1.804  0.00  0.00    -0.307 OA
HETATM   29  H   UNK N   1      23.316  21.026   2.316  0.00  0.00     0.222 HD
ENDBRANCH  26  28
BRANCH  26  30
HETATM   30  O   UNK N   1      20.326  22.275   1.065  0.00  0.00    -0.307 OA
HETATM   31  H   UNK N   1      19.596  22.747   0.635  0.00  0.00     0.222 HD
ENDBRANCH  26  30
ENDBRANCH  25  26
ENDBRANCH  23  25
BRANCH  23  32
HETATM   32  O   UNK N   1      19.256  18.269   3.062  0.00  0.00    -0.307 OA
HETATM   33  H   UNK N   1      18.887  18.040   2.194  0.00  0.00     0.222 HD
ENDBRANCH  23  32
ENDBRANCH  22  23
ENDBRANCH  20  22
BRANCH  20  34
HETATM   34  O   UNK N   1      21.495  18.372   6.481  0.00  0.00    -0.307 OA
HETATM   35  H   UNK N   1      21.807  18.596   7.372  0.00  0.00     0.222 HD
ENDBRANCH  20  34
ENDBRANCH  19  20
ENDBRANCH   1  19
TORSDOF 13
ENDMDL
MODEL 8
REMARK VINA RESULT:      -6.5     15.949     19.672
REMARK  13 active torsions:
REMARK  status: ('A' for Active; 'I' for Inactive)
REMARK    1  A    between atoms: C_1  and  N_2 
REMARK    2  A    between atoms: C_7  and  C_12 
REMARK    3  A    between atoms: C_8  and  O_13 
REMARK    4  A    between atoms: C_12  and  O_16 
REMARK    5  A    between atoms: O_16  and  P_18 
REMARK    6  A    between atoms: P_18  and  O_19 
REMARK    7  A    between atoms: P_18  and  O_20 
REMARK    8  A    between atoms: O_19  and  P_22 
REMARK    9  A    between atoms: P_22  and  O_23 
REMARK   10  A    between atoms: P_22  and  O_24 
REMARK   11  A    between atoms: O_23  and  P_26 
REMARK   12  A    between atoms: P_26  and  O_27 
REMARK   13  A    between atoms: P_26  and  O_28 
ROOT
HETATM    1  C   UNK N   1      29.300  24.911  -3.857  0.00  0.00     0.215 C 
ENDROOT
BRANCH   1   2
HETATM    2  C   UNK N   1      30.352  23.800  -3.801  0.00  0.00     0.177 C 
HETATM    3  O   UNK N   1      30.572  23.194  -5.036  0.00  0.00    -0.356 OA
HETATM    4  C   UNK N   1      31.282  22.043  -4.658  0.00  0.00     0.235 C 
HETATM    5  C   UNK N   1      30.584  21.472  -3.440  0.00  0.00     0.088 C 
HETATM    6  C   UNK N   1      30.032  22.711  -2.794  0.00  0.00     0.153 C 
BRANCH   4   7
HETATM    7  N   UNK N   1      31.417  21.083  -5.765  0.00  0.00    -0.282 N 
HETATM    8  C   UNK N   1      32.637  20.881  -6.384  0.00  0.00     0.331 A 
HETATM    9  N   UNK N   1      32.723  20.046  -7.467  0.00  0.00    -0.275 N 
HETATM   10  O   UNK N   1      33.639  21.449  -5.987  0.00  0.00    -0.246 OA
HETATM   11  C   UNK N   1      31.616  19.410  -7.957  0.00  0.00     0.256 A 
HETATM   12  H   UNK N   1      33.596  19.901  -7.900  0.00  0.00     0.173 HD
HETATM   13  O   UNK N   1      31.715  18.690  -8.935  0.00  0.00    -0.267 OA
HETATM   14  C   UNK N   1      30.380  19.598  -7.335  0.00  0.00     0.022 A 
HETATM   15  C   UNK N   1      30.307  20.444  -6.234  0.00  0.00     0.110 A 
HETATM   16  C   UNK N   1      29.142  18.934  -7.836  0.00  0.00     0.056 C 
ENDBRANCH   4   7
BRANCH   6  17
HETATM   17  O   UNK N   1      30.659  22.980  -1.578  0.00  0.00    -0.393 OA
HETATM   18  H   UNK N   1      30.178  23.242  -0.776  0.00  0.00     0.210 HD
ENDBRANCH   6  17
ENDBRANCH   1   2
BRANCH   1  19
HETATM   19  O   UNK N   1      28.003  24.607  -3.350  0.00  0.00    -0.294 OA
BRANCH  19  20
HETATM   20  P   UNK N   1      26.724  25.749  -3.816  0.00  0.00     0.401 P 
HETATM   21  O   UNK N   1      25.990  24.394  -3.614  0.00  0.00    -0.631 OA
BRANCH  20  22
HETATM   22  O   UNK N   1      25.772  25.516  -5.330  0.00  0.00    -0.195 OA
BRANCH  22  23
HETATM   23  P   UNK N   1      26.422  24.788  -6.858  0.00  0.00     0.410 P 
HETATM   24  O   UNK N   1      26.068  26.093  -7.616  0.00  0.00    -0.631 OA
BRANCH  23  25
HETATM   25  O   UNK N   1      25.247  24.329  -8.064  0.00  0.00    -0.195 OA
BRANCH  25  26
HETATM   26  P   UNK N   1      25.434  22.618  -8.350  0.00  0.00     0.399 P 
HETATM   27  O   UNK N   1      25.712  22.381  -9.859  0.00  0.00    -0.631 OA
BRANCH  26  28
HETATM   28  O   UNK N   1      23.954  21.788  -7.987  0.00  0.00    -0.307 OA
HETATM   29  H   UNK N   1      23.195  21.627  -7.404  0.00  0.00     0.222 HD
ENDBRANCH  26  28
BRANCH  26  30
HETATM   30  O   UNK N   1      26.756  21.955  -7.444  0.00  0.00    -0.307 OA
HETATM   31  H   UNK N   1      26.972  21.210  -6.861  0.00  0.00     0.222 HD
ENDBRANCH  26  30
ENDBRANCH  25  26
ENDBRANCH  23  25
BRANCH  23  32
HETATM   32  O   UNK N   1      25.071  23.822  -6.333  0.00  0.00    -0.307 OA
HETATM   33  H   UNK N   1      25.182  22.942  -5.941  0.00  0.00     0.222 HD
ENDBRANCH  23  32
ENDBRANCH  22  23
ENDBRANCH  20  22
BRANCH  20  34
HETATM   34  O   UNK N   1      27.843  25.957  -5.135  0.00  0.00    -0.307 OA
HETATM   35  H   UNK N   1      27.597  26.253  -6.025  0.00  0.00     0.222 HD
ENDBRANCH  20  34
ENDBRANCH  19  20
ENDBRANCH   1  19
TORSDOF 13
ENDMDL
MODEL 9
REMARK VINA RESULT:      -6.3      7.112     10.931
REMARK  13 active torsions:
REMARK  status: ('A' for Active; 'I' for Inactive)
REMARK    1  A    between atoms: C_1  and  N_2 
REMARK    2  A    between atoms: C_7  and  C_12 
REMARK    3  A    between atoms: C_8  and  O_13 
REMARK    4  A    between atoms: C_12  and  O_16 
REMARK    5  A    between atoms: O_16  and  P_18 
REMARK    6  A    between atoms: P_18  and  O_19 
REMARK    7  A    between atoms: P_18  and  O_20 
REMARK    8  A    between atoms: O_19  and  P_22 
REMARK    9  A    between atoms: P_22  and  O_23 
REMARK   10  A    between atoms: P_22  and  O_24 
REMARK   11  A    between atoms: O_23  and  P_26 
REMARK   12  A    between atoms: P_26  and  O_27 
REMARK   13  A    between atoms: P_26  and  O_28 
ROOT
HETATM    1  C   UNK N   1      36.448  13.729  14.207  0.00  0.00     0.215 C 
ENDROOT
BRANCH   1   2
HETATM    2  C   UNK N   1      35.490  13.055  15.195  0.00  0.00     0.177 C 
HETATM    3  O   UNK N   1      36.031  12.919  16.471  0.00  0.00    -0.356 OA
HETATM    4  C   UNK N   1      35.136  12.009  17.056  0.00  0.00     0.235 C 
HETATM    5  C   UNK N   1      34.867  10.929  16.027  0.00  0.00     0.088 C 
HETATM    6  C   UNK N   1      35.011  11.690  14.740  0.00  0.00     0.153 C 
BRANCH   4   7
HETATM    7  N   UNK N   1      35.629  11.490  18.342  0.00  0.00    -0.282 N 
HETATM    8  C   UNK N   1      35.522  12.240  19.499  0.00  0.00     0.331 A 
HETATM    9  N   UNK N   1      36.063  11.774  20.668  0.00  0.00    -0.275 N 
HETATM   10  O   UNK N   1      34.963  13.323  19.489  0.00  0.00    -0.246 OA
HETATM   11  C   UNK N   1      36.720  10.576  20.712  0.00  0.00     0.256 A 
HETATM   12  H   UNK N   1      35.978  12.310  21.489  0.00  0.00     0.173 HD
HETATM   13  O   UNK N   1      37.212  10.193  21.759  0.00  0.00    -0.267 OA
HETATM   14  C   UNK N   1      36.826   9.803  19.553  0.00  0.00     0.022 A 
HETATM   15  C   UNK N   1      36.269  10.286  18.375  0.00  0.00     0.110 A 
HETATM   16  C   UNK N   1      37.539   8.493  19.548  0.00  0.00     0.056 C 
ENDBRANCH   4   7
BRANCH   6  17
HETATM   17  O   UNK N   1      33.792  11.805  14.072  0.00  0.00    -0.393 OA
HETATM   18  H   UNK N   1      33.305  12.641  13.991  0.00  0.00     0.210 HD
ENDBRANCH   6  17
ENDBRANCH   1   2
BRANCH   1  19
HETATM   19  O   UNK N   1      35.875  14.302  13.034  0.00  0.00    -0.294 OA
BRANCH  19  20
HETATM   20  P   UNK N   1      35.922  13.269  11.589  0.00  0.00     0.401 P 
HETATM   21  O   UNK N   1      36.747  14.528  11.203  0.00  0.00    -0.631 OA
BRANCH  20  22
HETATM   22  O   UNK N   1      35.210  13.818  10.026  0.00  0.00    -0.195 OA
BRANCH  22  23
HETATM   23  P   UNK N   1      34.909  15.550   9.578  0.00  0.00     0.410 P 
HETATM   24  O   UNK N   1      33.384  15.301   9.691  0.00  0.00    -0.631 OA
BRANCH  23  25
HETATM   25  O   UNK N   1      34.266  15.842   7.983  0.00  0.00    -0.195 OA
BRANCH  25  26
HETATM   26  P   UNK N   1      33.986  17.558   7.839  0.00  0.00     0.399 P 
HETATM   27  O   UNK N   1      35.033  18.319   8.697  0.00  0.00    -0.631 OA
BRANCH  26  28
HETATM   28  O   UNK N   1      32.430  17.965   8.489  0.00  0.00    -0.307 OA
HETATM   29  H   UNK N   1      31.484  17.777   8.602  0.00  0.00     0.222 HD
ENDBRANCH  26  28
BRANCH  26  30
HETATM   30  O   UNK N   1      34.134  18.098   6.197  0.00  0.00    -0.307 OA
HETATM   31  H   UNK N   1      34.762  18.097   5.458  0.00  0.00     0.222 HD
ENDBRANCH  26  30
ENDBRANCH  25  26
ENDBRANCH  23  25
BRANCH  23  32
HETATM   32  O   UNK N   1      35.710  14.778   8.238  0.00  0.00    -0.307 OA
HETATM   33  H   UNK N   1      35.583  13.840   8.025  0.00  0.00     0.222 HD
ENDBRANCH  23  32
ENDBRANCH  22  23
ENDBRANCH  20  22
BRANCH  20  34
HETATM   34  O   UNK N   1      34.203  13.387  11.849  0.00  0.00    -0.307 OA
HETATM   35  H   UNK N   1      33.623  12.636  12.047  0.00  0.00     0.222 HD
ENDBRANCH  20  34
ENDBRANCH  19  20
ENDBRANCH   1  19
TORSDOF 13
ENDMDL
