MODEL 1
REMARK VINA RESULT:      -4.5      0.000      0.000
REMARK  6 active torsions:
REMARK  status: ('A' for Active; 'I' for Inactive)
REMARK    1  A    between atoms: C_2  and  N_1 
REMARK    2  A    between atoms: C_2  and  C_3 
REMARK    3  A    between atoms: C_2  and  C_7 
REMARK    4  A    between atoms: C_3  and  S_4 
REMARK    5  A    between atoms: S_4  and  O_5 
REMARK    6  A    between atoms: C_7  and  O_8 
ROOT
HETATM    1  C   UNK N   1      34.197  17.136   9.209  0.00  0.00     0.187 C 
ENDROOT
BRANCH   1   2
HETATM    2  N   UNK N   1      34.987  17.231  10.427  0.00  0.00    -0.417 N 
HETATM    3  H   UNK N   1      34.537  17.327  11.338  0.00  0.00     0.150 HD
HETATM    4  H   UNK N   1      36.004  17.203  10.370  0.00  0.00     0.150 HD
ENDBRANCH   1   2
BRANCH   1   5
HETATM    5  C   UNK N   1      34.259  15.717   8.669  0.00  0.00     0.174 C 
BRANCH   5   6
HETATM    6  S   UNK N   1      32.731  14.832   9.111  0.00  0.00     0.152 S 
HETATM    7  O   UNK N   1      31.878  16.102   8.974  0.00  0.00    -0.229 OA
BRANCH   6   8
HETATM    8  O   UNK N   1      32.978  15.095  10.789  0.00  0.00    -0.306 OA
HETATM    9  H   UNK N   1      33.069  15.929  11.277  0.00  0.00     0.230 HD
ENDBRANCH   6   8
ENDBRANCH   5   6
ENDBRANCH   1   5
BRANCH   1  10
HETATM   10  C   UNK N   1      34.672  18.132   8.188  0.00  0.00     0.163 C 
HETATM   11  O   UNK N   1      34.437  17.945   7.004  0.00  0.00    -0.648 OA
BRANCH  10  12
HETATM   12  O   UNK N   1      35.318  19.252   8.568  0.00  0.00    -0.775 OA
HETATM   13  H   UNK N   1      35.533  19.958   7.993  0.00  0.00     0.167 HD
ENDBRANCH  10  12
ENDBRANCH   1  10
TORSDOF 6
ENDMDL
MODEL 2
REMARK VINA RESULT:      -4.4      1.645      1.723
REMARK  6 active torsions:
REMARK  status: ('A' for Active; 'I' for Inactive)
REMARK    1  A    between atoms: C_2  and  N_1 
REMARK    2  A    between atoms: C_2  and  C_3 
REMARK    3  A    between atoms: C_2  and  C_7 
REMARK    4  A    between atoms: C_3  and  S_4 
REMARK    5  A    between atoms: S_4  and  O_5 
REMARK    6  A    between atoms: C_7  and  O_8 
ROOT
HETATM    1  C   UNK N   1      34.098  16.957   8.782  0.00  0.00     0.187 C 
ENDROOT
BRANCH   1   2
HETATM    2  N   UNK N   1      32.696  17.134   9.131  0.00  0.00    -0.417 N 
HETATM    3  H   UNK N   1      32.336  16.815  10.031  0.00  0.00     0.150 HD
HETATM    4  H   UNK N   1      32.066  17.582   8.468  0.00  0.00     0.150 HD
ENDBRANCH   1   2
BRANCH   1   5
HETATM    5  C   UNK N   1      34.920  16.767  10.046  0.00  0.00     0.174 C 
BRANCH   5   6
HETATM    6  S   UNK N   1      34.963  15.001  10.483  0.00  0.00     0.152 S 
HETATM    7  O   UNK N   1      34.410  14.582   9.113  0.00  0.00    -0.229 OA
BRANCH   6   8
HETATM    8  O   UNK N   1      33.394  15.059  11.177  0.00  0.00    -0.306 OA
HETATM    9  H   UNK N   1      33.134  15.161  12.106  0.00  0.00     0.230 HD
ENDBRANCH   6   8
ENDBRANCH   5   6
ENDBRANCH   1   5
BRANCH   1  10
HETATM   10  C   UNK N   1      34.596  18.122   7.974  0.00  0.00     0.163 C 
HETATM   11  O   UNK N   1      34.374  18.167   6.774  0.00  0.00    -0.648 OA
BRANCH  10  12
HETATM   12  O   UNK N   1      35.249  19.141   8.567  0.00  0.00    -0.775 OA
HETATM   13  H   UNK N   1      35.953  19.035   9.175  0.00  0.00     0.167 HD
ENDBRANCH  10  12
ENDBRANCH   1  10
TORSDOF 6
ENDMDL
MODEL 3
REMARK VINA RESULT:      -4.2      2.454      2.651
REMARK  6 active torsions:
REMARK  status: ('A' for Active; 'I' for Inactive)
REMARK    1  A    between atoms: C_2  and  N_1 
REMARK    2  A    between atoms: C_2  and  C_3 
REMARK    3  A    between atoms: C_2  and  C_7 
REMARK    4  A    between atoms: C_3  and  S_4 
REMARK    5  A    between atoms: S_4  and  O_5 
REMARK    6  A    between atoms: C_7  and  O_8 
ROOT
HETATM    1  C   UNK N   1      34.047  16.107   8.322  0.00  0.00     0.187 C 
ENDROOT
BRANCH   1   2
HETATM    2  N   UNK N   1      33.146  16.803   9.229  0.00  0.00    -0.417 N 
HETATM    3  H   UNK N   1      32.233  17.129   8.913  0.00  0.00     0.150 HD
HETATM    4  H   UNK N   1      33.433  16.968  10.193  0.00  0.00     0.150 HD
ENDBRANCH   1   2
BRANCH   1   5
HETATM    5  C   UNK N   1      35.269  15.625   9.087  0.00  0.00     0.174 C 
BRANCH   5   6
HETATM    6  S   UNK N   1      35.310  16.415  10.726  0.00  0.00     0.152 S 
HETATM    7  O   UNK N   1      35.637  17.791  10.128  0.00  0.00    -0.229 OA
BRANCH   6   8
HETATM    8  O   UNK N   1      36.970  16.039  10.947  0.00  0.00    -0.306 OA
HETATM    9  H   UNK N   1      37.403  15.561  11.672  0.00  0.00     0.230 HD
ENDBRANCH   6   8
ENDBRANCH   5   6
ENDBRANCH   1   5
BRANCH   1  10
HETATM   10  C   UNK N   1      34.435  16.994   7.173  0.00  0.00     0.163 C 
HETATM   11  O   UNK N   1      34.576  16.515   6.058  0.00  0.00    -0.648 OA
BRANCH  10  12
HETATM   12  O   UNK N   1      34.587  18.321   7.349  0.00  0.00    -0.775 OA
HETATM   13  H   UNK N   1      35.415  18.758   7.384  0.00  0.00     0.167 HD
ENDBRANCH  10  12
ENDBRANCH   1  10
TORSDOF 6
ENDMDL
MODEL 4
REMARK VINA RESULT:      -4.0     14.862     15.384
REMARK  6 active torsions:
REMARK  status: ('A' for Active; 'I' for Inactive)
REMARK    1  A    between atoms: C_2  and  N_1 
REMARK    2  A    between atoms: C_2  and  C_3 
REMARK    3  A    between atoms: C_2  and  C_7 
REMARK    4  A    between atoms: C_3  and  S_4 
REMARK    5  A    between atoms: S_4  and  O_5 
REMARK    6  A    between atoms: C_7  and  O_8 
ROOT
HETATM    1  C   UNK N   1      20.257  18.966   1.909  0.00  0.00     0.187 C 
ENDROOT
BRANCH   1   2
HETATM    2  N   UNK N   1      18.877  19.254   2.271  0.00  0.00    -0.417 N 
HETATM    3  H   UNK N   1      18.614  19.424   3.242  0.00  0.00     0.150 HD
HETATM    4  H   UNK N   1      18.164  19.286   1.543  0.00  0.00     0.150 HD
ENDBRANCH   1   2
BRANCH   1   5
HETATM    5  C   UNK N   1      21.018  18.490   3.136  0.00  0.00     0.174 C 
BRANCH   5   6
HETATM    6  S   UNK N   1      20.718  16.712   3.384  0.00  0.00     0.152 S 
HETATM    7  O   UNK N   1      20.300  16.512   1.920  0.00  0.00    -0.229 OA
BRANCH   6   8
HETATM    8  O   UNK N   1      19.098  16.980   3.883  0.00  0.00    -0.306 OA
HETATM    9  H   UNK N   1      18.298  17.099   3.347  0.00  0.00     0.230 HD
ENDBRANCH   6   8
ENDBRANCH   5   6
ENDBRANCH   1   5
BRANCH   1  10
HETATM   10  C   UNK N   1      20.909  20.173   1.295  0.00  0.00     0.163 C 
HETATM   11  O   UNK N   1      21.726  20.814   1.937  0.00  0.00    -0.648 OA
BRANCH  10  12
HETATM   12  O   UNK N   1      20.633  20.532   0.026  0.00  0.00    -0.775 OA
HETATM   13  H   UNK N   1      20.403  19.932  -0.655  0.00  0.00     0.167 HD
ENDBRANCH  10  12
ENDBRANCH   1  10
TORSDOF 6
ENDMDL
MODEL 5
REMARK VINA RESULT:      -4.0     12.516     13.218
REMARK  6 active torsions:
REMARK  status: ('A' for Active; 'I' for Inactive)
REMARK    1  A    between atoms: C_2  and  N_1 
REMARK    2  A    between atoms: C_2  and  C_3 
REMARK    3  A    between atoms: C_2  and  C_7 
REMARK    4  A    between atoms: C_3  and  S_4 
REMARK    5  A    between atoms: S_4  and  O_5 
REMARK    6  A    between atoms: C_7  and  O_8 
ROOT
HETATM    1  C   UNK N   1      43.831  22.967   3.103  0.00  0.00     0.187 C 
ENDROOT
BRANCH   1   2
HETATM    2  N   UNK N   1      43.502  23.996   4.079  0.00  0.00    -0.417 N 
HETATM    3  H   UNK N   1      42.770  23.845   4.773  0.00  0.00     0.150 HD
HETATM    4  H   UNK N   1      44.010  24.879   4.068  0.00  0.00     0.150 HD
ENDBRANCH   1   2
BRANCH   1   5
HETATM    5  C   UNK N   1      42.552  22.360   2.550  0.00  0.00     0.174 C 
BRANCH   5   6
HETATM    6  S   UNK N   1      42.038  23.277   1.065  0.00  0.00     0.152 S 
HETATM    7  O   UNK N   1      43.240  24.229   1.156  0.00  0.00    -0.229 OA
BRANCH   6   8
HETATM    8  O   UNK N   1      41.040  24.337   1.975  0.00  0.00    -0.306 OA
HETATM    9  H   UNK N   1      40.324  24.128   2.596  0.00  0.00     0.230 HD
ENDBRANCH   6   8
ENDBRANCH   5   6
ENDBRANCH   1   5
BRANCH   1  10
HETATM   10  C   UNK N   1      44.716  21.918   3.714  0.00  0.00     0.163 C 
HETATM   11  O   UNK N   1      44.379  20.745   3.679  0.00  0.00    -0.648 OA
BRANCH  10  12
HETATM   12  O   UNK N   1      45.900  22.252   4.264  0.00  0.00    -0.775 OA
HETATM   13  H   UNK N   1      46.039  22.382   5.181  0.00  0.00     0.167 HD
ENDBRANCH  10  12
ENDBRANCH   1  10
TORSDOF 6
ENDMDL
MODEL 6
REMARK VINA RESULT:      -3.9      2.259      2.583
REMARK  6 active torsions:
REMARK  status: ('A' for Active; 'I' for Inactive)
REMARK    1  A    between atoms: C_2  and  N_1 
REMARK    2  A    between atoms: C_2  and  C_3 
REMARK    3  A    between atoms: C_2  and  C_7 
REMARK    4  A    between atoms: C_3  and  S_4 
REMARK    5  A    between atoms: S_4  and  O_5 
REMARK    6  A    between atoms: C_7  and  O_8 
ROOT
HETATM    1  C   UNK N   1      34.617  15.396  10.787  0.00  0.00     0.187 C 
ENDROOT
BRANCH   1   2
HETATM    2  N   UNK N   1      34.931  14.399  11.799  0.00  0.00    -0.417 N 
HETATM    3  H   UNK N   1      34.591  14.499  12.756  0.00  0.00     0.150 HD
HETATM    4  H   UNK N   1      35.499  13.591  11.549  0.00  0.00     0.150 HD
ENDBRANCH   1   2
BRANCH   1   5
HETATM    5  C   UNK N   1      34.326  14.706   9.464  0.00  0.00     0.174 C 
BRANCH   5   6
HETATM    6  S   UNK N   1      32.552  14.849   9.083  0.00  0.00     0.152 S 
HETATM    7  O   UNK N   1      32.665  16.356   8.808  0.00  0.00    -0.229 OA
BRANCH   6   8
HETATM    8  O   UNK N   1      32.144  15.109  10.730  0.00  0.00    -0.306 OA
HETATM    9  H   UNK N   1      32.385  14.591  11.514  0.00  0.00     0.230 HD
ENDBRANCH   6   8
ENDBRANCH   5   6
ENDBRANCH   1   5
BRANCH   1  10
HETATM   10  C   UNK N   1      35.738  16.388  10.652  0.00  0.00     0.163 C 
HETATM   11  O   UNK N   1      35.492  17.540  10.328  0.00  0.00    -0.648 OA
BRANCH  10  12
HETATM   12  O   UNK N   1      37.008  16.033  10.926  0.00  0.00    -0.775 OA
HETATM   13  H   UNK N   1      37.412  16.121  11.766  0.00  0.00     0.167 HD
ENDBRANCH  10  12
ENDBRANCH   1  10
TORSDOF 6
ENDMDL
MODEL 7
REMARK VINA RESULT:      -3.8      1.948      4.021
REMARK  6 active torsions:
REMARK  status: ('A' for Active; 'I' for Inactive)
REMARK    1  A    between atoms: C_2  and  N_1 
REMARK    2  A    between atoms: C_2  and  C_3 
REMARK    3  A    between atoms: C_2  and  C_7 
REMARK    4  A    between atoms: C_3  and  S_4 
REMARK    5  A    between atoms: S_4  and  O_5 
REMARK    6  A    between atoms: C_7  and  O_8 
ROOT
HETATM    1  C   UNK N   1      34.395  15.525   9.024  0.00  0.00     0.187 C 
ENDROOT
BRANCH   1   2
HETATM    2  N   UNK N   1      35.469  14.874   8.289  0.00  0.00    -0.417 N 
HETATM    3  H   UNK N   1      35.375  14.668   7.295  0.00  0.00     0.150 HD
HETATM    4  H   UNK N   1      36.328  14.620   8.776  0.00  0.00     0.150 HD
ENDBRANCH   1   2
BRANCH   1   5
HETATM    5  C   UNK N   1      34.818  16.933   9.408  0.00  0.00     0.174 C 
BRANCH   5   6
HETATM    6  S   UNK N   1      34.041  18.130   8.278  0.00  0.00     0.152 S 
HETATM    7  O   UNK N   1      34.724  17.513   7.049  0.00  0.00    -0.229 OA
BRANCH   6   8
HETATM    8  O   UNK N   1      35.306  19.269   8.498  0.00  0.00    -0.306 OA
HETATM    9  H   UNK N   1      35.593  19.991   7.917  0.00  0.00     0.230 HD
ENDBRANCH   6   8
ENDBRANCH   5   6
ENDBRANCH   1   5
BRANCH   1  10
HETATM   10  C   UNK N   1      34.013  14.718  10.233  0.00  0.00     0.163 C 
HETATM   11  O   UNK N   1      34.629  13.699  10.501  0.00  0.00    -0.648 OA
BRANCH  10  12
HETATM   12  O   UNK N   1      33.023  15.130  11.050  0.00  0.00    -0.775 OA
HETATM   13  H   UNK N   1      32.125  15.208  10.795  0.00  0.00     0.167 HD
ENDBRANCH  10  12
ENDBRANCH   1  10
TORSDOF 6
ENDMDL
MODEL 8
REMARK VINA RESULT:      -3.8      3.137      3.705
REMARK  6 active torsions:
REMARK  status: ('A' for Active; 'I' for Inactive)
REMARK    1  A    between atoms: C_2  and  N_1 
REMARK    2  A    between atoms: C_2  and  C_3 
REMARK    3  A    between atoms: C_2  and  C_7 
REMARK    4  A    between atoms: C_3  and  S_4 
REMARK    5  A    between atoms: S_4  and  O_5 
REMARK    6  A    between atoms: C_7  and  O_8 
ROOT
HETATM    1  C   UNK N   1      34.758  15.491  10.505  0.00  0.00     0.187 C 
ENDROOT
BRANCH   1   2
HETATM    2  N   UNK N   1      33.435  14.942  10.766  0.00  0.00    -0.417 N 
HETATM    3  H   UNK N   1      33.253  14.392  11.605  0.00  0.00     0.150 HD
HETATM    4  H   UNK N   1      32.682  15.110  10.101  0.00  0.00     0.150 HD
ENDBRANCH   1   2
BRANCH   1   5
HETATM    5  C   UNK N   1      35.572  15.495  11.788  0.00  0.00     0.174 C 
BRANCH   5   6
HETATM    6  S   UNK N   1      35.999  13.785  12.242  0.00  0.00     0.152 S 
HETATM    7  O   UNK N   1      34.725  13.620  13.083  0.00  0.00    -0.229 OA
BRANCH   6   8
HETATM    8  O   UNK N   1      36.915  14.297  13.600  0.00  0.00    -0.306 OA
HETATM    9  H   UNK N   1      37.355  15.146  13.763  0.00  0.00     0.230 HD
ENDBRANCH   6   8
ENDBRANCH   5   6
ENDBRANCH   1   5
BRANCH   1  10
HETATM   10  C   UNK N   1      34.655  16.869   9.916  0.00  0.00     0.163 C 
HETATM   11  O   UNK N   1      35.569  17.664  10.069  0.00  0.00    -0.648 OA
BRANCH  10  12
HETATM   12  O   UNK N   1      33.581  17.226   9.183  0.00  0.00    -0.775 OA
HETATM   13  H   UNK N   1      32.738  17.419   9.542  0.00  0.00     0.167 HD
ENDBRANCH  10  12
ENDBRANCH   1  10
TORSDOF 6
ENDMDL
MODEL 9
REMARK VINA RESULT:      -3.8      3.797      4.364
REMARK  6 active torsions:
REMARK  status: ('A' for Active; 'I' for Inactive)
REMARK    1  A    between atoms: C_2  and  N_1 
REMARK    2  A    between atoms: C_2  and  C_3 
REMARK    3  A    between atoms: C_2  and  C_7 
REMARK    4  A    between atoms: C_3  and  S_4 
REMARK    5  A    between atoms: S_4  and  O_5 
REMARK    6  A    between atoms: C_7  and  O_8 
ROOT
HETATM    1  C   UNK N   1      34.804  14.880  10.806  0.00  0.00     0.187 C 
ENDROOT
BRANCH   1   2
HETATM    2  N   UNK N   1      33.384  15.200  10.810  0.00  0.00    -0.417 N 
HETATM    3  H   UNK N   1      32.838  15.153  11.670  0.00  0.00     0.150 HD
HETATM    4  H   UNK N   1      32.929  15.474   9.940  0.00  0.00     0.150 HD
ENDBRANCH   1   2
BRANCH   1   5
HETATM    5  C   UNK N   1      35.141  14.042  12.029  0.00  0.00     0.174 C 
BRANCH   5   6
HETATM    6  S   UNK N   1      36.139  12.606  11.523  0.00  0.00     0.152 S 
HETATM    7  O   UNK N   1      36.014  11.950  12.906  0.00  0.00    -0.229 OA
BRANCH   6   8
HETATM    8  O   UNK N   1      37.608  13.385  11.948  0.00  0.00    -0.306 OA
HETATM    9  H   UNK N   1      38.458  12.998  12.209  0.00  0.00     0.230 HD
ENDBRANCH   6   8
ENDBRANCH   5   6
ENDBRANCH   1   5
BRANCH   1  10
HETATM   10  C   UNK N   1      35.631  16.134  10.756  0.00  0.00     0.163 C 
HETATM   11  O   UNK N   1      35.082  17.217  10.628  0.00  0.00    -0.648 OA
BRANCH  10  12
HETATM   12  O   UNK N   1      36.970  16.080  10.891  0.00  0.00    -0.775 OA
HETATM   13  H   UNK N   1      37.500  15.355  10.626  0.00  0.00     0.167 HD
ENDBRANCH  10  12
ENDBRANCH   1  10
TORSDOF 6
ENDMDL
