MODEL 1
REMARK VINA RESULT:      -3.8      0.000      0.000
REMARK  0 active torsions:
REMARK  status: ('A' for Active; 'I' for Inactive)
ROOT
HETATM    1  I   UNK N   1      34.591  10.834  14.800  0.00  0.00    -0.045 I 
HETATM    2  C   UNK N   1      34.911  11.677  16.697  0.00  0.00     0.006 A 
HETATM    3  C   UNK N   1      35.100  10.848  17.806  0.00  0.00     0.018 A 
HETATM    4  C   UNK N   1      35.313  11.411  19.068  0.00  0.00     0.001 A 
HETATM    5  C   UNK N   1      35.336  12.800  19.218  0.00  0.00     0.000 A 
HETATM    6  C   UNK N   1      35.147  13.629  18.107  0.00  0.00     0.001 A 
HETATM    7  C   UNK N   1      34.934  13.066  16.846  0.00  0.00     0.018 A 
ENDROOT
TORSDOF 0
ENDMDL
MODEL 2
REMARK VINA RESULT:      -3.8     13.414     14.080
REMARK  0 active torsions:
REMARK  status: ('A' for Active; 'I' for Inactive)
ROOT
HETATM    1  I   UNK N   1      20.912  14.299   8.926  0.00  0.00    -0.045 I 
HETATM    2  C   UNK N   1      22.441  13.277   9.939  0.00  0.00     0.006 A 
HETATM    3  C   UNK N   1      22.144  12.530  11.083  0.00  0.00     0.018 A 
HETATM    4  C   UNK N   1      23.164  11.851  11.756  0.00  0.00     0.001 A 
HETATM    5  C   UNK N   1      24.478  11.918  11.284  0.00  0.00     0.000 A 
HETATM    6  C   UNK N   1      24.774  12.665  10.139  0.00  0.00     0.001 A 
HETATM    7  C   UNK N   1      23.754  13.345   9.466  0.00  0.00     0.018 A 
ENDROOT
TORSDOF 0
ENDMDL
MODEL 3
REMARK VINA RESULT:      -3.7      1.281      2.230
REMARK  0 active torsions:
REMARK  status: ('A' for Active; 'I' for Inactive)
ROOT
HETATM    1  I   UNK N   1      35.533   8.978  17.358  0.00  0.00    -0.045 I 
HETATM    2  C   UNK N   1      35.372  11.025  17.797  0.00  0.00     0.006 A 
HETATM    3  C   UNK N   1      35.260  11.955  16.759  0.00  0.00     0.018 A 
HETATM    4  C   UNK N   1      35.152  13.318  17.053  0.00  0.00     0.001 A 
HETATM    5  C   UNK N   1      35.157  13.747  18.383  0.00  0.00     0.000 A 
HETATM    6  C   UNK N   1      35.269  12.816  19.421  0.00  0.00     0.001 A 
HETATM    7  C   UNK N   1      35.376  11.454  19.127  0.00  0.00     0.018 A 
ENDROOT
TORSDOF 0
ENDMDL
MODEL 4
REMARK VINA RESULT:      -3.7     13.116     13.796
REMARK  0 active torsions:
REMARK  status: ('A' for Active; 'I' for Inactive)
ROOT
HETATM    1  I   UNK N   1      24.678  13.430   7.649  0.00  0.00    -0.045 I 
HETATM    2  C   UNK N   1      23.824  12.802   9.461  0.00  0.00     0.006 A 
HETATM    3  C   UNK N   1      24.645  12.362  10.504  0.00  0.00     0.018 A 
HETATM    4  C   UNK N   1      24.074  11.944  11.710  0.00  0.00     0.001 A 
HETATM    5  C   UNK N   1      22.686  11.968  11.872  0.00  0.00     0.000 A 
HETATM    6  C   UNK N   1      21.866  12.409  10.828  0.00  0.00     0.001 A 
HETATM    7  C   UNK N   1      22.437  12.826   9.622  0.00  0.00     0.018 A 
ENDROOT
TORSDOF 0
ENDMDL
MODEL 5
REMARK VINA RESULT:      -3.5     28.907     29.434
REMARK  0 active torsions:
REMARK  status: ('A' for Active; 'I' for Inactive)
ROOT
HETATM    1  I   UNK N   1      26.311  26.008  -7.956  0.00  0.00    -0.045 I 
HETATM    2  C   UNK N   1      26.374  27.352  -6.343  0.00  0.00     0.006 A 
HETATM    3  C   UNK N   1      27.332  28.369  -6.319  0.00  0.00     0.018 A 
HETATM    4  C   UNK N   1      27.372  29.263  -5.244  0.00  0.00     0.001 A 
HETATM    5  C   UNK N   1      26.455  29.137  -4.197  0.00  0.00     0.000 A 
HETATM    6  C   UNK N   1      25.497  28.119  -4.222  0.00  0.00     0.001 A 
HETATM    7  C   UNK N   1      25.457  27.226  -5.297  0.00  0.00     0.018 A 
ENDROOT
TORSDOF 0
ENDMDL
MODEL 6
REMARK VINA RESULT:      -3.4     11.755     12.618
REMARK  0 active torsions:
REMARK  status: ('A' for Active; 'I' for Inactive)
ROOT
HETATM    1  I   UNK N   1      32.533  16.691   3.504  0.00  0.00    -0.045 I 
HETATM    2  C   UNK N   1      32.528  17.167   5.550  0.00  0.00     0.006 A 
HETATM    3  C   UNK N   1      31.345  17.066   6.287  0.00  0.00     0.018 A 
HETATM    4  C   UNK N   1      31.344  17.384   7.649  0.00  0.00     0.001 A 
HETATM    5  C   UNK N   1      32.524  17.802   8.270  0.00  0.00     0.000 A 
HETATM    6  C   UNK N   1      33.707  17.903   7.531  0.00  0.00     0.001 A 
HETATM    7  C   UNK N   1      33.708  17.585   6.169  0.00  0.00     0.018 A 
ENDROOT
TORSDOF 0
ENDMDL
MODEL 7
REMARK VINA RESULT:      -3.4     29.150     29.561
REMARK  0 active torsions:
REMARK  status: ('A' for Active; 'I' for Inactive)
ROOT
HETATM    1  I   UNK N   1      28.947  28.525  -7.700  0.00  0.00    -0.045 I 
HETATM    2  C   UNK N   1      27.357  28.205  -6.367  0.00  0.00     0.006 A 
HETATM    3  C   UNK N   1      26.410  27.212  -6.634  0.00  0.00     0.018 A 
HETATM    4  C   UNK N   1      25.352  27.001  -5.745  0.00  0.00     0.001 A 
HETATM    5  C   UNK N   1      25.243  27.782  -4.591  0.00  0.00     0.000 A 
HETATM    6  C   UNK N   1      26.190  28.776  -4.325  0.00  0.00     0.001 A 
HETATM    7  C   UNK N   1      27.248  28.987  -5.214  0.00  0.00     0.018 A 
ENDROOT
TORSDOF 0
ENDMDL
MODEL 8
REMARK VINA RESULT:      -3.3     11.394     12.288
REMARK  0 active torsions:
REMARK  status: ('A' for Active; 'I' for Inactive)
ROOT
HETATM    1  I   UNK N   1      29.699  17.722   9.027  0.00  0.00    -0.045 I 
HETATM    2  C   UNK N   1      31.413  17.590   7.821  0.00  0.00     0.006 A 
HETATM    3  C   UNK N   1      32.654  17.996   8.323  0.00  0.00     0.018 A 
HETATM    4  C   UNK N   1      33.793  17.907   7.519  0.00  0.00     0.001 A 
HETATM    5  C   UNK N   1      33.692  17.413   6.215  0.00  0.00     0.000 A 
HETATM    6  C   UNK N   1      32.451  17.006   5.714  0.00  0.00     0.001 A 
HETATM    7  C   UNK N   1      31.311  17.096   6.519  0.00  0.00     0.018 A 
ENDROOT
TORSDOF 0
ENDMDL
MODEL 9
REMARK VINA RESULT:      -3.3     11.637     12.291
REMARK  0 active torsions:
REMARK  status: ('A' for Active; 'I' for Inactive)
ROOT
HETATM    1  I   UNK N   1      32.121  16.790   6.398  0.00  0.00    -0.045 I 
HETATM    2  C   UNK N   1      30.510  17.395   7.602  0.00  0.00     0.006 A 
HETATM    3  C   UNK N   1      30.750  18.093   8.790  0.00  0.00     0.018 A 
HETATM    4  C   UNK N   1      29.677  18.495   9.590  0.00  0.00     0.001 A 
HETATM    5  C   UNK N   1      28.367  18.199   9.203  0.00  0.00     0.000 A 
HETATM    6  C   UNK N   1      28.128  17.501   8.014  0.00  0.00     0.001 A 
HETATM    7  C   UNK N   1      29.201  17.099   7.214  0.00  0.00     0.018 A 
ENDROOT
TORSDOF 0
ENDMDL
