MODEL 1
REMARK VINA RESULT:      -5.4      0.000      0.000
REMARK  4 active torsions:
REMARK  status: ('A' for Active; 'I' for Inactive)
REMARK    1  A    between atoms: C_4  and  S_13 
REMARK    2  A    between atoms: C_5  and  C_6 
REMARK    3  A    between atoms: O_9  and  C_6 
REMARK    4  A    between atoms: S_13  and  O_10 
ROOT
HETATM    1  C   UNK N   1      34.563  13.188   9.930  0.00  0.00     0.012 C 
HETATM    2  C   UNK N   1      34.975  15.302   8.584  0.00  0.00     0.049 C 
HETATM    3  C   UNK N   1      34.248  14.664   9.744  0.00  0.00     0.017 C 
HETATM    4  C   UNK N   1      35.090  16.771   9.002  0.00  0.00     0.215 C 
HETATM    5  C   UNK N   1      34.608  15.562  10.925  0.00  0.00     0.180 C 
HETATM    6  N   UNK N   1      34.567  16.904  10.365  0.00  0.00    -0.390 N 
HETATM    7  H   UNK N   1      34.243  17.755  10.823  0.00  0.00     0.155 HD
ENDROOT
BRANCH   4   8
HETATM    8  S   UNK N   1      34.189  17.939   7.941  0.00  0.00     0.117 S 
HETATM    9  O   UNK N   1      34.725  19.339   8.270  0.00  0.00    -0.600 OA
HETATM   10  O   UNK N   1      32.713  18.126   8.324  0.00  0.00    -0.600 OA
BRANCH   8  11
HETATM   11  O   UNK N   1      34.256  17.900   6.226  0.00  0.00    -0.294 OA
HETATM   12  H   UNK N   1      33.626  18.089   5.511  0.00  0.00     0.232 HD
ENDBRANCH   8  11
ENDBRANCH   4   8
BRANCH   5  13
HETATM   13  C   UNK N   1      35.977  15.319  11.537  0.00  0.00     0.163 C 
HETATM   14  O   UNK N   1      36.073  14.727  12.601  0.00  0.00    -0.648 OA
BRANCH  13  15
HETATM   15  O   UNK N   1      37.087  15.802  10.947  0.00  0.00    -0.775 OA
HETATM   16  H   UNK N   1      37.329  15.619  10.061  0.00  0.00     0.167 HD
ENDBRANCH  13  15
ENDBRANCH   5  13
TORSDOF 4
ENDMDL
MODEL 2
REMARK VINA RESULT:      -5.0     12.490     13.409
REMARK  4 active torsions:
REMARK  status: ('A' for Active; 'I' for Inactive)
REMARK    1  A    between atoms: C_4  and  S_13 
REMARK    2  A    between atoms: C_5  and  C_6 
REMARK    3  A    between atoms: O_9  and  C_6 
REMARK    4  A    between atoms: S_13  and  O_10 
ROOT
HETATM    1  C   UNK N   1      23.904  11.175   8.621  0.00  0.00     0.012 C 
HETATM    2  C   UNK N   1      22.739  13.431   8.696  0.00  0.00     0.049 C 
HETATM    3  C   UNK N   1      22.636  11.946   8.957  0.00  0.00     0.017 C 
HETATM    4  C   UNK N   1      21.750  14.035   9.698  0.00  0.00     0.215 C 
HETATM    5  C   UNK N   1      22.195  11.873  10.416  0.00  0.00     0.180 C 
HETATM    6  N   UNK N   1      21.231  12.955  10.542  0.00  0.00    -0.390 N 
HETATM    7  H   UNK N   1      20.377  12.961  11.098  0.00  0.00     0.155 HD
ENDROOT
BRANCH   4   8
HETATM    8  S   UNK N   1      20.333  14.892   8.950  0.00  0.00     0.117 S 
HETATM    9  O   UNK N   1      19.092  14.478   9.753  0.00  0.00    -0.600 OA
HETATM   10  O   UNK N   1      19.938  14.360   7.564  0.00  0.00    -0.600 OA
BRANCH   8  11
HETATM   11  O   UNK N   1      20.191  16.602   8.884  0.00  0.00    -0.294 OA
HETATM   12  H   UNK N   1      20.551  17.339   9.403  0.00  0.00     0.232 HD
ENDBRANCH   8  11
ENDBRANCH   4   8
BRANCH   5  13
HETATM   13  C   UNK N   1      23.297  12.065  11.444  0.00  0.00     0.163 C 
HETATM   14  O   UNK N   1      23.073  11.851  12.626  0.00  0.00    -0.648 OA
BRANCH  13  15
HETATM   15  O   UNK N   1      24.507  12.525  11.073  0.00  0.00    -0.775 OA
HETATM   16  H   UNK N   1      25.063  13.037  11.627  0.00  0.00     0.167 HD
ENDBRANCH  13  15
ENDBRANCH   5  13
TORSDOF 4
ENDMDL
MODEL 3
REMARK VINA RESULT:      -5.0      4.199      5.383
REMARK  4 active torsions:
REMARK  status: ('A' for Active; 'I' for Inactive)
REMARK    1  A    between atoms: C_4  and  S_13 
REMARK    2  A    between atoms: C_5  and  C_6 
REMARK    3  A    between atoms: O_9  and  C_6 
REMARK    4  A    between atoms: S_13  and  O_10 
ROOT
HETATM    1  C   UNK N   1      28.758  17.020   6.643  0.00  0.00     0.012 C 
HETATM    2  C   UNK N   1      31.090  16.363   7.406  0.00  0.00     0.049 C 
HETATM    3  C   UNK N   1      30.092  17.480   7.209  0.00  0.00     0.017 C 
HETATM    4  C   UNK N   1      31.967  16.870   8.555  0.00  0.00     0.215 C 
HETATM    5  C   UNK N   1      30.024  18.141   8.584  0.00  0.00     0.180 C 
HETATM    6  N   UNK N   1      31.405  18.134   9.040  0.00  0.00    -0.390 N 
HETATM    7  H   UNK N   1      31.881  18.855   9.582  0.00  0.00     0.155 HD
ENDROOT
BRANCH   4   8
HETATM    8  S   UNK N   1      33.706  17.162   8.116  0.00  0.00     0.117 S 
HETATM    9  O   UNK N   1      34.347  15.783   7.906  0.00  0.00    -0.600 OA
HETATM   10  O   UNK N   1      34.568  17.679   9.277  0.00  0.00    -0.600 OA
BRANCH   8  11
HETATM   11  O   UNK N   1      34.193  18.025   6.714  0.00  0.00    -0.294 OA
HETATM   12  H   UNK N   1      34.446  18.944   6.529  0.00  0.00     0.232 HD
ENDBRANCH   8  11
ENDBRANCH   4   8
BRANCH   5  13
HETATM   13  C   UNK N   1      29.157  17.431   9.609  0.00  0.00     0.163 C 
HETATM   14  O   UNK N   1      27.942  17.551   9.569  0.00  0.00    -0.648 OA
BRANCH  13  15
HETATM   15  O   UNK N   1      29.717  16.712  10.601  0.00  0.00    -0.775 OA
HETATM   16  H   UNK N   1      29.353  16.638  11.461  0.00  0.00     0.167 HD
ENDBRANCH  13  15
ENDBRANCH   5  13
TORSDOF 4
ENDMDL
MODEL 4
REMARK VINA RESULT:      -4.8      1.890      2.485
REMARK  4 active torsions:
REMARK  status: ('A' for Active; 'I' for Inactive)
REMARK    1  A    between atoms: C_4  and  S_13 
REMARK    2  A    between atoms: C_5  and  C_6 
REMARK    3  A    between atoms: O_9  and  C_6 
REMARK    4  A    between atoms: S_13  and  O_10 
ROOT
HETATM    1  C   UNK N   1      37.267  12.754  10.942  0.00  0.00     0.012 C 
HETATM    2  C   UNK N   1      36.556  15.125  10.372  0.00  0.00     0.049 C 
HETATM    3  C   UNK N   1      36.120  13.699  10.617  0.00  0.00     0.017 C 
HETATM    4  C   UNK N   1      35.326  15.945  10.773  0.00  0.00     0.215 C 
HETATM    5  C   UNK N   1      35.059  13.836  11.707  0.00  0.00     0.180 C 
HETATM    6  N   UNK N   1      34.322  15.030  11.325  0.00  0.00    -0.390 N 
HETATM    7  H   UNK N   1      33.320  15.195  11.420  0.00  0.00     0.155 HD
ENDROOT
BRANCH   4   8
HETATM    8  S   UNK N   1      34.552  16.875   9.418  0.00  0.00     0.117 S 
HETATM    9  O   UNK N   1      34.922  16.150   8.116  0.00  0.00    -0.600 OA
HETATM   10  O   UNK N   1      35.195  18.243   9.148  0.00  0.00    -0.600 OA
BRANCH   8  11
HETATM   11  O   UNK N   1      32.855  17.086   9.267  0.00  0.00    -0.294 OA
HETATM   12  H   UNK N   1      32.099  17.012   9.871  0.00  0.00     0.232 HD
ENDBRANCH   8  11
ENDBRANCH   4   8
BRANCH   5  13
HETATM   13  C   UNK N   1      35.590  14.008  13.119  0.00  0.00     0.163 C 
HETATM   14  O   UNK N   1      34.941  13.598  14.070  0.00  0.00    -0.648 OA
BRANCH  13  15
HETATM   15  O   UNK N   1      36.746  14.663  13.342  0.00  0.00    -0.775 OA
HETATM   16  H   UNK N   1      37.339  14.921  12.664  0.00  0.00     0.167 HD
ENDBRANCH  13  15
ENDBRANCH   5  13
TORSDOF 4
ENDMDL
MODEL 5
REMARK VINA RESULT:      -4.7      3.529      6.050
REMARK  4 active torsions:
REMARK  status: ('A' for Active; 'I' for Inactive)
REMARK    1  A    between atoms: C_4  and  S_13 
REMARK    2  A    between atoms: C_5  and  C_6 
REMARK    3  A    between atoms: O_9  and  C_6 
REMARK    4  A    between atoms: S_13  and  O_10 
ROOT
HETATM    1  C   UNK N   1      35.161  12.847   9.966  0.00  0.00     0.012 C 
HETATM    2  C   UNK N   1      35.263  12.932  12.503  0.00  0.00     0.049 C 
HETATM    3  C   UNK N   1      35.915  13.325  11.198  0.00  0.00     0.017 C 
HETATM    4  C   UNK N   1      35.714  14.032  13.469  0.00  0.00     0.215 C 
HETATM    5  C   UNK N   1      36.071  14.838  11.321  0.00  0.00     0.180 C 
HETATM    6  N   UNK N   1      36.466  15.035  12.707  0.00  0.00    -0.390 N 
HETATM    7  H   UNK N   1      37.124  15.722  13.071  0.00  0.00     0.155 HD
ENDROOT
BRANCH   4   8
HETATM    8  S   UNK N   1      36.767  13.463  14.836  0.00  0.00     0.117 S 
HETATM    9  O   UNK N   1      35.829  12.892  15.908  0.00  0.00    -0.600 OA
HETATM   10  O   UNK N   1      37.422  14.598  15.638  0.00  0.00    -0.600 OA
BRANCH   8  11
HETATM   11  O   UNK N   1      37.949  12.229  14.667  0.00  0.00    -0.294 OA
HETATM   12  H   UNK N   1      38.076  11.347  15.049  0.00  0.00     0.232 HD
ENDBRANCH   8  11
ENDBRANCH   4   8
BRANCH   5  13
HETATM   13  C   UNK N   1      34.819  15.650  11.039  0.00  0.00     0.163 C 
HETATM   14  O   UNK N   1      34.915  16.812  10.672  0.00  0.00    -0.648 OA
BRANCH  13  15
HETATM   15  O   UNK N   1      33.598  15.121  11.244  0.00  0.00    -0.775 OA
HETATM   16  H   UNK N   1      33.349  14.261  10.968  0.00  0.00     0.167 HD
ENDBRANCH  13  15
ENDBRANCH   5  13
TORSDOF 4
ENDMDL
MODEL 6
REMARK VINA RESULT:      -4.7      3.066      5.192
REMARK  4 active torsions:
REMARK  status: ('A' for Active; 'I' for Inactive)
REMARK    1  A    between atoms: C_4  and  S_13 
REMARK    2  A    between atoms: C_5  and  C_6 
REMARK    3  A    between atoms: O_9  and  C_6 
REMARK    4  A    between atoms: S_13  and  O_10 
ROOT
HETATM    1  C   UNK N   1      30.377  17.049   6.937  0.00  0.00     0.012 C 
HETATM    2  C   UNK N   1      32.299  17.163   8.594  0.00  0.00     0.049 C 
HETATM    3  C   UNK N   1      31.604  16.363   7.517  0.00  0.00     0.017 C 
HETATM    4  C   UNK N   1      33.753  16.692   8.502  0.00  0.00     0.215 C 
HETATM    5  C   UNK N   1      32.720  16.069   6.518  0.00  0.00     0.180 C 
HETATM    6  N   UNK N   1      33.871  15.781   7.359  0.00  0.00    -0.390 N 
HETATM    7  H   UNK N   1      34.604  15.092   7.191  0.00  0.00     0.155 HD
ENDROOT
BRANCH   4   8
HETATM    8  S   UNK N   1      34.370  15.826   9.975  0.00  0.00     0.117 S 
HETATM    9  O   UNK N   1      35.087  16.874  10.837  0.00  0.00    -0.600 OA
HETATM   10  O   UNK N   1      35.540  14.870   9.698  0.00  0.00    -0.600 OA
BRANCH   8  11
HETATM   11  O   UNK N   1      33.344  15.040  11.106  0.00  0.00    -0.294 OA
HETATM   12  H   UNK N   1      33.484  14.434  11.851  0.00  0.00     0.232 HD
ENDBRANCH   8  11
ENDBRANCH   4   8
BRANCH   5  13
HETATM   13  C   UNK N   1      33.067  17.204   5.571  0.00  0.00     0.163 C 
HETATM   14  O   UNK N   1      32.431  17.354   4.539  0.00  0.00    -0.648 OA
BRANCH  13  15
HETATM   15  O   UNK N   1      34.109  18.018   5.829  0.00  0.00    -0.775 OA
HETATM   16  H   UNK N   1      34.124  18.930   5.617  0.00  0.00     0.167 HD
ENDBRANCH  13  15
ENDBRANCH   5  13
TORSDOF 4
ENDMDL
MODEL 7
REMARK VINA RESULT:      -4.7      2.737      4.914
REMARK  4 active torsions:
REMARK  status: ('A' for Active; 'I' for Inactive)
REMARK    1  A    between atoms: C_4  and  S_13 
REMARK    2  A    between atoms: C_5  and  C_6 
REMARK    3  A    between atoms: O_9  and  C_6 
REMARK    4  A    between atoms: S_13  and  O_10 
ROOT
HETATM    1  C   UNK N   1      33.438  17.537   5.377  0.00  0.00     0.012 C 
HETATM    2  C   UNK N   1      34.392  16.189   7.307  0.00  0.00     0.049 C 
HETATM    3  C   UNK N   1      33.710  17.464   6.872  0.00  0.00     0.017 C 
HETATM    4  C   UNK N   1      33.930  16.017   8.757  0.00  0.00     0.215 C 
HETATM    5  C   UNK N   1      32.471  17.525   7.763  0.00  0.00     0.180 C 
HETATM    6  N   UNK N   1      32.952  17.068   9.057  0.00  0.00    -0.390 N 
HETATM    7  H   UNK N   1      32.671  17.407   9.976  0.00  0.00     0.155 HD
ENDROOT
BRANCH   4   8
HETATM    8  S   UNK N   1      35.254  16.113   9.998  0.00  0.00     0.117 S 
HETATM    9  O   UNK N   1      34.671  15.572  11.310  0.00  0.00    -0.600 OA
HETATM   10  O   UNK N   1      35.601  17.544  10.435  0.00  0.00    -0.600 OA
BRANCH   8  11
HETATM   11  O   UNK N   1      36.739  15.262   9.861  0.00  0.00    -0.294 OA
HETATM   12  H   UNK N   1      37.182  14.767   9.153  0.00  0.00     0.232 HD
ENDBRANCH   8  11
ENDBRANCH   4   8
BRANCH   5  13
HETATM   13  C   UNK N   1      31.308  16.652   7.327  0.00  0.00     0.163 C 
HETATM   14  O   UNK N   1      30.218  17.155   7.099  0.00  0.00    -0.648 OA
BRANCH  13  15
HETATM   15  O   UNK N   1      31.448  15.314   7.243  0.00  0.00    -0.775 OA
HETATM   16  H   UNK N   1      31.162  14.805   6.510  0.00  0.00     0.167 HD
ENDBRANCH  13  15
ENDBRANCH   5  13
TORSDOF 4
ENDMDL
MODEL 8
REMARK VINA RESULT:      -4.6     10.889     12.389
REMARK  4 active torsions:
REMARK  status: ('A' for Active; 'I' for Inactive)
REMARK    1  A    between atoms: C_4  and  S_13 
REMARK    2  A    between atoms: C_5  and  C_6 
REMARK    3  A    between atoms: O_9  and  C_6 
REMARK    4  A    between atoms: S_13  and  O_10 
ROOT
HETATM    1  C   UNK N   1      42.579  19.911  -0.092  0.00  0.00     0.012 C 
HETATM    2  C   UNK N   1      43.336  20.576   2.240  0.00  0.00     0.049 C 
HETATM    3  C   UNK N   1      42.790  21.037   0.909  0.00  0.00     0.017 C 
HETATM    4  C   UNK N   1      42.809  21.626   3.222  0.00  0.00     0.215 C 
HETATM    5  C   UNK N   1      41.532  21.813   1.292  0.00  0.00     0.180 C 
HETATM    6  N   UNK N   1      41.924  22.538   2.491  0.00  0.00    -0.390 N 
HETATM    7  H   UNK N   1      41.643  23.479   2.764  0.00  0.00     0.155 HD
ENDROOT
BRANCH   4   8
HETATM    8  S   UNK N   1      44.093  22.624   4.034  0.00  0.00     0.117 S 
HETATM    9  O   UNK N   1      43.715  22.707   5.520  0.00  0.00    -0.600 OA
HETATM   10  O   UNK N   1      44.053  24.115   3.670  0.00  0.00    -0.600 OA
BRANCH   8  11
HETATM   11  O   UNK N   1      45.748  22.170   4.087  0.00  0.00    -0.294 OA
HETATM   12  H   UNK N   1      46.586  22.649   4.182  0.00  0.00     0.232 HD
ENDBRANCH   8  11
ENDBRANCH   4   8
BRANCH   5  13
HETATM   13  C   UNK N   1      40.309  20.968   1.598  0.00  0.00     0.163 C 
HETATM   14  O   UNK N   1      39.680  20.451   0.687  0.00  0.00    -0.648 OA
BRANCH  13  15
HETATM   15  O   UNK N   1      39.872  20.826   2.865  0.00  0.00    -0.775 OA
HETATM   16  H   UNK N   1      39.808  21.533   3.477  0.00  0.00     0.167 HD
ENDBRANCH  13  15
ENDBRANCH   5  13
TORSDOF 4
ENDMDL
MODEL 9
REMARK VINA RESULT:      -4.6      1.544      2.255
REMARK  4 active torsions:
REMARK  status: ('A' for Active; 'I' for Inactive)
REMARK    1  A    between atoms: C_4  and  S_13 
REMARK    2  A    between atoms: C_5  and  C_6 
REMARK    3  A    between atoms: O_9  and  C_6 
REMARK    4  A    between atoms: S_13  and  O_10 
ROOT
HETATM    1  C   UNK N   1      33.845  12.938   7.526  0.00  0.00     0.012 C 
HETATM    2  C   UNK N   1      34.721  15.320   7.621  0.00  0.00     0.049 C 
HETATM    3  C   UNK N   1      33.609  14.367   7.990  0.00  0.00     0.017 C 
HETATM    4  C   UNK N   1      34.648  16.391   8.714  0.00  0.00     0.215 C 
HETATM    5  C   UNK N   1      33.475  14.548   9.500  0.00  0.00     0.180 C 
HETATM    6  N   UNK N   1      33.637  15.980   9.693  0.00  0.00    -0.390 N 
HETATM    7  H   UNK N   1      33.152  16.573  10.366  0.00  0.00     0.155 HD
ENDROOT
BRANCH   4   8
HETATM    8  S   UNK N   1      34.214  18.054   8.125  0.00  0.00     0.117 S 
HETATM    9  O   UNK N   1      34.403  18.048   6.602  0.00  0.00    -0.600 OA
HETATM   10  O   UNK N   1      35.229  19.141   8.511  0.00  0.00    -0.600 OA
BRANCH   8  11
HETATM   11  O   UNK N   1      32.654  18.744   8.313  0.00  0.00    -0.294 OA
HETATM   12  H   UNK N   1      32.145  19.426   7.845  0.00  0.00     0.232 HD
ENDBRANCH   8  11
ENDBRANCH   4   8
BRANCH   5  13
HETATM   13  C   UNK N   1      34.503  13.812  10.342  0.00  0.00     0.163 C 
HETATM   14  O   UNK N   1      35.552  14.361  10.643  0.00  0.00    -0.648 OA
BRANCH  13  15
HETATM   15  O   UNK N   1      34.295  12.533  10.714  0.00  0.00    -0.775 OA
HETATM   16  H   UNK N   1      34.187  12.260  11.603  0.00  0.00     0.167 HD
ENDBRANCH  13  15
ENDBRANCH   5  13
TORSDOF 4
ENDMDL
