REMARK  5 active torsions:
REMARK  status: ('A' for Active; 'I' for Inactive)
REMARK       I    between atoms: C_2  and  N_4 
REMARK    1  A    between atoms: C_5  and  N_4 
REMARK    2  A    between atoms: C_5  and  C_6 
REMARK    3  A    between atoms: C_5  and  C_8 
REMARK    4  A    between atoms: C_6  and  O_7 
REMARK    5  A    between atoms: C_8  and  O_9 
ROOT
HETATM    1  C   UNK N   1       1.851  -1.418  -0.000  0.00  0.00     0.206 C 
ENDROOT
BRANCH   1   2
HETATM    2  N   UNK N   1       0.651  -0.587  -0.000  0.00  0.00    -0.345 N 
HETATM    3  C   UNK N   1       0.479   0.759  -0.000  0.00  0.00     0.214 C 
HETATM    4  C   UNK N   1      -0.907   1.302   0.000  0.00  0.00     0.117 C 
HETATM    5  O   UNK N   1       1.417   1.534  -0.000  0.00  0.00    -0.274 OA
HETATM    6  H   UNK N   1      -0.190  -1.098   0.000  0.00  0.00     0.163 HD
ENDBRANCH   1   2
BRANCH   1   7
HETATM    7  C   UNK N   1       1.496  -2.911   0.000  0.00  0.00     0.200 C 
BRANCH   7   8
HETATM    8  O   UNK N   1       2.611  -3.748  -0.000  0.00  0.00    -0.398 OA
HETATM    9  H   UNK N   1       2.494  -4.711  -0.000  0.00  0.00     0.209 HD
ENDBRANCH   7   8
ENDBRANCH   1   7
BRANCH   1  10
HETATM   10  C   UNK N   1       3.292  -0.904   0.000  0.00  0.00     0.165 C 
HETATM   11  O   UNK N   1       4.217  -1.700   0.000  0.00  0.00    -0.648 OA
BRANCH  10  12
HETATM   12  O   UNK N   1       3.583   0.407   0.000  0.00  0.00    -0.775 OA
HETATM   13  H   UNK N   1       4.477   0.688  -0.000  0.00  0.00     0.167 HD
ENDBRANCH  10  12
ENDBRANCH   1  10
TORSDOF 5
