MODEL 1
REMARK VINA RESULT:      -6.1      0.000      0.000
REMARK  16 active torsions:
REMARK  status: ('A' for Active; 'I' for Inactive)
REMARK    1  A    between atoms: C_3  and  C_1 
REMARK    2  A    between atoms: C_3  and  C_2 
REMARK    3  A    between atoms: O_23  and  C_2 
REMARK    4  A    between atoms: C_5  and  O_13 
REMARK    5  A    between atoms: C_6  and  O_14 
REMARK    6  A    between atoms: O_26  and  C_7 
REMARK    7  A    between atoms: C_8  and  O_24 
REMARK    8  A    between atoms: C_9  and  O_25 
REMARK    9  A    between atoms: P_27  and  O_16 
REMARK   10  A    between atoms: P_28  and  O_18 
REMARK   11  A    between atoms: P_28  and  O_19 
REMARK   12  A    between atoms: P_29  and  O_21 
REMARK   13  A    between atoms: P_29  and  O_23 
REMARK   14  A    between atoms: P_27  and  O_24 
REMARK   15  A    between atoms: P_28  and  O_25 
REMARK   16  A    between atoms: P_29  and  O_26 
ROOT
HETATM    1  C   UNK N   1      18.001  17.174   8.902  0.00  0.00     0.244 C 
HETATM    2  O   UNK N   1      17.463  18.141   9.752  0.00  0.00    -0.394 OA
HETATM    3  H   UNK N   1      17.037  18.678  10.437  0.00  0.00     0.209 HD
ENDROOT
BRANCH   1   4
HETATM    4  C   UNK N   1      19.481  17.347   8.804  0.00  0.00     0.174 C 
HETATM    5  O   UNK N   1      19.957  18.467   8.712  0.00  0.00    -0.293 OA
BRANCH   4   6
HETATM    6  C   UNK N   1      20.366  16.136   8.841  0.00  0.00     0.261 C 
BRANCH   6   7
HETATM    7  O   UNK N   1      19.858  15.106   8.043  0.00  0.00    -0.289 OA
BRANCH   7   8
HETATM    8  P   UNK N   1      21.160  13.970   7.800  0.00  0.00     0.393 P 
HETATM    9  O   UNK N   1      21.747  13.651   9.202  0.00  0.00    -0.631 OA
BRANCH   8  10
HETATM   10  O   UNK N   1      20.606  12.470   7.115  0.00  0.00    -0.307 OA
HETATM   11  H   UNK N   1      20.333  11.624   7.503  0.00  0.00     0.222 HD
ENDBRANCH   8  10
BRANCH   8  12
HETATM   12  O   UNK N   1      22.391  14.695   6.777  0.00  0.00    -0.286 OA
BRANCH  12  13
HETATM   13  C   UNK N   1      21.885  15.737   5.963  0.00  0.00     0.196 C 
HETATM   14  C   UNK N   1      22.728  17.022   6.055  0.00  0.00     0.181 C 
HETATM   15  C   UNK N   1      22.074  18.158   5.210  0.00  0.00     0.181 C 
HETATM   16  O   UNK N   1      24.024  16.758   5.600  0.00  0.00    -0.390 OA
HETATM   17  C   UNK N   1      21.385  17.689   3.876  0.00  0.00     0.197 C 
HETATM   18  C   UNK N   1      21.998  16.346   3.428  0.00  0.00     0.197 C 
HETATM   19  C   UNK N   1      21.844  15.218   4.490  0.00  0.00     0.182 C 
HETATM   20  H   UNK N   1      24.882  16.634   5.166  0.00  0.00     0.210 HD
BRANCH  15  21
HETATM   21  O   UNK N   1      21.116  18.818   5.987  0.00  0.00    -0.390 OA
HETATM   22  H   UNK N   1      20.350  18.787   6.582  0.00  0.00     0.210 HD
ENDBRANCH  15  21
BRANCH  17  23
HETATM   23  O   UNK N   1      21.572  18.610   2.815  0.00  0.00    -0.286 OA
BRANCH  23  24
HETATM   24  P   UNK N   1      20.175  19.634   2.567  0.00  0.00     0.391 P 
HETATM   25  O   UNK N   1      20.289  20.652   1.167  0.00  0.00    -0.307 OA
HETATM   26  H   UNK N   1      20.494  21.284   0.459  0.00  0.00     0.222 HD
HETATM   27  O   UNK N   1      20.110  20.580   3.794  0.00  0.00    -0.632 OA
BRANCH  24  28
HETATM   28  O   UNK N   1      18.702  18.712   2.596  0.00  0.00    -0.307 OA
HETATM   29  H   UNK N   1      18.611  17.764   2.415  0.00  0.00     0.222 HD
ENDBRANCH  24  28
ENDBRANCH  23  24
ENDBRANCH  17  23
BRANCH  18  30
HETATM   30  O   UNK N   1      21.640  15.911   2.123  0.00  0.00    -0.286 OA
BRANCH  30  31
HETATM   31  P   UNK N   1      20.080  15.113   2.104  0.00  0.00     0.391 P 
HETATM   32  O   UNK N   1      19.878  16.282   1.102  0.00  0.00    -0.632 OA
BRANCH  31  33
HETATM   33  O   UNK N   1      21.292  14.020   1.509  0.00  0.00    -0.307 OA
HETATM   34  H   UNK N   1      22.220  13.934   1.776  0.00  0.00     0.222 HD
ENDBRANCH  31  33
BRANCH  31  35
HETATM   35  O   UNK N   1      19.529  14.314   0.665  0.00  0.00    -0.307 OA
HETATM   36  H   UNK N   1      19.137  13.429   0.719  0.00  0.00     0.222 HD
ENDBRANCH  31  35
ENDBRANCH  30  31
ENDBRANCH  18  30
BRANCH  19  37
HETATM   37  O   UNK N   1      22.869  14.292   4.263  0.00  0.00    -0.390 OA
HETATM   38  H   UNK N   1      23.383  13.860   3.563  0.00  0.00     0.210 HD
ENDBRANCH  19  37
ENDBRANCH  12  13
ENDBRANCH   8  12
ENDBRANCH   7   8
ENDBRANCH   6   7
ENDBRANCH   4   6
ENDBRANCH   1   4
TORSDOF 16
ENDMDL
MODEL 2
REMARK VINA RESULT:      -6.0      1.660      2.281
REMARK  16 active torsions:
REMARK  status: ('A' for Active; 'I' for Inactive)
REMARK    1  A    between atoms: C_3  and  C_1 
REMARK    2  A    between atoms: C_3  and  C_2 
REMARK    3  A    between atoms: O_23  and  C_2 
REMARK    4  A    between atoms: C_5  and  O_13 
REMARK    5  A    between atoms: C_6  and  O_14 
REMARK    6  A    between atoms: O_26  and  C_7 
REMARK    7  A    between atoms: C_8  and  O_24 
REMARK    8  A    between atoms: C_9  and  O_25 
REMARK    9  A    between atoms: P_27  and  O_16 
REMARK   10  A    between atoms: P_28  and  O_18 
REMARK   11  A    between atoms: P_28  and  O_19 
REMARK   12  A    between atoms: P_29  and  O_21 
REMARK   13  A    between atoms: P_29  and  O_23 
REMARK   14  A    between atoms: P_27  and  O_24 
REMARK   15  A    between atoms: P_28  and  O_25 
REMARK   16  A    between atoms: P_29  and  O_26 
ROOT
HETATM    1  C   UNK N   1      19.658  19.104   9.822  0.00  0.00     0.244 C 
HETATM    2  O   UNK N   1      19.105  19.836  10.873  0.00  0.00    -0.394 OA
HETATM    3  H   UNK N   1      18.718  20.475  11.491  0.00  0.00     0.209 HD
ENDROOT
BRANCH   1   4
HETATM    4  C   UNK N   1      18.776  17.945   9.489  0.00  0.00     0.174 C 
HETATM    5  O   UNK N   1      17.668  17.860   9.994  0.00  0.00    -0.293 OA
BRANCH   4   6
HETATM    6  C   UNK N   1      19.260  16.908   8.519  0.00  0.00     0.261 C 
BRANCH   6   7
HETATM    7  O   UNK N   1      20.551  16.473   8.837  0.00  0.00    -0.289 OA
BRANCH   7   8
HETATM    8  P   UNK N   1      20.475  14.735   8.974  0.00  0.00     0.393 P 
HETATM    9  O   UNK N   1      21.780  14.282   9.684  0.00  0.00    -0.631 OA
BRANCH   8  10
HETATM   10  O   UNK N   1      19.140  14.209   9.956  0.00  0.00    -0.307 OA
HETATM   11  H   UNK N   1      18.962  14.246  10.909  0.00  0.00     0.222 HD
ENDBRANCH   8  10
BRANCH   8  12
HETATM   12  O   UNK N   1      20.377  14.022   7.371  0.00  0.00    -0.286 OA
BRANCH  12  13
HETATM   13  C   UNK N   1      20.367  14.990   6.338  0.00  0.00     0.196 C 
HETATM   14  C   UNK N   1      21.779  15.317   5.820  0.00  0.00     0.181 C 
HETATM   15  C   UNK N   1      21.713  16.451   4.752  0.00  0.00     0.181 C 
HETATM   16  O   UNK N   1      22.350  14.163   5.274  0.00  0.00    -0.390 OA
HETATM   17  C   UNK N   1      20.452  16.413   3.812  0.00  0.00     0.197 C 
HETATM   18  C   UNK N   1      19.885  14.979   3.773  0.00  0.00     0.197 C 
HETATM   19  C   UNK N   1      19.475  14.445   5.178  0.00  0.00     0.182 C 
HETATM   20  H   UNK N   1      22.710  13.415   4.772  0.00  0.00     0.210 HD
BRANCH  15  21
HETATM   21  O   UNK N   1      21.741  17.694   5.394  0.00  0.00    -0.390 OA
HETATM   22  H   UNK N   1      21.925  18.646   5.373  0.00  0.00     0.210 HD
ENDBRANCH  15  21
BRANCH  17  23
HETATM   23  O   UNK N   1      20.758  16.778   2.477  0.00  0.00    -0.286 OA
BRANCH  23  24
HETATM   24  P   UNK N   1      20.112  18.347   2.050  0.00  0.00     0.391 P 
HETATM   25  O   UNK N   1      20.456  18.830   0.419  0.00  0.00    -0.307 OA
HETATM   26  H   UNK N   1      20.813  19.082  -0.447  0.00  0.00     0.222 HD
HETATM   27  O   UNK N   1      20.826  19.372   2.971  0.00  0.00    -0.632 OA
BRANCH  24  28
HETATM   28  O   UNK N   1      18.421  18.460   2.430  0.00  0.00    -0.307 OA
HETATM   29  H   UNK N   1      17.681  18.235   1.845  0.00  0.00     0.222 HD
ENDBRANCH  24  28
ENDBRANCH  23  24
ENDBRANCH  17  23
BRANCH  18  30
HETATM   30  O   UNK N   1      18.887  14.737   2.792  0.00  0.00    -0.286 OA
BRANCH  30  31
HETATM   31  P   UNK N   1      19.429  13.601   1.573  0.00  0.00     0.391 P 
HETATM   32  O   UNK N   1      18.256  12.841   2.249  0.00  0.00    -0.632 OA
BRANCH  31  33
HETATM   33  O   UNK N   1      18.839  15.039   0.797  0.00  0.00    -0.307 OA
HETATM   34  H   UNK N   1      17.943  15.410   0.800  0.00  0.00     0.222 HD
ENDBRANCH  31  33
BRANCH  31  35
HETATM   35  O   UNK N   1      18.394  13.196   0.240  0.00  0.00    -0.307 OA
HETATM   36  H   UNK N   1      17.889  13.889  -0.212  0.00  0.00     0.222 HD
ENDBRANCH  31  35
ENDBRANCH  30  31
ENDBRANCH  18  30
BRANCH  19  37
HETATM   37  O   UNK N   1      19.533  13.047   5.124  0.00  0.00    -0.390 OA
HETATM   38  H   UNK N   1      19.783  12.302   4.555  0.00  0.00     0.210 HD
ENDBRANCH  19  37
ENDBRANCH  12  13
ENDBRANCH   8  12
ENDBRANCH   7   8
ENDBRANCH   6   7
ENDBRANCH   4   6
ENDBRANCH   1   4
TORSDOF 16
ENDMDL
MODEL 3
REMARK VINA RESULT:      -5.9     10.627     12.818
REMARK  16 active torsions:
REMARK  status: ('A' for Active; 'I' for Inactive)
REMARK    1  A    between atoms: C_3  and  C_1 
REMARK    2  A    between atoms: C_3  and  C_2 
REMARK    3  A    between atoms: O_23  and  C_2 
REMARK    4  A    between atoms: C_5  and  O_13 
REMARK    5  A    between atoms: C_6  and  O_14 
REMARK    6  A    between atoms: O_26  and  C_7 
REMARK    7  A    between atoms: C_8  and  O_24 
REMARK    8  A    between atoms: C_9  and  O_25 
REMARK    9  A    between atoms: P_27  and  O_16 
REMARK   10  A    between atoms: P_28  and  O_18 
REMARK   11  A    between atoms: P_28  and  O_19 
REMARK   12  A    between atoms: P_29  and  O_21 
REMARK   13  A    between atoms: P_29  and  O_23 
REMARK   14  A    between atoms: P_27  and  O_24 
REMARK   15  A    between atoms: P_28  and  O_25 
REMARK   16  A    between atoms: P_29  and  O_26 
ROOT
HETATM    1  C   UNK N   1      36.780  12.517  12.609  0.00  0.00     0.244 C 
HETATM    2  O   UNK N   1      37.936  13.050  12.038  0.00  0.00    -0.394 OA
HETATM    3  H   UNK N   1      38.703  13.317  11.507  0.00  0.00     0.209 HD
ENDROOT
BRANCH   1   4
HETATM    4  C   UNK N   1      35.792  13.606  12.870  0.00  0.00     0.174 C 
HETATM    5  O   UNK N   1      34.845  13.403  13.613  0.00  0.00    -0.293 OA
BRANCH   4   6
HETATM    6  C   UNK N   1      35.989  14.947  12.227  0.00  0.00     0.261 C 
BRANCH   6   7
HETATM    7  O   UNK N   1      36.213  14.827  10.851  0.00  0.00    -0.289 OA
BRANCH   7   8
HETATM    8  P   UNK N   1      34.645  14.699  10.097  0.00  0.00     0.393 P 
HETATM    9  O   UNK N   1      34.523  13.249   9.554  0.00  0.00    -0.631 OA
BRANCH   8  10
HETATM   10  O   UNK N   1      33.347  14.940  11.230  0.00  0.00    -0.307 OA
HETATM   11  H   UNK N   1      32.717  14.337  11.654  0.00  0.00     0.222 HD
ENDBRANCH   8  10
BRANCH   8  12
HETATM   12  O   UNK N   1      34.530  15.853   8.777  0.00  0.00    -0.286 OA
BRANCH  12  13
HETATM   13  C   UNK N   1      33.192  16.178   8.445  0.00  0.00     0.196 C 
HETATM   14  C   UNK N   1      32.845  17.645   8.757  0.00  0.00     0.181 C 
HETATM   15  C   UNK N   1      31.340  17.919   8.457  0.00  0.00     0.181 C 
HETATM   16  O   UNK N   1      33.658  18.486   7.990  0.00  0.00    -0.390 OA
HETATM   17  C   UNK N   1      30.755  17.155   7.213  0.00  0.00     0.197 C 
HETATM   18  C   UNK N   1      31.906  16.779   6.256  0.00  0.00     0.197 C 
HETATM   19  C   UNK N   1      32.990  15.884   6.925  0.00  0.00     0.182 C 
HETATM   20  H   UNK N   1      34.112  19.082   7.375  0.00  0.00     0.210 HD
BRANCH  15  21
HETATM   21  O   UNK N   1      30.575  17.576   9.577  0.00  0.00    -0.390 OA
HETATM   22  H   UNK N   1      30.084  17.839  10.372  0.00  0.00     0.210 HD
ENDBRANCH  15  21
BRANCH  17  23
HETATM   23  O   UNK N   1      29.837  17.942   6.473  0.00  0.00    -0.286 OA
BRANCH  23  24
HETATM   24  P   UNK N   1      28.180  17.433   6.711  0.00  0.00     0.391 P 
HETATM   25  O   UNK N   1      27.017  18.705   6.509  0.00  0.00    -0.307 OA
HETATM   26  H   UNK N   1      26.453  19.495   6.522  0.00  0.00     0.222 HD
HETATM   27  O   UNK N   1      28.078  16.976   8.190  0.00  0.00    -0.632 OA
BRANCH  24  28
HETATM   28  O   UNK N   1      27.804  16.035   5.751  0.00  0.00    -0.307 OA
HETATM   29  H   UNK N   1      27.390  15.215   6.062  0.00  0.00     0.222 HD
ENDBRANCH  24  28
ENDBRANCH  23  24
ENDBRANCH  17  23
BRANCH  18  30
HETATM   30  O   UNK N   1      31.513  16.288   4.982  0.00  0.00    -0.286 OA
BRANCH  30  31
HETATM   31  P   UNK N   1      32.119  17.292   3.679  0.00  0.00     0.391 P 
HETATM   32  O   UNK N   1      32.661  15.885   3.307  0.00  0.00    -0.632 OA
BRANCH  31  33
HETATM   33  O   UNK N   1      30.382  17.289   3.643  0.00  0.00    -0.307 OA
HETATM   34  H   UNK N   1      29.788  17.163   2.887  0.00  0.00     0.222 HD
ENDBRANCH  31  33
BRANCH  31  35
HETATM   35  O   UNK N   1      31.541  17.057   2.059  0.00  0.00    -0.307 OA
HETATM   36  H   UNK N   1      30.704  16.593   1.903  0.00  0.00     0.222 HD
ENDBRANCH  31  35
ENDBRANCH  30  31
ENDBRANCH  18  30
BRANCH  19  37
HETATM   37  O   UNK N   1      34.183  16.080   6.220  0.00  0.00    -0.390 OA
HETATM   38  H   UNK N   1      34.979  15.626   5.899  0.00  0.00     0.210 HD
ENDBRANCH  19  37
ENDBRANCH  12  13
ENDBRANCH   8  12
ENDBRANCH   7   8
ENDBRANCH   6   7
ENDBRANCH   4   6
ENDBRANCH   1   4
TORSDOF 16
ENDMDL
MODEL 4
REMARK VINA RESULT:      -5.9      2.426      4.335
REMARK  16 active torsions:
REMARK  status: ('A' for Active; 'I' for Inactive)
REMARK    1  A    between atoms: C_3  and  C_1 
REMARK    2  A    between atoms: C_3  and  C_2 
REMARK    3  A    between atoms: O_23  and  C_2 
REMARK    4  A    between atoms: C_5  and  O_13 
REMARK    5  A    between atoms: C_6  and  O_14 
REMARK    6  A    between atoms: O_26  and  C_7 
REMARK    7  A    between atoms: C_8  and  O_24 
REMARK    8  A    between atoms: C_9  and  O_25 
REMARK    9  A    between atoms: P_27  and  O_16 
REMARK   10  A    between atoms: P_28  and  O_18 
REMARK   11  A    between atoms: P_28  and  O_19 
REMARK   12  A    between atoms: P_29  and  O_21 
REMARK   13  A    between atoms: P_29  and  O_23 
REMARK   14  A    between atoms: P_27  and  O_24 
REMARK   15  A    between atoms: P_28  and  O_25 
REMARK   16  A    between atoms: P_29  and  O_26 
ROOT
HETATM    1  C   UNK N   1      18.051  17.026   9.244  0.00  0.00     0.244 C 
HETATM    2  O   UNK N   1      17.415  18.227   9.559  0.00  0.00    -0.394 OA
HETATM    3  H   UNK N   1      16.933  18.984   9.926  0.00  0.00     0.209 HD
ENDROOT
BRANCH   1   4
HETATM    4  C   UNK N   1      19.508  17.264   9.019  0.00  0.00     0.174 C 
HETATM    5  O   UNK N   1      19.946  18.403   9.030  0.00  0.00    -0.293 OA
BRANCH   4   6
HETATM    6  C   UNK N   1      20.420  16.092   8.804  0.00  0.00     0.261 C 
BRANCH   6   7
HETATM    7  O   UNK N   1      21.091  16.185   7.580  0.00  0.00    -0.289 OA
BRANCH   7   8
HETATM    8  P   UNK N   1      20.280  15.101   6.479  0.00  0.00     0.393 P 
HETATM    9  O   UNK N   1      20.154  13.734   7.204  0.00  0.00    -0.631 OA
BRANCH   8  10
HETATM   10  O   UNK N   1      18.671  15.636   6.095  0.00  0.00    -0.307 OA
HETATM   11  H   UNK N   1      18.323  16.325   5.506  0.00  0.00     0.222 HD
ENDBRANCH   8  10
BRANCH   8  12
HETATM   12  O   UNK N   1      21.235  14.926   5.015  0.00  0.00    -0.286 OA
BRANCH  12  13
HETATM   13  C   UNK N   1      22.304  15.851   4.942  0.00  0.00     0.196 C 
HETATM   14  C   UNK N   1      23.308  15.509   3.826  0.00  0.00     0.181 C 
HETATM   15  C   UNK N   1      24.506  16.506   3.853  0.00  0.00     0.181 C 
HETATM   16  O   UNK N   1      22.658  15.557   2.588  0.00  0.00    -0.390 OA
HETATM   17  C   UNK N   1      24.137  17.986   4.236  0.00  0.00     0.197 C 
HETATM   18  C   UNK N   1      22.644  18.236   3.936  0.00  0.00     0.197 C 
HETATM   19  C   UNK N   1      21.696  17.271   4.707  0.00  0.00     0.182 C 
HETATM   20  H   UNK N   1      22.265  15.715   1.716  0.00  0.00     0.210 HD
BRANCH  15  21
HETATM   21  O   UNK N   1      25.469  16.049   4.759  0.00  0.00    -0.390 OA
HETATM   22  H   UNK N   1      26.385  16.043   5.079  0.00  0.00     0.210 HD
ENDBRANCH  15  21
BRANCH  17  23
HETATM   23  O   UNK N   1      24.877  18.941   3.494  0.00  0.00    -0.286 OA
BRANCH  23  24
HETATM   24  P   UNK N   1      26.383  19.370   4.276  0.00  0.00     0.391 P 
HETATM   25  O   UNK N   1      26.232  19.665   5.980  0.00  0.00    -0.307 OA
HETATM   26  H   UNK N   1      26.036  19.951   6.886  0.00  0.00     0.222 HD
HETATM   27  O   UNK N   1      26.834  20.710   3.638  0.00  0.00    -0.632 OA
BRANCH  24  28
HETATM   28  O   UNK N   1      27.634  18.221   3.913  0.00  0.00    -0.307 OA
HETATM   29  H   UNK N   1      28.056  17.610   4.536  0.00  0.00     0.222 HD
ENDBRANCH  24  28
ENDBRANCH  23  24
ENDBRANCH  17  23
BRANCH  18  30
HETATM   30  O   UNK N   1      22.217  19.588   4.015  0.00  0.00    -0.286 OA
BRANCH  30  31
HETATM   31  P   UNK N   1      21.384  20.098   2.560  0.00  0.00     0.391 P 
HETATM   32  O   UNK N   1      20.373  20.468   3.679  0.00  0.00    -0.632 OA
BRANCH  31  33
HETATM   33  O   UNK N   1      22.841  21.025   2.742  0.00  0.00    -0.307 OA
HETATM   34  H   UNK N   1      23.729  20.724   2.992  0.00  0.00     0.222 HD
ENDBRANCH  31  33
BRANCH  31  35
HETATM   35  O   UNK N   1      21.076  21.782   2.278  0.00  0.00    -0.307 OA
HETATM   36  H   UNK N   1      20.922  22.105   1.377  0.00  0.00     0.222 HD
ENDBRANCH  31  35
ENDBRANCH  30  31
ENDBRANCH  18  30
BRANCH  19  37
HETATM   37  O   UNK N   1      20.506  17.184   3.974  0.00  0.00    -0.390 OA
HETATM   38  H   UNK N   1      19.945  16.571   3.476  0.00  0.00     0.210 HD
ENDBRANCH  19  37
ENDBRANCH  12  13
ENDBRANCH   8  12
ENDBRANCH   7   8
ENDBRANCH   6   7
ENDBRANCH   4   6
ENDBRANCH   1   4
TORSDOF 16
ENDMDL
MODEL 5
REMARK VINA RESULT:      -5.6      2.187      3.690
REMARK  16 active torsions:
REMARK  status: ('A' for Active; 'I' for Inactive)
REMARK    1  A    between atoms: C_3  and  C_1 
REMARK    2  A    between atoms: C_3  and  C_2 
REMARK    3  A    between atoms: O_23  and  C_2 
REMARK    4  A    between atoms: C_5  and  O_13 
REMARK    5  A    between atoms: C_6  and  O_14 
REMARK    6  A    between atoms: O_26  and  C_7 
REMARK    7  A    between atoms: C_8  and  O_24 
REMARK    8  A    between atoms: C_9  and  O_25 
REMARK    9  A    between atoms: P_27  and  O_16 
REMARK   10  A    between atoms: P_28  and  O_18 
REMARK   11  A    between atoms: P_28  and  O_19 
REMARK   12  A    between atoms: P_29  and  O_21 
REMARK   13  A    between atoms: P_29  and  O_23 
REMARK   14  A    between atoms: P_27  and  O_24 
REMARK   15  A    between atoms: P_28  and  O_25 
REMARK   16  A    between atoms: P_29  and  O_26 
ROOT
HETATM    1  C   UNK N   1      19.206  17.810   9.056  0.00  0.00     0.244 C 
HETATM    2  O   UNK N   1      18.073  18.325   9.689  0.00  0.00    -0.394 OA
HETATM    3  H   UNK N   1      17.251  18.752   9.974  0.00  0.00     0.209 HD
ENDROOT
BRANCH   1   4
HETATM    4  C   UNK N   1      19.187  16.318   9.114  0.00  0.00     0.174 C 
HETATM    5  O   UNK N   1      18.157  15.734   9.409  0.00  0.00    -0.293 OA
BRANCH   4   6
HETATM    6  C   UNK N   1      20.437  15.554   8.786  0.00  0.00     0.261 C 
BRANCH   6   7
HETATM    7  O   UNK N   1      20.141  14.295   8.253  0.00  0.00    -0.289 OA
BRANCH   7   8
HETATM    8  P   UNK N   1      20.854  14.244   6.661  0.00  0.00     0.393 P 
HETATM    9  O   UNK N   1      21.418  12.810   6.467  0.00  0.00    -0.631 OA
BRANCH   8  10
HETATM   10  O   UNK N   1      19.681  14.514   5.406  0.00  0.00    -0.307 OA
HETATM   11  H   UNK N   1      18.950  13.982   5.054  0.00  0.00     0.222 HD
ENDBRANCH   8  10
BRANCH   8  12
HETATM   12  O   UNK N   1      22.149  15.426   6.557  0.00  0.00    -0.286 OA
BRANCH  12  13
HETATM   13  C   UNK N   1      22.005  16.304   5.455  0.00  0.00     0.196 C 
HETATM   14  C   UNK N   1      21.198  17.567   5.806  0.00  0.00     0.181 C 
HETATM   15  C   UNK N   1      20.996  18.449   4.537  0.00  0.00     0.181 C 
HETATM   16  O   UNK N   1      21.873  18.286   6.799  0.00  0.00    -0.390 OA
HETATM   17  C   UNK N   1      22.208  18.468   3.534  0.00  0.00     0.197 C 
HETATM   18  C   UNK N   1      23.501  18.095   4.288  0.00  0.00     0.197 C 
HETATM   19  C   UNK N   1      23.435  16.693   4.961  0.00  0.00     0.182 C 
HETATM   20  H   UNK N   1      22.386  18.865   7.384  0.00  0.00     0.210 HD
BRANCH  15  21
HETATM   21  O   UNK N   1      19.864  18.008   3.843  0.00  0.00    -0.390 OA
HETATM   22  H   UNK N   1      18.900  17.908   3.786  0.00  0.00     0.210 HD
ENDBRANCH  15  21
BRANCH  17  23
HETATM   23  O   UNK N   1      22.415  19.745   2.956  0.00  0.00    -0.286 OA
BRANCH  23  24
HETATM   24  P   UNK N   1      21.159  20.170   1.813  0.00  0.00     0.391 P 
HETATM   25  O   UNK N   1      20.214  18.819   1.271  0.00  0.00    -0.307 OA
HETATM   26  H   UNK N   1      19.835  18.000   0.914  0.00  0.00     0.222 HD
HETATM   27  O   UNK N   1      21.886  20.727   0.561  0.00  0.00    -0.632 OA
BRANCH  24  28
HETATM   28  O   UNK N   1      20.173  21.469   2.411  0.00  0.00    -0.307 OA
HETATM   29  H   UNK N   1      20.484  22.331   2.729  0.00  0.00     0.222 HD
ENDBRANCH  24  28
ENDBRANCH  23  24
ENDBRANCH  17  23
BRANCH  18  30
HETATM   30  O   UNK N   1      24.712  18.291   3.570  0.00  0.00    -0.286 OA
BRANCH  30  31
HETATM   31  P   UNK N   1      25.733  19.498   4.326  0.00  0.00     0.391 P 
HETATM   32  O   UNK N   1      26.620  18.224   4.369  0.00  0.00    -0.632 OA
BRANCH  31  33
HETATM   33  O   UNK N   1      25.426  19.954   2.678  0.00  0.00    -0.307 OA
HETATM   34  H   UNK N   1      26.050  20.271   2.006  0.00  0.00     0.222 HD
ENDBRANCH  31  33
BRANCH  31  35
HETATM   35  O   UNK N   1      27.199  20.006   3.549  0.00  0.00    -0.307 OA
HETATM   36  H   UNK N   1      27.219  20.146   2.589  0.00  0.00     0.222 HD
ENDBRANCH  31  35
ENDBRANCH  30  31
ENDBRANCH  18  30
BRANCH  19  37
HETATM   37  O   UNK N   1      24.342  16.700   6.027  0.00  0.00    -0.390 OA
HETATM   38  H   UNK N   1      25.159  17.113   6.348  0.00  0.00     0.210 HD
ENDBRANCH  19  37
ENDBRANCH  12  13
ENDBRANCH   8  12
ENDBRANCH   7   8
ENDBRANCH   6   7
ENDBRANCH   4   6
ENDBRANCH   1   4
TORSDOF 16
ENDMDL
MODEL 6
REMARK VINA RESULT:      -5.6     12.925     16.525
REMARK  16 active torsions:
REMARK  status: ('A' for Active; 'I' for Inactive)
REMARK    1  A    between atoms: C_3  and  C_1 
REMARK    2  A    between atoms: C_3  and  C_2 
REMARK    3  A    between atoms: O_23  and  C_2 
REMARK    4  A    between atoms: C_5  and  O_13 
REMARK    5  A    between atoms: C_6  and  O_14 
REMARK    6  A    between atoms: O_26  and  C_7 
REMARK    7  A    between atoms: C_8  and  O_24 
REMARK    8  A    between atoms: C_9  and  O_25 
REMARK    9  A    between atoms: P_27  and  O_16 
REMARK   10  A    between atoms: P_28  and  O_18 
REMARK   11  A    between atoms: P_28  and  O_19 
REMARK   12  A    between atoms: P_29  and  O_21 
REMARK   13  A    between atoms: P_29  and  O_23 
REMARK   14  A    between atoms: P_27  and  O_24 
REMARK   15  A    between atoms: P_28  and  O_25 
REMARK   16  A    between atoms: P_29  and  O_26 
ROOT
HETATM    1  C   UNK N   1      33.570  14.604   5.661  0.00  0.00     0.244 C 
HETATM    2  O   UNK N   1      34.843  14.622   5.089  0.00  0.00    -0.394 OA
HETATM    3  H   UNK N   1      35.664  14.514   4.585  0.00  0.00     0.209 HD
ENDROOT
BRANCH   1   4
HETATM    4  C   UNK N   1      32.941  15.953   5.547  0.00  0.00     0.174 C 
HETATM    5  O   UNK N   1      31.805  16.059   5.112  0.00  0.00    -0.293 OA
BRANCH   4   6
HETATM    6  C   UNK N   1      33.710  17.163   5.990  0.00  0.00     0.261 C 
BRANCH   6   7
HETATM    7  O   UNK N   1      34.698  16.828   6.921  0.00  0.00    -0.289 OA
BRANCH   7   8
HETATM    8  P   UNK N   1      34.231  17.562   8.434  0.00  0.00     0.393 P 
HETATM    9  O   UNK N   1      34.421  19.094   8.269  0.00  0.00    -0.631 OA
BRANCH   8  10
HETATM   10  O   UNK N   1      32.557  17.284   8.811  0.00  0.00    -0.307 OA
HETATM   11  H   UNK N   1      31.807  16.948   8.295  0.00  0.00     0.222 HD
ENDBRANCH   8  10
BRANCH   8  12
HETATM   12  O   UNK N   1      35.260  16.958   9.724  0.00  0.00    -0.286 OA
BRANCH  12  13
HETATM   13  C   UNK N   1      34.936  15.635  10.112  0.00  0.00     0.196 C 
HETATM   14  C   UNK N   1      35.028  14.637   8.943  0.00  0.00     0.181 C 
HETATM   15  C   UNK N   1      34.574  13.219   9.407  0.00  0.00     0.181 C 
HETATM   16  O   UNK N   1      36.343  14.600   8.469  0.00  0.00    -0.390 OA
HETATM   17  C   UNK N   1      34.971  12.838  10.881  0.00  0.00     0.197 C 
HETATM   18  C   UNK N   1      36.182  13.687  11.321  0.00  0.00     0.197 C 
HETATM   19  C   UNK N   1      35.911  15.219  11.258  0.00  0.00     0.182 C 
HETATM   20  H   UNK N   1      37.268  14.457   8.214  0.00  0.00     0.210 HD
BRANCH  15  21
HETATM   21  O   UNK N   1      33.184  13.117   9.290  0.00  0.00    -0.390 OA
HETATM   22  H   UNK N   1      32.403  12.700   8.892  0.00  0.00     0.210 HD
ENDBRANCH  15  21
BRANCH  17  23
HETATM   23  O   UNK N   1      35.345  11.477  11.009  0.00  0.00    -0.286 OA
BRANCH  23  24
HETATM   24  P   UNK N   1      34.021  10.471  11.554  0.00  0.00     0.391 P 
HETATM   25  O   UNK N   1      33.473  10.838  13.159  0.00  0.00    -0.307 OA
HETATM   26  H   UNK N   1      33.328  11.008  14.103  0.00  0.00     0.222 HD
HETATM   27  O   UNK N   1      34.572   9.021  11.599  0.00  0.00    -0.632 OA
BRANCH  24  28
HETATM   28  O   UNK N   1      32.724  10.453  10.399  0.00  0.00    -0.307 OA
HETATM   29  H   UNK N   1      32.492  11.162   9.779  0.00  0.00     0.222 HD
ENDBRANCH  24  28
ENDBRANCH  23  24
ENDBRANCH  17  23
BRANCH  18  30
HETATM   30  O   UNK N   1      36.798  13.297  12.541  0.00  0.00    -0.286 OA
BRANCH  30  31
HETATM   31  P   UNK N   1      35.741  13.549  13.916  0.00  0.00     0.391 P 
HETATM   32  O   UNK N   1      36.199  12.076  14.102  0.00  0.00    -0.632 OA
BRANCH  31  33
HETATM   33  O   UNK N   1      37.106  14.616  14.037  0.00  0.00    -0.307 OA
HETATM   34  H   UNK N   1      38.001  14.504  13.683  0.00  0.00     0.222 HD
ENDBRANCH  31  33
BRANCH  31  35
HETATM   35  O   UNK N   1      36.390  13.532  15.526  0.00  0.00    -0.307 OA
HETATM   36  H   UNK N   1      35.944  14.019  16.236  0.00  0.00     0.222 HD
ENDBRANCH  31  35
ENDBRANCH  30  31
ENDBRANCH  18  30
BRANCH  19  37
HETATM   37  O   UNK N   1      37.150  15.854  11.110  0.00  0.00    -0.390 OA
HETATM   38  H   UNK N   1      37.872  16.272  11.605  0.00  0.00     0.210 HD
ENDBRANCH  19  37
ENDBRANCH  12  13
ENDBRANCH   8  12
ENDBRANCH   7   8
ENDBRANCH   6   7
ENDBRANCH   4   6
ENDBRANCH   1   4
TORSDOF 16
ENDMDL
MODEL 7
REMARK VINA RESULT:      -5.5     10.743     13.009
REMARK  16 active torsions:
REMARK  status: ('A' for Active; 'I' for Inactive)
REMARK    1  A    between atoms: C_3  and  C_1 
REMARK    2  A    between atoms: C_3  and  C_2 
REMARK    3  A    between atoms: O_23  and  C_2 
REMARK    4  A    between atoms: C_5  and  O_13 
REMARK    5  A    between atoms: C_6  and  O_14 
REMARK    6  A    between atoms: O_26  and  C_7 
REMARK    7  A    between atoms: C_8  and  O_24 
REMARK    8  A    between atoms: C_9  and  O_25 
REMARK    9  A    between atoms: P_27  and  O_16 
REMARK   10  A    between atoms: P_28  and  O_18 
REMARK   11  A    between atoms: P_28  and  O_19 
REMARK   12  A    between atoms: P_29  and  O_21 
REMARK   13  A    between atoms: P_29  and  O_23 
REMARK   14  A    between atoms: P_27  and  O_24 
REMARK   15  A    between atoms: P_28  and  O_25 
REMARK   16  A    between atoms: P_29  and  O_26 
ROOT
HETATM    1  C   UNK N   1      36.541  12.391  12.326  0.00  0.00     0.244 C 
HETATM    2  O   UNK N   1      37.531  12.687  13.263  0.00  0.00    -0.394 OA
HETATM    3  H   UNK N   1      38.314  12.934  13.778  0.00  0.00     0.209 HD
ENDROOT
BRANCH   1   4
HETATM    4  C   UNK N   1      35.345  13.256  12.557  0.00  0.00     0.174 C 
HETATM    5  O   UNK N   1      34.937  13.438  13.693  0.00  0.00    -0.293 OA
BRANCH   4   6
HETATM    6  C   UNK N   1      34.671  13.906  11.385  0.00  0.00     0.261 C 
BRANCH   6   7
HETATM    7  O   UNK N   1      34.550  15.288  11.567  0.00  0.00    -0.289 OA
BRANCH   7   8
HETATM    8  P   UNK N   1      35.619  16.041  10.410  0.00  0.00     0.393 P 
HETATM    9  O   UNK N   1      35.621  17.562  10.724  0.00  0.00    -0.631 OA
BRANCH   8  10
HETATM   10  O   UNK N   1      37.257  15.477  10.562  0.00  0.00    -0.307 OA
HETATM   11  H   UNK N   1      37.914  15.532  11.274  0.00  0.00     0.222 HD
ENDBRANCH   8  10
BRANCH   8  12
HETATM   12  O   UNK N   1      35.019  15.758   8.783  0.00  0.00    -0.286 OA
BRANCH  12  13
HETATM   13  C   UNK N   1      33.666  16.142   8.621  0.00  0.00     0.196 C 
HETATM   14  C   UNK N   1      33.519  17.514   7.940  0.00  0.00     0.181 C 
HETATM   15  C   UNK N   1      32.016  17.924   7.870  0.00  0.00     0.181 C 
HETATM   16  O   UNK N   1      34.069  17.454   6.655  0.00  0.00    -0.390 OA
HETATM   17  C   UNK N   1      31.010  16.741   7.621  0.00  0.00     0.197 C 
HETATM   18  C   UNK N   1      31.752  15.572   6.941  0.00  0.00     0.197 C 
HETATM   19  C   UNK N   1      32.951  15.038   7.779  0.00  0.00     0.182 C 
HETATM   20  H   UNK N   1      34.321  17.399   5.720  0.00  0.00     0.210 HD
BRANCH  15  21
HETATM   21  O   UNK N   1      31.654  18.559   9.063  0.00  0.00    -0.390 OA
HETATM   22  H   UNK N   1      31.272  19.322   9.526  0.00  0.00     0.210 HD
ENDBRANCH  15  21
BRANCH  17  23
HETATM   23  O   UNK N   1      29.939  17.108   6.769  0.00  0.00    -0.286 OA
BRANCH  23  24
HETATM   24  P   UNK N   1      28.523  17.620   7.661  0.00  0.00     0.391 P 
HETATM   25  O   UNK N   1      27.062  16.811   7.187  0.00  0.00    -0.307 OA
HETATM   26  H   UNK N   1      26.279  16.423   6.766  0.00  0.00     0.222 HD
HETATM   27  O   UNK N   1      28.322  19.121   7.326  0.00  0.00    -0.632 OA
BRANCH  24  28
HETATM   28  O   UNK N   1      28.794  17.544   9.375  0.00  0.00    -0.307 OA
HETATM   29  H   UNK N   1      29.404  18.096   9.888  0.00  0.00     0.222 HD
ENDBRANCH  24  28
ENDBRANCH  23  24
ENDBRANCH  17  23
BRANCH  18  30
HETATM   30  O   UNK N   1      30.931  14.523   6.447  0.00  0.00    -0.286 OA
BRANCH  30  31
HETATM   31  P   UNK N   1      31.092  14.327   4.713  0.00  0.00     0.391 P 
HETATM   32  O   UNK N   1      31.544  12.945   5.256  0.00  0.00    -0.632 OA
BRANCH  31  33
HETATM   33  O   UNK N   1      29.424  14.606   5.107  0.00  0.00    -0.307 OA
HETATM   34  H   UNK N   1      28.961  14.454   5.946  0.00  0.00     0.222 HD
ENDBRANCH  31  33
BRANCH  31  35
HETATM   35  O   UNK N   1      30.068  13.211   3.865  0.00  0.00    -0.307 OA
HETATM   36  H   UNK N   1      29.984  12.296   4.174  0.00  0.00     0.222 HD
ENDBRANCH  31  35
ENDBRANCH  30  31
ENDBRANCH  18  30
BRANCH  19  37
HETATM   37  O   UNK N   1      33.848  14.438   6.887  0.00  0.00    -0.390 OA
HETATM   38  H   UNK N   1      34.674  13.933   6.839  0.00  0.00     0.210 HD
ENDBRANCH  19  37
ENDBRANCH  12  13
ENDBRANCH   8  12
ENDBRANCH   7   8
ENDBRANCH   6   7
ENDBRANCH   4   6
ENDBRANCH   1   4
TORSDOF 16
ENDMDL
MODEL 8
REMARK VINA RESULT:      -5.5     12.383     15.679
REMARK  16 active torsions:
REMARK  status: ('A' for Active; 'I' for Inactive)
REMARK    1  A    between atoms: C_3  and  C_1 
REMARK    2  A    between atoms: C_3  and  C_2 
REMARK    3  A    between atoms: O_23  and  C_2 
REMARK    4  A    between atoms: C_5  and  O_13 
REMARK    5  A    between atoms: C_6  and  O_14 
REMARK    6  A    between atoms: O_26  and  C_7 
REMARK    7  A    between atoms: C_8  and  O_24 
REMARK    8  A    between atoms: C_9  and  O_25 
REMARK    9  A    between atoms: P_27  and  O_16 
REMARK   10  A    between atoms: P_28  and  O_18 
REMARK   11  A    between atoms: P_28  and  O_19 
REMARK   12  A    between atoms: P_29  and  O_21 
REMARK   13  A    between atoms: P_29  and  O_23 
REMARK   14  A    between atoms: P_27  and  O_24 
REMARK   15  A    between atoms: P_28  and  O_25 
REMARK   16  A    between atoms: P_29  and  O_26 
ROOT
HETATM    1  C   UNK N   1      31.793  14.002   4.910  0.00  0.00     0.244 C 
HETATM    2  O   UNK N   1      31.204  14.346   6.128  0.00  0.00    -0.394 OA
HETATM    3  H   UNK N   1      30.938  14.519   7.044  0.00  0.00     0.209 HD
ENDROOT
BRANCH   1   4
HETATM    4  C   UNK N   1      31.999  15.226   4.079  0.00  0.00     0.174 C 
HETATM    5  O   UNK N   1      31.260  15.451   3.134  0.00  0.00    -0.293 OA
BRANCH   4   6
HETATM    6  C   UNK N   1      33.105  16.176   4.433  0.00  0.00     0.261 C 
BRANCH   6   7
HETATM    7  O   UNK N   1      32.746  17.004   5.502  0.00  0.00    -0.289 OA
BRANCH   7   8
HETATM    8  P   UNK N   1      33.935  16.751   6.754  0.00  0.00     0.393 P 
HETATM    9  O   UNK N   1      35.094  15.936   6.116  0.00  0.00    -0.631 OA
BRANCH   8  10
HETATM   10  O   UNK N   1      34.609  18.246   7.333  0.00  0.00    -0.307 OA
HETATM   11  H   UNK N   1      34.809  19.093   6.906  0.00  0.00     0.222 HD
ENDBRANCH   8  10
BRANCH   8  12
HETATM   12  O   UNK N   1      33.214  15.848   8.077  0.00  0.00    -0.286 OA
BRANCH  12  13
HETATM   13  C   UNK N   1      34.169  15.135   8.840  0.00  0.00     0.196 C 
HETATM   14  C   UNK N   1      34.082  15.453  10.344  0.00  0.00     0.181 C 
HETATM   15  C   UNK N   1      35.213  14.710  11.120  0.00  0.00     0.181 C 
HETATM   16  O   UNK N   1      32.826  15.071  10.826  0.00  0.00    -0.390 OA
HETATM   17  C   UNK N   1      35.569  13.278  10.576  0.00  0.00     0.197 C 
HETATM   18  C   UNK N   1      34.365  12.713   9.794  0.00  0.00     0.197 C 
HETATM   19  C   UNK N   1      33.938  13.610   8.595  0.00  0.00     0.182 C 
HETATM   20  H   UNK N   1      32.018  14.693  11.208  0.00  0.00     0.210 HD
BRANCH  15  21
HETATM   21  O   UNK N   1      36.376  15.487  11.098  0.00  0.00    -0.390 OA
HETATM   22  H   UNK N   1      36.832  16.322  11.287  0.00  0.00     0.210 HD
ENDBRANCH  15  21
BRANCH  17  23
HETATM   23  O   UNK N   1      35.862  12.359  11.614  0.00  0.00    -0.286 OA
BRANCH  23  24
HETATM   24  P   UNK N   1      37.579  12.060  11.774  0.00  0.00     0.391 P 
HETATM   25  O   UNK N   1      38.576  13.270  11.030  0.00  0.00    -0.307 OA
HETATM   26  H   UNK N   1      39.051  13.905  10.470  0.00  0.00     0.222 HD
HETATM   27  O   UNK N   1      37.859  10.735  11.017  0.00  0.00    -0.632 OA
BRANCH  24  28
HETATM   28  O   UNK N   1      38.018  11.768  13.429  0.00  0.00    -0.307 OA
HETATM   29  H   UNK N   1      37.546  11.204  14.061  0.00  0.00     0.222 HD
ENDBRANCH  24  28
ENDBRANCH  23  24
ENDBRANCH  17  23
BRANCH  18  30
HETATM   30  O   UNK N   1      34.450  11.340   9.438  0.00  0.00    -0.286 OA
BRANCH  30  31
HETATM   31  P   UNK N   1      33.373  10.346  10.399  0.00  0.00     0.391 P 
HETATM   32  O   UNK N   1      32.714  10.303   8.993  0.00  0.00    -0.632 OA
BRANCH  31  33
HETATM   33  O   UNK N   1      34.943   9.606  10.343  0.00  0.00    -0.307 OA
HETATM   34  H   UNK N   1      35.743   9.834  10.842  0.00  0.00     0.222 HD
ENDBRANCH  31  33
BRANCH  31  35
HETATM   35  O   UNK N   1      33.237   8.647  10.074  0.00  0.00    -0.307 OA
HETATM   36  H   UNK N   1      33.888   8.028  10.439  0.00  0.00     0.222 HD
ENDBRANCH  31  35
ENDBRANCH  30  31
ENDBRANCH  18  30
BRANCH  19  37
HETATM   37  O   UNK N   1      32.587  13.348   8.340  0.00  0.00    -0.390 OA
HETATM   38  H   UNK N   1      31.771  13.015   8.746  0.00  0.00     0.210 HD
ENDBRANCH  19  37
ENDBRANCH  12  13
ENDBRANCH   8  12
ENDBRANCH   7   8
ENDBRANCH   6   7
ENDBRANCH   4   6
ENDBRANCH   1   4
TORSDOF 16
ENDMDL
MODEL 9
REMARK VINA RESULT:      -5.5     14.078     15.818
REMARK  16 active torsions:
REMARK  status: ('A' for Active; 'I' for Inactive)
REMARK    1  A    between atoms: C_3  and  C_1 
REMARK    2  A    between atoms: C_3  and  C_2 
REMARK    3  A    between atoms: O_23  and  C_2 
REMARK    4  A    between atoms: C_5  and  O_13 
REMARK    5  A    between atoms: C_6  and  O_14 
REMARK    6  A    between atoms: O_26  and  C_7 
REMARK    7  A    between atoms: C_8  and  O_24 
REMARK    8  A    between atoms: C_9  and  O_25 
REMARK    9  A    between atoms: P_27  and  O_16 
REMARK   10  A    between atoms: P_28  and  O_18 
REMARK   11  A    between atoms: P_28  and  O_19 
REMARK   12  A    between atoms: P_29  and  O_21 
REMARK   13  A    between atoms: P_29  and  O_23 
REMARK   14  A    between atoms: P_27  and  O_24 
REMARK   15  A    between atoms: P_28  and  O_25 
REMARK   16  A    between atoms: P_29  and  O_26 
ROOT
HETATM    1  C   UNK N   1      32.694  20.313  -5.870  0.00  0.00     0.244 C 
HETATM    2  O   UNK N   1      33.607  21.026  -5.092  0.00  0.00    -0.394 OA
HETATM    3  H   UNK N   1      34.293  21.590  -4.702  0.00  0.00     0.209 HD
ENDROOT
BRANCH   1   4
HETATM    4  C   UNK N   1      31.300  20.648  -5.455  0.00  0.00     0.174 C 
HETATM    5  O   UNK N   1      30.535  21.164  -6.254  0.00  0.00    -0.293 OA
BRANCH   4   6
HETATM    6  C   UNK N   1      30.850  20.326  -4.060  0.00  0.00     0.261 C 
BRANCH   6   7
HETATM    7  O   UNK N   1      30.043  21.341  -3.535  0.00  0.00    -0.289 OA
BRANCH   7   8
HETATM    8  P   UNK N   1      31.113  22.492  -2.778  0.00  0.00     0.393 P 
HETATM    9  O   UNK N   1      30.394  23.001  -1.498  0.00  0.00    -0.631 OA
BRANCH   8  10
HETATM   10  O   UNK N   1      32.612  21.768  -2.277  0.00  0.00    -0.307 OA
HETATM   11  H   UNK N   1      33.050  21.675  -1.416  0.00  0.00     0.222 HD
ENDBRANCH   8  10
BRANCH   8  12
HETATM   12  O   UNK N   1      31.413  23.829  -3.877  0.00  0.00    -0.286 OA
BRANCH  12  13
HETATM   13  C   UNK N   1      30.508  24.903  -3.697  0.00  0.00     0.196 C 
HETATM   14  C   UNK N   1      30.994  26.204  -4.362  0.00  0.00     0.181 C 
HETATM   15  C   UNK N   1      30.006  27.369  -4.055  0.00  0.00     0.181 C 
HETATM   16  O   UNK N   1      31.103  26.005  -5.743  0.00  0.00    -0.390 OA
HETATM   17  C   UNK N   1      28.487  26.963  -3.997  0.00  0.00     0.197 C 
HETATM   18  C   UNK N   1      28.273  25.667  -4.807  0.00  0.00     0.197 C 
HETATM   19  C   UNK N   1      29.129  24.473  -4.290  0.00  0.00     0.182 C 
HETATM   20  H   UNK N   1      31.056  25.931  -6.709  0.00  0.00     0.210 HD
BRANCH  15  21
HETATM   21  O   UNK N   1      30.347  27.954  -2.831  0.00  0.00    -0.390 OA
HETATM   22  H   UNK N   1      30.495  27.876  -1.875  0.00  0.00     0.210 HD
ENDBRANCH  15  21
BRANCH  17  23
HETATM   23  O   UNK N   1      27.638  27.950  -4.556  0.00  0.00    -0.286 OA
BRANCH  23  24
HETATM   24  P   UNK N   1      26.688  28.777  -3.340  0.00  0.00     0.391 P 
HETATM   25  O   UNK N   1      27.542  29.066  -1.857  0.00  0.00    -0.307 OA
HETATM   26  H   UNK N   1      28.038  29.057  -1.023  0.00  0.00     0.222 HD
HETATM   27  O   UNK N   1      25.513  27.827  -2.992  0.00  0.00    -0.632 OA
BRANCH  24  28
HETATM   28  O   UNK N   1      25.964  30.221  -3.979  0.00  0.00    -0.307 OA
HETATM   29  H   UNK N   1      26.326  31.119  -3.929  0.00  0.00     0.222 HD
ENDBRANCH  24  28
ENDBRANCH  23  24
ENDBRANCH  17  23
BRANCH  18  30
HETATM   30  O   UNK N   1      26.920  25.301  -5.038  0.00  0.00    -0.286 OA
BRANCH  30  31
HETATM   31  P   UNK N   1      26.393  25.728  -6.654  0.00  0.00     0.391 P 
HETATM   32  O   UNK N   1      27.255  24.460  -6.901  0.00  0.00    -0.632 OA
BRANCH  31  33
HETATM   33  O   UNK N   1      25.009  25.328  -5.684  0.00  0.00    -0.307 OA
HETATM   34  H   UNK N   1      24.318  24.668  -5.850  0.00  0.00     0.222 HD
ENDBRANCH  31  33
BRANCH  31  35
HETATM   35  O   UNK N   1      25.319  24.679  -7.524  0.00  0.00    -0.307 OA
HETATM   36  H   UNK N   1      25.613  24.253  -8.344  0.00  0.00     0.222 HD
ENDBRANCH  31  35
ENDBRANCH  30  31
ENDBRANCH  18  30
BRANCH  19  37
HETATM   37  O   UNK N   1      29.304  23.592  -5.363  0.00  0.00    -0.390 OA
HETATM   38  H   UNK N   1      29.393  23.552  -6.328  0.00  0.00     0.210 HD
ENDBRANCH  19  37
ENDBRANCH  12  13
ENDBRANCH   8  12
ENDBRANCH   7   8
ENDBRANCH   6   7
ENDBRANCH   4   6
ENDBRANCH   1   4
TORSDOF 16
ENDMDL
