REMARK  7 active torsions:
REMARK  status: ('A' for Active; 'I' for Inactive)
REMARK    1  A    between atoms: C_21  and  C_7 
REMARK    2  A    between atoms: C_22  and  C_8 
REMARK    3  A    between atoms: C_12  and  C_10 
REMARK    4  A    between atoms: C_24  and  C_10 
REMARK    5  A    between atoms: C_34  and  C_12 
REMARK    6  A    between atoms: O_40  and  C_33 
REMARK    7  A    between atoms: O_42  and  C_34 
ROOT
HETATM    1  C   UNK N   1      -1.268   1.840   0.361  0.00  0.00     0.051 C 
HETATM    2  C   UNK N   1       1.853  -4.871   0.649  0.00  0.00     0.052 C 
HETATM    3  C   UNK N   1       2.417   2.284   1.677  0.00  0.00     0.046 C 
HETATM    4  C   UNK N   1       8.790  -1.857  -1.055  0.00  0.00     0.017 C 
HETATM    5  C   UNK N   1       5.135   1.315   1.607  0.00  0.00     0.051 C 
HETATM    6  C   UNK N   1       4.769  -0.132   1.011  0.00  0.00     0.114 A 
HETATM    7  C   UNK N   1       1.719   2.826  -1.003  0.00  0.00     0.031 C 
HETATM    8  C   UNK N   1       1.514  -1.971   0.495  0.00  0.00     0.064 A 
HETATM    9  C   UNK N   1       6.195  -2.361   0.433  0.00  0.00     0.060 C 
HETATM   10  C   UNK N   1       6.679   2.542  -0.685  0.00  0.00     0.053 C 
HETATM   11  C   UNK N   1      -0.173   1.029  -0.251  0.00  0.00    -0.025 C 
HETATM   12  C   UNK N   1       2.919  -3.878   0.830  0.00  0.00    -0.021 C 
HETATM   13  C   UNK N   1       3.349   2.667   0.604  0.00  0.00    -0.053 C 
HETATM   14  C   UNK N   1       8.262  -0.879  -0.063  0.00  0.00     0.043 C 
HETATM   15  C   UNK N   1      -0.104  -0.346  -0.076  0.00  0.00    -0.021 C 
HETATM   16  C   UNK N   1       4.340  -4.037   0.735  0.00  0.00     0.000 C 
HETATM   17  C   UNK N   1       4.686   2.364   0.679  0.00  0.00    -0.031 C 
HETATM   18  C   UNK N   1       8.537   0.478  -0.113  0.00  0.00     0.048 C 
HETATM   19  C   UNK N   1       1.104   1.466  -0.712  0.00  0.00     0.062 C 
HETATM   20  C   UNK N   1       3.048   3.058  -0.667  0.00  0.00     0.135 C 
HETATM   21  C   UNK N   1       2.643  -2.545   0.691  0.00  0.00     0.066 A 
HETATM   22  C   UNK N   1       6.982  -0.956   0.100  0.00  0.00     0.041 C 
HETATM   23  C   UNK N   1       1.189  -0.638  -0.106  0.00  0.00     0.066 A 
HETATM   24  C   UNK N   1       4.814  -2.754   0.624  0.00  0.00     0.070 C 
HETATM   25  C   UNK N   1       5.288   2.783  -0.459  0.00  0.00     0.035 C 
HETATM   26  C   UNK N   1       7.328   1.190  -0.410  0.00  0.00     0.041 C 
HETATM   27  C   UNK N   1       4.817  -0.933  -1.236  0.00  0.00     0.139 A 
HETATM   28 Fe   UNK N   1       3.919   0.528  -0.479  0.00  0.00     0.000 Fe
HETATM   29  N   UNK N   1       1.930   0.438  -0.539  0.00  0.00    -0.248 N 
HETATM   30  N   UNK N   1       3.697  -1.928   0.465  0.00  0.00    -0.248 N 
HETATM   31  N   UNK N   1       4.184   2.579  -1.267  0.00  0.00    -0.197 NA
HETATM   32  N   UNK N   1       6.453   0.312  -0.294  0.00  0.00    -0.257 N 
HETATM   33  O   UNK N   1       3.946  -1.657  -1.734  0.00  0.00    -0.650 OA
ENDROOT
BRANCH  18  34
HETATM   34  C   UNK N   1       9.101   0.720   1.249  0.00  0.00     0.022 C 
BRANCH  34  35
HETATM   35  C   UNK N   1       9.878   1.939   1.356  0.00  0.00     0.110 C 
BRANCH  35  36
HETATM   36  C   UNK N   1      10.788   1.893   0.207  0.00  0.00     0.139 C 
HETATM   37  O   UNK N   1      11.483   0.905  -0.003  0.00  0.00    -0.650 OA
BRANCH  36  38
HETATM   38  O   UNK N   1      10.677   2.855  -0.712  0.00  0.00    -0.776 OA
HETATM   39  H   UNK N   1      11.223   3.260  -1.358  0.00  0.00     0.167 HD
ENDBRANCH  36  38
ENDBRANCH  35  36
ENDBRANCH  34  35
ENDBRANCH  18  34
BRANCH  27  40
HETATM   40  O   UNK N   1       5.854  -0.808  -2.132  0.00  0.00    -0.776 OA
HETATM   41  H   UNK N   1       6.281  -1.377  -2.742  0.00  0.00     0.167 HD
ENDBRANCH  27  40
BRANCH  16  42
HETATM   42  C   UNK N   1       5.293  -5.176   0.450  0.00  0.00     0.004 C 
HETATM   43  C   UNK N   1       5.137  -6.337  -0.210  0.00  0.00     0.012 C 
ENDBRANCH  16  42
BRANCH  15  44
HETATM   44  C   UNK N   1      -1.073  -1.400   0.401  0.00  0.00     0.037 C 
HETATM   45  C   UNK N   1      -2.471  -1.089   0.032  0.00  0.00     0.010 C 
ENDBRANCH  15  44
TORSDOF 7
