MODEL 1
REMARK VINA RESULT:      -2.7      0.000      0.000
REMARK  2 active torsions:
REMARK  status: ('A' for Active; 'I' for Inactive)
REMARK    1  A    between atoms: S_5  and  C_3 
REMARK    2  A    between atoms: S_6  and  C_3 
ROOT
HETATM    1  C   UNK N   1      34.571  16.179   8.166  0.00  0.00     0.181 C 
ENDROOT
BRANCH   1   2
HETATM    2  S   UNK N   1      34.255  15.477   9.812  0.00  0.00    -0.161 SA
HETATM    3  C   UNK N   1      35.371  16.655  10.622  0.00  0.00     0.090 C 
ENDBRANCH   1   2
BRANCH   1   4
HETATM    4  S   UNK N   1      34.376  17.985   8.215  0.00  0.00     0.020 S 
HETATM    5  C   UNK N   1      32.566  17.855   8.215  0.00  0.00     0.128 C 
HETATM    6  O   UNK N   1      34.410  18.089   6.684  0.00  0.00    -0.258 OA
ENDBRANCH   1   4
TORSDOF 2
ENDMDL
MODEL 2
REMARK VINA RESULT:      -2.7      1.905      3.384
REMARK  2 active torsions:
REMARK  status: ('A' for Active; 'I' for Inactive)
REMARK    1  A    between atoms: S_5  and  C_3 
REMARK    2  A    between atoms: S_6  and  C_3 
ROOT
HETATM    1  C   UNK N   1      32.692  18.102   8.307  0.00  0.00     0.181 C 
ENDROOT
BRANCH   1   2
HETATM    2  S   UNK N   1      31.557  17.108   7.295  0.00  0.00    -0.161 SA
HETATM    3  C   UNK N   1      30.118  17.577   8.294  0.00  0.00     0.090 C 
ENDBRANCH   1   2
BRANCH   1   4
HETATM    4  S   UNK N   1      34.412  17.730   7.856  0.00  0.00     0.020 S 
HETATM    5  C   UNK N   1      34.740  16.970   9.471  0.00  0.00     0.128 C 
HETATM    6  O   UNK N   1      34.901  19.097   8.353  0.00  0.00    -0.258 OA
ENDBRANCH   1   4
TORSDOF 2
ENDMDL
MODEL 3
REMARK VINA RESULT:      -2.5      2.188      3.333
REMARK  2 active torsions:
REMARK  status: ('A' for Active; 'I' for Inactive)
REMARK    1  A    between atoms: S_5  and  C_3 
REMARK    2  A    between atoms: S_6  and  C_3 
ROOT
HETATM    1  C   UNK N   1      32.613  17.692   8.379  0.00  0.00     0.181 C 
ENDROOT
BRANCH   1   2
HETATM    2  S   UNK N   1      30.879  17.262   8.050  0.00  0.00    -0.161 SA
HETATM    3  C   UNK N   1      30.258  18.582   9.126  0.00  0.00     0.090 C 
ENDBRANCH   1   2
BRANCH   1   4
HETATM    4  S   UNK N   1      33.590  17.536   6.855  0.00  0.00     0.020 S 
HETATM    5  C   UNK N   1      34.415  16.037   7.460  0.00  0.00     0.128 C 
HETATM    6  O   UNK N   1      34.710  18.427   7.411  0.00  0.00    -0.258 OA
ENDBRANCH   1   4
TORSDOF 2
ENDMDL
MODEL 4
REMARK VINA RESULT:      -2.5     14.307     15.154
REMARK  2 active torsions:
REMARK  status: ('A' for Active; 'I' for Inactive)
REMARK    1  A    between atoms: S_5  and  C_3 
REMARK    2  A    between atoms: S_6  and  C_3 
ROOT
HETATM    1  C   UNK N   1      19.613  18.783   2.667  0.00  0.00     0.181 C 
ENDROOT
BRANCH   1   2
HETATM    2  S   UNK N   1      20.440  17.258   3.206  0.00  0.00    -0.161 SA
HETATM    3  C   UNK N   1      20.253  16.481   1.578  0.00  0.00     0.090 C 
ENDBRANCH   1   2
BRANCH   1   4
HETATM    4  S   UNK N   1      20.814  20.144   2.587  0.00  0.00     0.020 S 
HETATM    5  C   UNK N   1      22.060  19.185   3.493  0.00  0.00     0.128 C 
HETATM    6  O   UNK N   1      20.287  20.765   3.888  0.00  0.00    -0.258 OA
ENDBRANCH   1   4
TORSDOF 2
ENDMDL
MODEL 5
REMARK VINA RESULT:      -2.4      2.767      3.335
REMARK  2 active torsions:
REMARK  status: ('A' for Active; 'I' for Inactive)
REMARK    1  A    between atoms: S_5  and  C_3 
REMARK    2  A    between atoms: S_6  and  C_3 
ROOT
HETATM    1  C   UNK N   1      36.492  15.102  10.312  0.00  0.00     0.181 C 
ENDROOT
BRANCH   1   2
HETATM    2  S   UNK N   1      36.735  13.648  11.374  0.00  0.00    -0.161 SA
HETATM    3  C   UNK N   1      36.056  14.490  12.829  0.00  0.00     0.090 C 
ENDBRANCH   1   2
BRANCH   1   4
HETATM    4  S   UNK N   1      35.151  16.135  10.973  0.00  0.00     0.020 S 
HETATM    5  C   UNK N   1      34.100  15.807   9.531  0.00  0.00     0.128 C 
HETATM    6  O   UNK N   1      35.724  17.400  10.320  0.00  0.00    -0.258 OA
ENDBRANCH   1   4
TORSDOF 2
ENDMDL
MODEL 6
REMARK VINA RESULT:      -2.4      1.966      3.440
REMARK  2 active torsions:
REMARK  status: ('A' for Active; 'I' for Inactive)
REMARK    1  A    between atoms: S_5  and  C_3 
REMARK    2  A    between atoms: S_6  and  C_3 
ROOT
HETATM    1  C   UNK N   1      34.271  16.064   8.812  0.00  0.00     0.181 C 
ENDROOT
BRANCH   1   2
HETATM    2  S   UNK N   1      34.308  17.796   8.266  0.00  0.00    -0.161 SA
HETATM    3  C   UNK N   1      32.499  17.919   8.248  0.00  0.00     0.090 C 
ENDBRANCH   1   2
BRANCH   1   4
HETATM    4  S   UNK N   1      35.643  15.747   9.960  0.00  0.00     0.020 S 
HETATM    5  C   UNK N   1      34.518  15.101  11.230  0.00  0.00     0.128 C 
HETATM    6  O   UNK N   1      35.559  17.163  10.547  0.00  0.00    -0.258 OA
ENDBRANCH   1   4
TORSDOF 2
ENDMDL
MODEL 7
REMARK VINA RESULT:      -2.4      1.685      2.544
REMARK  2 active torsions:
REMARK  status: ('A' for Active; 'I' for Inactive)
REMARK    1  A    between atoms: S_5  and  C_3 
REMARK    2  A    between atoms: S_6  and  C_3 
ROOT
HETATM    1  C   UNK N   1      34.528  16.161   8.040  0.00  0.00     0.181 C 
ENDROOT
BRANCH   1   2
HETATM    2  S   UNK N   1      34.662  15.569   6.327  0.00  0.00    -0.161 SA
HETATM    3  C   UNK N   1      33.197  14.514   6.486  0.00  0.00     0.090 C 
ENDBRANCH   1   2
BRANCH   1   4
HETATM    4  S   UNK N   1      34.370  17.971   8.060  0.00  0.00     0.020 S 
HETATM    5  C   UNK N   1      32.563  17.877   8.189  0.00  0.00     0.128 C 
HETATM    6  O   UNK N   1      34.299  18.041   6.528  0.00  0.00    -0.258 OA
ENDBRANCH   1   4
TORSDOF 2
ENDMDL
MODEL 8
REMARK VINA RESULT:      -2.3      3.081      4.292
REMARK  2 active torsions:
REMARK  status: ('A' for Active; 'I' for Inactive)
REMARK    1  A    between atoms: S_5  and  C_3 
REMARK    2  A    between atoms: S_6  and  C_3 
ROOT
HETATM    1  C   UNK N   1      32.554  16.341   5.740  0.00  0.00     0.181 C 
ENDROOT
BRANCH   1   2
HETATM    2  S   UNK N   1      32.706  17.494   4.343  0.00  0.00    -0.161 SA
HETATM    3  C   UNK N   1      33.150  16.169   3.188  0.00  0.00     0.090 C 
ENDBRANCH   1   2
BRANCH   1   4
HETATM    4  S   UNK N   1      33.804  16.727   7.001  0.00  0.00     0.020 S 
HETATM    5  C   UNK N   1      32.628  17.725   7.956  0.00  0.00     0.128 C 
HETATM    6  O   UNK N   1      34.289  17.961   6.228  0.00  0.00    -0.258 OA
ENDBRANCH   1   4
TORSDOF 2
ENDMDL
MODEL 9
REMARK VINA RESULT:      -2.3      6.949      8.345
REMARK  2 active torsions:
REMARK  status: ('A' for Active; 'I' for Inactive)
REMARK    1  A    between atoms: S_5  and  C_3 
REMARK    2  A    between atoms: S_6  and  C_3 
ROOT
HETATM    1  C   UNK N   1      36.429  13.481  15.253  0.00  0.00     0.181 C 
ENDROOT
BRANCH   1   2
HETATM    2  S   UNK N   1      35.560  13.083  13.708  0.00  0.00    -0.161 SA
HETATM    3  C   UNK N   1      36.089  14.625  12.914  0.00  0.00     0.090 C 
ENDBRANCH   1   2
BRANCH   1   4
HETATM    4  S   UNK N   1      35.331  13.194  16.673  0.00  0.00     0.020 S 
HETATM    5  C   UNK N   1      35.603  11.401  16.604  0.00  0.00     0.128 C 
HETATM    6  O   UNK N   1      34.095  13.083  15.770  0.00  0.00    -0.258 OA
ENDBRANCH   1   4
TORSDOF 2
ENDMDL
