MODEL 1
REMARK VINA RESULT:      -8.8      0.000      0.000
REMARK  21 active torsions:
REMARK  status: ('A' for Active; 'I' for Inactive)
REMARK    1  A    between atoms: C_3  and  N_1 
REMARK    2  A    between atoms: C_9  and  O_47 
REMARK    3  A    between atoms: C_12  and  N_18 
REMARK    4  A    between atoms: C_14  and  C_19 
REMARK    5  A    between atoms: C_15  and  O_20 
REMARK    6  A    between atoms: C_19  and  O_21 
REMARK    7  A    between atoms: O_21  and  P_45 
REMARK    8  A    between atoms: O_22  and  C_23 
REMARK    9  A    between atoms: P_43  and  O_22 
REMARK   10  A    between atoms: C_24  and  C_23 
REMARK   11  A    between atoms: C_26  and  O_29 
REMARK   12  A    between atoms: C_27  and  N_30 
REMARK   13  A    between atoms: C_28  and  O_31 
REMARK   14  A    between atoms: C_34  and  C_37 
REMARK       I    between atoms: C_37  and  N_39 
REMARK   15  A    between atoms: P_45  and  O_40 
REMARK   16  A    between atoms: O_40  and  P_43 
REMARK   17  A    between atoms: P_43  and  O_44 
REMARK   18  A    between atoms: P_45  and  O_46 
REMARK   19  A    between atoms: O_47  and  P_50 
REMARK   20  A    between atoms: P_50  and  O_49 
REMARK   21  A    between atoms: P_50  and  O_51 
ROOT
HETATM    1  O   UNK N   1      34.116  14.933  11.267  0.00  0.00    -0.294 OA
ENDROOT
BRANCH   1   2
HETATM    2  C   UNK N   1      34.780  13.766  11.681  0.00  0.00     0.215 C 
BRANCH   2   3
HETATM    3  C   UNK N   1      35.457  13.903  13.069  0.00  0.00     0.180 C 
HETATM    4  O   UNK N   1      34.651  13.353  14.077  0.00  0.00    -0.353 OA
HETATM    5  C   UNK N   1      35.079  12.014  14.224  0.00  0.00     0.263 C 
HETATM    6  C   UNK N   1      36.391  11.787  13.446  0.00  0.00     0.214 C 
HETATM    7  C   UNK N   1      36.800  13.223  13.203  0.00  0.00     0.183 C 
BRANCH   5   8
HETATM    8  N   UNK N   1      35.078  11.617  15.631  0.00  0.00    -0.297 N 
HETATM    9  C   UNK N   1      35.172  12.361  16.742  0.00  0.00     0.142 A 
HETATM   10  C   UNK N   1      35.144  11.553  17.819  0.00  0.00     0.122 A 
HETATM   11  N   UNK N   1      35.310  13.705  16.842  0.00  0.00    -0.336 N 
HETATM   12  C   UNK N   1      35.263  12.086  19.091  0.00  0.00     0.131 A 
HETATM   13  N   UNK N   1      35.013  10.273  17.430  0.00  0.00    -0.346 N 
HETATM   14  N   UNK N   1      35.418  13.439  19.206  0.00  0.00    -0.337 N 
HETATM   15  C   UNK N   1      35.440  14.245  18.093  0.00  0.00     0.183 A 
ATOM     16  HN  UNK N   1      35.516  13.856  20.132  1.00  0.00     0.168 HD
HETATM   17  C   UNK N   1      34.979  10.337  16.069  0.00  0.00     0.188 A 
ATOM     18  HN  UNK N   1      34.952   9.442  18.019  1.00  0.00     0.167 HD
ATOM     19  HN  UNK N   1      35.318  14.295  16.011  1.00  0.00     0.168 HD
BRANCH  12  20
HETATM   20  N   UNK N   1      35.244  11.264  20.235  0.00  0.00    -0.383 N 
HETATM   21  H   UNK N   1      36.036  10.795  20.582  0.00  0.00     0.157 HD
HETATM   22  H   UNK N   1      34.391  11.153  20.714  0.00  0.00     0.157 HD
ENDBRANCH  12  20
ENDBRANCH   5   8
BRANCH   6  23
HETATM   23  O   UNK N   1      37.297  10.990  14.179  0.00  0.00    -0.284 OA
BRANCH  23  24
HETATM   24  P   UNK N   1      37.724   9.535  13.307  0.00  0.00     0.391 P 
HETATM   25  O   UNK N   1      36.562   8.511  13.424  0.00  0.00    -0.632 OA
BRANCH  24  26
HETATM   26  O   UNK N   1      39.126   8.796  14.012  0.00  0.00    -0.307 OA
HETATM   27  H   UNK N   1      39.886   8.363  13.592  0.00  0.00     0.222 HD
ENDBRANCH  24  26
BRANCH  24  28
HETATM   28  O   UNK N   1      38.004   9.860  11.624  0.00  0.00    -0.307 OA
HETATM   29  H   UNK N   1      38.398  10.068  10.762  0.00  0.00     0.222 HD
ENDBRANCH  24  28
ENDBRANCH  23  24
ENDBRANCH   6  23
BRANCH   7  30
HETATM   30  O   UNK N   1      37.560  13.380  12.040  0.00  0.00    -0.390 OA
HETATM   31  H   UNK N   1      37.185  13.151  11.176  0.00  0.00     0.210 HD
ENDBRANCH   7  30
ENDBRANCH   2   3
ENDBRANCH   1   2
BRANCH   1  32
HETATM   32  P   UNK N   1      34.973  15.566   9.885  0.00  0.00     0.401 P 
HETATM   33  O   UNK N   1      36.463  15.132   9.978  0.00  0.00    -0.631 OA
BRANCH  32  34
HETATM   34  O   UNK N   1      34.824  17.310   9.729  0.00  0.00    -0.195 OA
BRANCH  34  35
HETATM   35  P   UNK N   1      33.899  17.668   8.297  0.00  0.00     0.401 P 
HETATM   36  O   UNK N   1      32.662  18.598   8.450  0.00  0.00    -0.631 OA
BRANCH  35  37
HETATM   37  O   UNK N   1      34.494  17.442   6.673  0.00  0.00    -0.294 OA
BRANCH  37  38
HETATM   38  C   UNK N   1      33.419  17.623   5.785  0.00  0.00     0.215 C 
BRANCH  38  39
HETATM   39  C   UNK N   1      33.060  16.349   4.998  0.00  0.00     0.180 C 
HETATM   40  O   UNK N   1      32.009  15.604   5.591  0.00  0.00    -0.353 OA
HETATM   41  C   UNK N   1      30.845  15.916   4.877  0.00  0.00     0.259 C 
HETATM   42  C   UNK N   1      31.316  16.151   3.450  0.00  0.00     0.198 C 
HETATM   43  C   UNK N   1      32.688  16.719   3.583  0.00  0.00     0.182 C 
BRANCH  41  44
HETATM   44  N   UNK N   1      30.115  16.995   5.538  0.00  0.00    -0.337 N 
HETATM   45  C   UNK N   1      29.974  16.975   6.963  0.00  0.00     0.106 A 
HETATM   46  C   UNK N   1      29.122  17.789   7.609  0.00  0.00     0.028 A 
HETATM   47  C   UNK N   1      28.271  18.775   6.843  0.00  0.00     0.074 A 
HETATM   48  C   UNK N   1      28.440  18.711   5.349  0.00  0.00    -0.005 A 
HETATM   49  C   UNK N   1      29.291  17.860   4.766  0.00  0.00     0.089 A 
BRANCH  46  50
HETATM   50  C   UNK N   1      28.980  17.704   9.083  0.00  0.00     0.246 C 
HETATM   51  O   UNK N   1      27.937  17.301   9.574  0.00  0.00    -0.268 OA
HETATM   52  N   UNK N   1      30.002  18.051   9.894  0.00  0.00    -0.366 N 
HETATM   53  H   UNK N   1      30.847  18.395   9.523  0.00  0.00     0.159 HD
HETATM   54  H   UNK N   1      29.901  17.958  10.869  0.00  0.00     0.159 HD
ENDBRANCH  46  50
ENDBRANCH  41  44
BRANCH  42  55
HETATM   55  O   UNK N   1      30.479  16.949   2.672  0.00  0.00    -0.388 OA
HETATM   56  H   UNK N   1      29.877  16.623   1.985  0.00  0.00     0.210 HD
ENDBRANCH  42  55
BRANCH  43  57
HETATM   57  O   UNK N   1      33.537  16.059   2.693  0.00  0.00    -0.390 OA
HETATM   58  H   UNK N   1      33.492  16.250   1.743  0.00  0.00     0.210 HD
ENDBRANCH  43  57
ENDBRANCH  38  39
ENDBRANCH  37  38
ENDBRANCH  35  37
BRANCH  35  59
HETATM   59  O   UNK N   1      34.909  19.071   8.276  0.00  0.00    -0.307 OA
HETATM   60  H   UNK N   1      35.732  19.582   8.329  0.00  0.00     0.222 HD
ENDBRANCH  35  59
ENDBRANCH  34  35
ENDBRANCH  32  34
BRANCH  32  61
HETATM   61  O   UNK N   1      34.371  14.823   8.436  0.00  0.00    -0.307 OA
HETATM   62  H   UNK N   1      34.188  13.953   8.048  0.00  0.00     0.222 HD
ENDBRANCH  32  61
ENDBRANCH   1  32
TORSDOF 21
ENDMDL
MODEL 2
REMARK VINA RESULT:      -8.1     10.657     14.257
REMARK  21 active torsions:
REMARK  status: ('A' for Active; 'I' for Inactive)
REMARK    1  A    between atoms: C_3  and  N_1 
REMARK    2  A    between atoms: C_9  and  O_47 
REMARK    3  A    between atoms: C_12  and  N_18 
REMARK    4  A    between atoms: C_14  and  C_19 
REMARK    5  A    between atoms: C_15  and  O_20 
REMARK    6  A    between atoms: C_19  and  O_21 
REMARK    7  A    between atoms: O_21  and  P_45 
REMARK    8  A    between atoms: O_22  and  C_23 
REMARK    9  A    between atoms: P_43  and  O_22 
REMARK   10  A    between atoms: C_24  and  C_23 
REMARK   11  A    between atoms: C_26  and  O_29 
REMARK   12  A    between atoms: C_27  and  N_30 
REMARK   13  A    between atoms: C_28  and  O_31 
REMARK   14  A    between atoms: C_34  and  C_37 
REMARK       I    between atoms: C_37  and  N_39 
REMARK   15  A    between atoms: P_45  and  O_40 
REMARK   16  A    between atoms: O_40  and  P_43 
REMARK   17  A    between atoms: P_43  and  O_44 
REMARK   18  A    between atoms: P_45  and  O_46 
REMARK   19  A    between atoms: O_47  and  P_50 
REMARK   20  A    between atoms: P_50  and  O_49 
REMARK   21  A    between atoms: P_50  and  O_51 
ROOT
HETATM    1  O   UNK N   1      23.460  13.668   3.662  0.00  0.00    -0.294 OA
ENDROOT
BRANCH   1   2
HETATM    2  C   UNK N   1      22.593  14.327   4.549  0.00  0.00     0.215 C 
BRANCH   2   3
HETATM    3  C   UNK N   1      21.835  13.363   5.498  0.00  0.00     0.180 C 
HETATM    4  O   UNK N   1      22.585  13.104   6.654  0.00  0.00    -0.353 OA
HETATM    5  C   UNK N   1      22.162  14.055   7.610  0.00  0.00     0.263 C 
HETATM    6  C   UNK N   1      20.900  14.787   7.108  0.00  0.00     0.214 C 
HETATM    7  C   UNK N   1      20.492  13.860   5.984  0.00  0.00     0.183 C 
BRANCH   5   8
HETATM    8  N   UNK N   1      22.084  13.458   8.942  0.00  0.00    -0.297 N 
HETATM    9  C   UNK N   1      23.058  13.066   9.775  0.00  0.00     0.142 A 
HETATM   10  C   UNK N   1      22.505  12.555  10.892  0.00  0.00     0.122 A 
HETATM   11  N   UNK N   1      24.397  13.112   9.580  0.00  0.00    -0.336 N 
HETATM   12  C   UNK N   1      23.311  12.045  11.895  0.00  0.00     0.131 A 
HETATM   13  N   UNK N   1      21.164  12.623  10.813  0.00  0.00    -0.346 N 
HETATM   14  N   UNK N   1      24.664  12.071  11.705  0.00  0.00    -0.337 N 
HETATM   15  C   UNK N   1      25.206  12.601  10.559  0.00  0.00     0.183 A 
ATOM     16  HN  UNK N   1      25.279  11.694  12.425  1.00  0.00     0.168 HD
HETATM   17  C   UNK N   1      20.927  13.182   9.594  0.00  0.00     0.188 A 
ATOM     18  HN  UNK N   1      20.480  12.324  11.509  1.00  0.00     0.167 HD
ATOM     19  HN  UNK N   1      24.790  13.513   8.729  1.00  0.00     0.168 HD
BRANCH  12  20
HETATM   20  N   UNK N   1      22.759  11.498  13.070  0.00  0.00    -0.383 N 
HETATM   21  H   UNK N   1      21.926  11.819  13.483  0.00  0.00     0.157 HD
HETATM   22  H   UNK N   1      23.235  10.751  13.503  0.00  0.00     0.157 HD
ENDBRANCH  12  20
ENDBRANCH   5   8
BRANCH   6  23
HETATM   23  O   UNK N   1      19.961  14.969   8.147  0.00  0.00    -0.284 OA
BRANCH  23  24
HETATM   24  P   UNK N   1      19.157  16.517   8.021  0.00  0.00     0.391 P 
HETATM   25  O   UNK N   1      18.180  16.488   6.814  0.00  0.00    -0.632 OA
BRANCH  24  26
HETATM   26  O   UNK N   1      20.310  17.775   7.712  0.00  0.00    -0.307 OA
HETATM   27  H   UNK N   1      21.279  17.741   7.667  0.00  0.00     0.222 HD
ENDBRANCH  24  26
BRANCH  24  28
HETATM   28  O   UNK N   1      18.248  16.881   9.456  0.00  0.00    -0.307 OA
HETATM   29  H   UNK N   1      17.545  17.042  10.106  0.00  0.00     0.222 HD
ENDBRANCH  24  28
ENDBRANCH  23  24
ENDBRANCH   6  23
BRANCH   7  30
HETATM   30  O   UNK N   1      19.801  14.518   4.964  0.00  0.00    -0.390 OA
HETATM   31  H   UNK N   1      19.944  15.464   4.807  0.00  0.00     0.210 HD
ENDBRANCH   7  30
ENDBRANCH   2   3
ENDBRANCH   1   2
BRANCH   1  32
HETATM   32  P   UNK N   1      22.565  13.331   2.202  0.00  0.00     0.401 P 
HETATM   33  O   UNK N   1      23.084  14.261   1.070  0.00  0.00    -0.631 OA
BRANCH  32  34
HETATM   34  O   UNK N   1      20.827  13.492   2.414  0.00  0.00    -0.195 OA
BRANCH  34  35
HETATM   35  P   UNK N   1      20.198  14.503   1.143  0.00  0.00     0.401 P 
HETATM   36  O   UNK N   1      19.293  13.835   0.070  0.00  0.00    -0.631 OA
BRANCH  35  37
HETATM   37  O   UNK N   1      20.133  16.244   1.228  0.00  0.00    -0.294 OA
BRANCH  37  38
HETATM   38  C   UNK N   1      20.822  16.651   2.385  0.00  0.00     0.215 C 
BRANCH  38  39
HETATM   39  C   UNK N   1      20.002  17.600   3.279  0.00  0.00     0.180 C 
HETATM   40  O   UNK N   1      20.675  17.961   4.474  0.00  0.00    -0.353 OA
HETATM   41  C   UNK N   1      21.209  19.239   4.261  0.00  0.00     0.259 C 
HETATM   42  C   UNK N   1      20.210  19.930   3.345  0.00  0.00     0.198 C 
HETATM   43  C   UNK N   1      19.641  18.840   2.500  0.00  0.00     0.182 C 
BRANCH  41  44
HETATM   44  N   UNK N   1      22.595  19.143   3.808  0.00  0.00    -0.337 N 
HETATM   45  C   UNK N   1      23.444  18.132   4.362  0.00  0.00     0.106 A 
HETATM   46  C   UNK N   1      24.776  18.138   4.176  0.00  0.00     0.028 A 
HETATM   47  C   UNK N   1      25.435  19.224   3.360  0.00  0.00     0.074 A 
HETATM   48  C   UNK N   1      24.487  20.275   2.846  0.00  0.00    -0.005 A 
HETATM   49  C   UNK N   1      23.172  20.223   3.084  0.00  0.00     0.089 A 
BRANCH  46  50
HETATM   50  C   UNK N   1      25.621  17.092   4.805  0.00  0.00     0.246 C 
HETATM   51  O   UNK N   1      26.697  16.797   4.309  0.00  0.00    -0.268 OA
HETATM   52  N   UNK N   1      25.221  16.473   5.936  0.00  0.00    -0.366 N 
HETATM   53  H   UNK N   1      24.351  16.681   6.346  0.00  0.00     0.159 HD
HETATM   54  H   UNK N   1      25.809  15.804   6.356  0.00  0.00     0.159 HD
ENDBRANCH  46  50
ENDBRANCH  41  44
BRANCH  42  55
HETATM   55  O   UNK N   1      20.727  20.979   2.587  0.00  0.00    -0.388 OA
HETATM   56  H   UNK N   1      20.989  21.845   2.939  0.00  0.00     0.210 HD
ENDBRANCH  42  55
BRANCH  43  57
HETATM   57  O   UNK N   1      18.253  18.977   2.463  0.00  0.00    -0.390 OA
HETATM   58  H   UNK N   1      17.849  19.860   2.472  0.00  0.00     0.210 HD
ENDBRANCH  43  57
ENDBRANCH  38  39
ENDBRANCH  37  38
ENDBRANCH  35  37
BRANCH  35  59
HETATM   59  O   UNK N   1      18.832  14.583   2.199  0.00  0.00    -0.307 OA
HETATM   60  H   UNK N   1      18.113  14.995   2.702  0.00  0.00     0.222 HD
ENDBRANCH  35  59
ENDBRANCH  34  35
ENDBRANCH  32  34
BRANCH  32  61
HETATM   61  O   UNK N   1      22.914  11.718   1.664  0.00  0.00    -0.307 OA
HETATM   62  H   UNK N   1      22.765  11.118   0.917  0.00  0.00     0.222 HD
ENDBRANCH  32  61
ENDBRANCH   1  32
TORSDOF 21
ENDMDL
MODEL 3
REMARK VINA RESULT:      -8.1      2.433      3.357
REMARK  21 active torsions:
REMARK  status: ('A' for Active; 'I' for Inactive)
REMARK    1  A    between atoms: C_3  and  N_1 
REMARK    2  A    between atoms: C_9  and  O_47 
REMARK    3  A    between atoms: C_12  and  N_18 
REMARK    4  A    between atoms: C_14  and  C_19 
REMARK    5  A    between atoms: C_15  and  O_20 
REMARK    6  A    between atoms: C_19  and  O_21 
REMARK    7  A    between atoms: O_21  and  P_45 
REMARK    8  A    between atoms: O_22  and  C_23 
REMARK    9  A    between atoms: P_43  and  O_22 
REMARK   10  A    between atoms: C_24  and  C_23 
REMARK   11  A    between atoms: C_26  and  O_29 
REMARK   12  A    between atoms: C_27  and  N_30 
REMARK   13  A    between atoms: C_28  and  O_31 
REMARK   14  A    between atoms: C_34  and  C_37 
REMARK       I    between atoms: C_37  and  N_39 
REMARK   15  A    between atoms: P_45  and  O_40 
REMARK   16  A    between atoms: O_40  and  P_43 
REMARK   17  A    between atoms: P_43  and  O_44 
REMARK   18  A    between atoms: P_45  and  O_46 
REMARK   19  A    between atoms: O_47  and  P_50 
REMARK   20  A    between atoms: P_50  and  O_49 
REMARK   21  A    between atoms: P_50  and  O_51 
ROOT
HETATM    1  O   UNK N   1      36.259  15.207  10.937  0.00  0.00    -0.294 OA
ENDROOT
BRANCH   1   2
HETATM    2  C   UNK N   1      37.142  14.470  10.130  0.00  0.00     0.215 C 
BRANCH   2   3
HETATM    3  C   UNK N   1      37.371  13.022  10.632  0.00  0.00     0.180 C 
HETATM    4  O   UNK N   1      37.042  12.903  11.991  0.00  0.00    -0.353 OA
HETATM    5  C   UNK N   1      35.691  12.488  12.026  0.00  0.00     0.263 C 
HETATM    6  C   UNK N   1      35.225  12.080  10.614  0.00  0.00     0.214 C 
HETATM    7  C   UNK N   1      36.565  11.958   9.922  0.00  0.00     0.183 C 
BRANCH   5   8
HETATM    8  N   UNK N   1      35.473  11.513  13.093  0.00  0.00    -0.297 N 
HETATM    9  C   UNK N   1      36.206  10.456  13.465  0.00  0.00     0.142 A 
HETATM   10  C   UNK N   1      35.598   9.836  14.495  0.00  0.00     0.122 A 
HETATM   11  N   UNK N   1      37.360  10.002  12.920  0.00  0.00    -0.336 N 
HETATM   12  C   UNK N   1      36.148   8.686  15.036  0.00  0.00     0.131 A 
HETATM   13  N   UNK N   1      34.470  10.490  14.823  0.00  0.00    -0.346 N 
HETATM   14  N   UNK N   1      37.304   8.209  14.486  0.00  0.00    -0.337 N 
HETATM   15  C   UNK N   1      37.909   8.860  13.438  0.00  0.00     0.183 A 
ATOM     16  HN  UNK N   1      37.724   7.359  14.861  1.00  0.00     0.168 HD
HETATM   17  C   UNK N   1      34.411  11.523  13.937  0.00  0.00     0.188 A 
ATOM     18  HN  UNK N   1      33.809  10.264  15.567  1.00  0.00     0.167 HD
ATOM     19  HN  UNK N   1      37.805  10.495  12.147  1.00  0.00     0.168 HD
BRANCH  12  20
HETATM   20  N   UNK N   1      35.529   8.014  16.109  0.00  0.00    -0.383 N 
HETATM   21  H   UNK N   1      34.896   8.442  16.728  0.00  0.00     0.157 HD
HETATM   22  H   UNK N   1      35.743   7.062  16.246  0.00  0.00     0.157 HD
ENDBRANCH  12  20
ENDBRANCH   5   8
BRANCH   6  23
HETATM   23  O   UNK N   1      34.425  10.916  10.649  0.00  0.00    -0.284 OA
BRANCH  23  24
HETATM   24  P   UNK N   1      33.203  10.937   9.398  0.00  0.00     0.391 P 
HETATM   25  O   UNK N   1      32.115   9.880   9.731  0.00  0.00    -0.632 OA
BRANCH  24  26
HETATM   26  O   UNK N   1      33.894  10.493   7.871  0.00  0.00    -0.307 OA
HETATM   27  H   UNK N   1      34.366  11.030   7.215  0.00  0.00     0.222 HD
ENDBRANCH  24  26
BRANCH  24  28
HETATM   28  O   UNK N   1      32.441  12.494   9.278  0.00  0.00    -0.307 OA
HETATM   29  H   UNK N   1      32.008  13.304   8.967  0.00  0.00     0.222 HD
ENDBRANCH  24  28
ENDBRANCH  23  24
ENDBRANCH   6  23
BRANCH   7  30
HETATM   30  O   UNK N   1      36.491  12.215   8.551  0.00  0.00    -0.390 OA
HETATM   31  H   UNK N   1      36.623  11.500   7.910  0.00  0.00     0.210 HD
ENDBRANCH   7  30
ENDBRANCH   2   3
ENDBRANCH   1   2
BRANCH   1  32
HETATM   32  P   UNK N   1      34.900  15.672   9.944  0.00  0.00     0.401 P 
HETATM   33  O   UNK N   1      34.973  14.894   8.600  0.00  0.00    -0.631 OA
BRANCH  32  34
HETATM   34  O   UNK N   1      34.814  17.407   9.674  0.00  0.00    -0.195 OA
BRANCH  34  35
HETATM   35  P   UNK N   1      33.853  17.707   8.253  0.00  0.00     0.401 P 
HETATM   36  O   UNK N   1      32.565  18.562   8.419  0.00  0.00    -0.631 OA
BRANCH  35  37
HETATM   37  O   UNK N   1      34.442  17.512   6.623  0.00  0.00    -0.294 OA
BRANCH  37  38
HETATM   38  C   UNK N   1      33.358  17.684   5.743  0.00  0.00     0.215 C 
BRANCH  38  39
HETATM   39  C   UNK N   1      32.988  16.402   4.975  0.00  0.00     0.180 C 
HETATM   40  O   UNK N   1      31.954  15.657   5.597  0.00  0.00    -0.353 OA
HETATM   41  C   UNK N   1      30.774  15.956   4.903  0.00  0.00     0.259 C 
HETATM   42  C   UNK N   1      31.214  16.181   3.465  0.00  0.00     0.198 C 
HETATM   43  C   UNK N   1      32.586  16.757   3.565  0.00  0.00     0.182 C 
BRANCH  41  44
HETATM   44  N   UNK N   1      30.052  17.037   5.570  0.00  0.00    -0.337 N 
HETATM   45  C   UNK N   1      29.928  17.021   6.997  0.00  0.00     0.106 A 
HETATM   46  C   UNK N   1      29.083  17.838   7.650  0.00  0.00     0.028 A 
HETATM   47  C   UNK N   1      28.224  18.822   6.892  0.00  0.00     0.074 A 
HETATM   48  C   UNK N   1      28.375  18.754   5.395  0.00  0.00    -0.005 A 
HETATM   49  C   UNK N   1      29.220  17.901   4.806  0.00  0.00     0.089 A 
BRANCH  46  50
HETATM   50  C   UNK N   1      28.958  17.757   9.126  0.00  0.00     0.246 C 
HETATM   51  O   UNK N   1      28.013  17.168   9.628  0.00  0.00    -0.268 OA
HETATM   52  N   UNK N   1      29.893  18.313   9.927  0.00  0.00    -0.366 N 
HETATM   53  H   UNK N   1      30.655  18.807   9.547  0.00  0.00     0.159 HD
HETATM   54  H   UNK N   1      29.810  18.222  10.904  0.00  0.00     0.159 HD
ENDBRANCH  46  50
ENDBRANCH  41  44
BRANCH  42  55
HETATM   55  O   UNK N   1      30.358  16.968   2.698  0.00  0.00    -0.388 OA
HETATM   56  H   UNK N   1      30.443  17.927   2.575  0.00  0.00     0.210 HD
ENDBRANCH  42  55
BRANCH  43  57
HETATM   57  O   UNK N   1      33.421  16.093   2.664  0.00  0.00    -0.390 OA
HETATM   58  H   UNK N   1      34.212  16.535   2.316  0.00  0.00     0.210 HD
ENDBRANCH  43  57
ENDBRANCH  38  39
ENDBRANCH  37  38
ENDBRANCH  35  37
BRANCH  35  59
HETATM   59  O   UNK N   1      34.779  19.166   8.218  0.00  0.00    -0.307 OA
HETATM   60  H   UNK N   1      35.261  19.911   7.826  0.00  0.00     0.222 HD
ENDBRANCH  35  59
ENDBRANCH  34  35
ENDBRANCH  32  34
BRANCH  32  61
HETATM   61  O   UNK N   1      33.425  15.151  10.694  0.00  0.00    -0.307 OA
HETATM   62  H   UNK N   1      32.866  14.366  10.808  0.00  0.00     0.222 HD
ENDBRANCH  32  61
ENDBRANCH   1  32
TORSDOF 21
ENDMDL
MODEL 4
REMARK VINA RESULT:      -8.0      5.315     12.060
REMARK  21 active torsions:
REMARK  status: ('A' for Active; 'I' for Inactive)
REMARK    1  A    between atoms: C_3  and  N_1 
REMARK    2  A    between atoms: C_9  and  O_47 
REMARK    3  A    between atoms: C_12  and  N_18 
REMARK    4  A    between atoms: C_14  and  C_19 
REMARK    5  A    between atoms: C_15  and  O_20 
REMARK    6  A    between atoms: C_19  and  O_21 
REMARK    7  A    between atoms: O_21  and  P_45 
REMARK    8  A    between atoms: O_22  and  C_23 
REMARK    9  A    between atoms: P_43  and  O_22 
REMARK   10  A    between atoms: C_24  and  C_23 
REMARK   11  A    between atoms: C_26  and  O_29 
REMARK   12  A    between atoms: C_27  and  N_30 
REMARK   13  A    between atoms: C_28  and  O_31 
REMARK   14  A    between atoms: C_34  and  C_37 
REMARK       I    between atoms: C_37  and  N_39 
REMARK   15  A    between atoms: P_45  and  O_40 
REMARK   16  A    between atoms: O_40  and  P_43 
REMARK   17  A    between atoms: P_43  and  O_44 
REMARK   18  A    between atoms: P_45  and  O_46 
REMARK   19  A    between atoms: O_47  and  P_50 
REMARK   20  A    between atoms: P_50  and  O_49 
REMARK   21  A    between atoms: P_50  and  O_51 
ROOT
HETATM    1  O   UNK N   1      29.742  18.258   8.509  0.00  0.00    -0.294 OA
ENDROOT
BRANCH   1   2
HETATM    2  C   UNK N   1      29.224  18.976   7.418  0.00  0.00     0.215 C 
BRANCH   2   3
HETATM    3  C   UNK N   1      27.737  18.653   7.121  0.00  0.00     0.180 C 
HETATM    4  O   UNK N   1      27.139  19.681   6.375  0.00  0.00    -0.353 OA
HETATM    5  C   UNK N   1      27.283  19.308   5.020  0.00  0.00     0.263 C 
HETATM    6  C   UNK N   1      27.771  17.848   4.920  0.00  0.00     0.214 C 
HETATM    7  C   UNK N   1      27.496  17.385   6.334  0.00  0.00     0.183 C 
BRANCH   5   8
HETATM    8  N   UNK N   1      26.085  19.649   4.255  0.00  0.00    -0.297 N 
HETATM    9  C   UNK N   1      24.809  19.278   4.430  0.00  0.00     0.142 A 
HETATM   10  C   UNK N   1      24.052  19.831   3.462  0.00  0.00     0.122 A 
HETATM   11  N   UNK N   1      24.297  18.457   5.376  0.00  0.00    -0.336 N 
HETATM   12  C   UNK N   1      22.694  19.565   3.406  0.00  0.00     0.131 A 
HETATM   13  N   UNK N   1      24.817  20.586   2.654  0.00  0.00    -0.346 N 
HETATM   14  N   UNK N   1      22.167  18.726   4.347  0.00  0.00    -0.337 N 
HETATM   15  C   UNK N   1      22.958  18.176   5.327  0.00  0.00     0.183 A 
ATOM     16  HN  UNK N   1      21.171  18.507   4.322  1.00  0.00     0.168 HD
HETATM   17  C   UNK N   1      26.074  20.454   3.163  0.00  0.00     0.188 A 
ATOM     18  HN  UNK N   1      24.523  21.133   1.845  1.00  0.00     0.167 HD
ATOM     19  HN  UNK N   1      24.891  18.059   6.103  1.00  0.00     0.168 HD
BRANCH  12  20
HETATM   20  N   UNK N   1      21.880  20.123   2.401  0.00  0.00    -0.383 N 
HETATM   21  H   UNK N   1      21.807  19.757   1.491  0.00  0.00     0.157 HD
HETATM   22  H   UNK N   1      21.353  20.926   2.623  0.00  0.00     0.157 HD
ENDBRANCH  12  20
ENDBRANCH   5   8
BRANCH   6  23
HETATM   23  O   UNK N   1      27.106  17.150   3.888  0.00  0.00    -0.284 OA
BRANCH  23  24
HETATM   24  P   UNK N   1      28.158  15.983   3.120  0.00  0.00     0.391 P 
HETATM   25  O   UNK N   1      28.520  14.872   4.142  0.00  0.00    -0.632 OA
BRANCH  24  26
HETATM   26  O   UNK N   1      29.645  16.735   2.637  0.00  0.00    -0.307 OA
HETATM   27  H   UNK N   1      29.910  17.668   2.652  0.00  0.00     0.222 HD
ENDBRANCH  24  26
BRANCH  24  28
HETATM   28  O   UNK N   1      27.393  15.241   1.748  0.00  0.00    -0.307 OA
HETATM   29  H   UNK N   1      26.974  14.623   1.129  0.00  0.00     0.222 HD
ENDBRANCH  24  28
ENDBRANCH  23  24
ENDBRANCH   6  23
BRANCH   7  30
HETATM   30  O   UNK N   1      28.361  16.367   6.747  0.00  0.00    -0.390 OA
HETATM   31  H   UNK N   1      29.083  16.074   6.171  0.00  0.00     0.210 HD
ENDBRANCH   7  30
ENDBRANCH   2   3
ENDBRANCH   1   2
BRANCH   1  32
HETATM   32  P   UNK N   1      31.231  17.511   7.988  0.00  0.00     0.401 P 
HETATM   33  O   UNK N   1      31.313  16.082   8.594  0.00  0.00    -0.631 OA
BRANCH  32  34
HETATM   34  O   UNK N   1      32.652  18.461   8.399  0.00  0.00    -0.195 OA
BRANCH  34  35
HETATM   35  P   UNK N   1      34.074  17.593   7.891  0.00  0.00     0.401 P 
HETATM   36  O   UNK N   1      34.601  17.852   6.451  0.00  0.00    -0.631 OA
BRANCH  35  37
HETATM   37  O   UNK N   1      35.186  16.820   8.989  0.00  0.00    -0.294 OA
BRANCH  37  38
HETATM   38  C   UNK N   1      34.435  16.091   9.929  0.00  0.00     0.215 C 
BRANCH  38  39
HETATM   39  C   UNK N   1      35.100  14.765  10.342  0.00  0.00     0.180 C 
HETATM   40  O   UNK N   1      34.510  13.630   9.729  0.00  0.00    -0.353 OA
HETATM   41  C   UNK N   1      35.344  13.275   8.661  0.00  0.00     0.259 C 
HETATM   42  C   UNK N   1      36.747  13.630   9.128  0.00  0.00     0.198 C 
HETATM   43  C   UNK N   1      36.572  14.816  10.016  0.00  0.00     0.182 C 
BRANCH  41  44
HETATM   44  N   UNK N   1      34.867  13.880   7.419  0.00  0.00    -0.337 N 
HETATM   45  C   UNK N   1      33.503  13.691   7.027  0.00  0.00     0.106 A 
HETATM   46  C   UNK N   1      33.063  14.007   5.796  0.00  0.00     0.028 A 
HETATM   47  C   UNK N   1      34.005  14.587   4.768  0.00  0.00     0.074 A 
HETATM   48  C   UNK N   1      35.430  14.718   5.236  0.00  0.00    -0.005 A 
HETATM   49  C   UNK N   1      35.808  14.364   6.469  0.00  0.00     0.089 A 
BRANCH  46  50
HETATM   50  C   UNK N   1      31.650  13.754   5.421  0.00  0.00     0.246 C 
HETATM   51  O   UNK N   1      31.383  12.912   4.578  0.00  0.00    -0.268 OA
HETATM   52  N   UNK N   1      30.648  14.435   6.018  0.00  0.00    -0.366 N 
HETATM   53  H   UNK N   1      30.838  15.130   6.688  0.00  0.00     0.159 HD
HETATM   54  H   UNK N   1      29.714  14.232   5.779  0.00  0.00     0.159 HD
ENDBRANCH  46  50
ENDBRANCH  41  44
BRANCH  42  55
HETATM   55  O   UNK N   1      37.673  13.856   8.111  0.00  0.00    -0.388 OA
HETATM   56  H   UNK N   1      37.498  13.745   7.163  0.00  0.00     0.210 HD
ENDBRANCH  42  55
BRANCH  43  57
HETATM   57  O   UNK N   1      37.312  14.619  11.183  0.00  0.00    -0.390 OA
HETATM   58  H   UNK N   1      37.352  13.740  11.593  0.00  0.00     0.210 HD
ENDBRANCH  43  57
ENDBRANCH  38  39
ENDBRANCH  37  38
ENDBRANCH  35  37
BRANCH  35  59
HETATM   59  O   UNK N   1      34.860  19.044   8.405  0.00  0.00    -0.307 OA
HETATM   60  H   UNK N   1      35.344  19.637   9.001  0.00  0.00     0.222 HD
ENDBRANCH  35  59
ENDBRANCH  34  35
ENDBRANCH  32  34
BRANCH  32  61
HETATM   61  O   UNK N   1      31.195  17.277   6.269  0.00  0.00    -0.307 OA
HETATM   62  H   UNK N   1      31.695  16.863   5.548  0.00  0.00     0.222 HD
ENDBRANCH  32  61
ENDBRANCH   1  32
TORSDOF 21
ENDMDL
MODEL 5
REMARK VINA RESULT:      -7.9      2.711     10.897
REMARK  21 active torsions:
REMARK  status: ('A' for Active; 'I' for Inactive)
REMARK    1  A    between atoms: C_3  and  N_1 
REMARK    2  A    between atoms: C_9  and  O_47 
REMARK    3  A    between atoms: C_12  and  N_18 
REMARK    4  A    between atoms: C_14  and  C_19 
REMARK    5  A    between atoms: C_15  and  O_20 
REMARK    6  A    between atoms: C_19  and  O_21 
REMARK    7  A    between atoms: O_21  and  P_45 
REMARK    8  A    between atoms: O_22  and  C_23 
REMARK    9  A    between atoms: P_43  and  O_22 
REMARK   10  A    between atoms: C_24  and  C_23 
REMARK   11  A    between atoms: C_26  and  O_29 
REMARK   12  A    between atoms: C_27  and  N_30 
REMARK   13  A    between atoms: C_28  and  O_31 
REMARK   14  A    between atoms: C_34  and  C_37 
REMARK       I    between atoms: C_37  and  N_39 
REMARK   15  A    between atoms: P_45  and  O_40 
REMARK   16  A    between atoms: O_40  and  P_43 
REMARK   17  A    between atoms: P_43  and  O_44 
REMARK   18  A    between atoms: P_45  and  O_46 
REMARK   19  A    between atoms: O_47  and  P_50 
REMARK   20  A    between atoms: P_50  and  O_49 
REMARK   21  A    between atoms: P_50  and  O_51 
ROOT
HETATM    1  O   UNK N   1      35.832  12.133   6.032  0.00  0.00    -0.294 OA
ENDROOT
BRANCH   1   2
HETATM    2  C   UNK N   1      34.650  12.866   6.235  0.00  0.00     0.215 C 
BRANCH   2   3
HETATM    3  C   UNK N   1      34.405  13.948   5.152  0.00  0.00     0.180 C 
HETATM    4  O   UNK N   1      33.036  14.232   5.026  0.00  0.00    -0.353 OA
HETATM    5  C   UNK N   1      32.789  15.324   5.888  0.00  0.00     0.263 C 
HETATM    6  C   UNK N   1      34.121  15.918   6.388  0.00  0.00     0.214 C 
HETATM    7  C   UNK N   1      35.076  15.278   5.405  0.00  0.00     0.183 C 
BRANCH   5   8
HETATM    8  N   UNK N   1      31.842  16.260   5.285  0.00  0.00    -0.297 N 
HETATM    9  C   UNK N   1      30.758  16.853   5.804  0.00  0.00     0.142 A 
HETATM   10  C   UNK N   1      30.183  17.626   4.863  0.00  0.00     0.122 A 
HETATM   11  N   UNK N   1      30.244  16.718   7.050  0.00  0.00    -0.336 N 
HETATM   12  C   UNK N   1      29.018  18.318   5.148  0.00  0.00     0.131 A 
HETATM   13  N   UNK N   1      30.892  17.564   3.722  0.00  0.00    -0.346 N 
HETATM   14  N   UNK N   1      28.481  18.179   6.397  0.00  0.00    -0.337 N 
HETATM   15  C   UNK N   1      29.087  17.388   7.344  0.00  0.00     0.183 A 
ATOM     16  HN  UNK N   1      27.619  18.672   6.630  1.00  0.00     0.168 HD
HETATM   17  C   UNK N   1      31.912  16.708   4.006  0.00  0.00     0.188 A 
ATOM     18  HN  UNK N   1      30.707  18.049   2.843  1.00  0.00     0.167 HD
ATOM     19  HN  UNK N   1      30.705  16.134   7.747  1.00  0.00     0.168 HD
BRANCH  12  20
HETATM   20  N   UNK N   1      28.391  19.127   4.181  0.00  0.00    -0.383 N 
HETATM   21  H   UNK N   1      27.590  19.670   4.360  0.00  0.00     0.157 HD
HETATM   22  H   UNK N   1      28.777  19.151   3.274  0.00  0.00     0.157 HD
ENDBRANCH  12  20
ENDBRANCH   5   8
BRANCH   6  23
HETATM   23  O   UNK N   1      34.085  17.330   6.402  0.00  0.00    -0.284 OA
BRANCH  23  24
HETATM   24  P   UNK N   1      33.915  17.953   8.028  0.00  0.00     0.391 P 
HETATM   25  O   UNK N   1      34.977  19.062   8.262  0.00  0.00    -0.632 OA
BRANCH  24  26
HETATM   26  O   UNK N   1      34.220  16.702   9.189  0.00  0.00    -0.307 OA
HETATM   27  H   UNK N   1      34.241  15.738   9.083  0.00  0.00     0.222 HD
ENDBRANCH  24  26
BRANCH  24  28
HETATM   28  O   UNK N   1      32.339  18.636   8.287  0.00  0.00    -0.307 OA
HETATM   29  H   UNK N   1      31.557  19.210   8.303  0.00  0.00     0.222 HD
ENDBRANCH  24  28
ENDBRANCH  23  24
ENDBRANCH   6  23
BRANCH   7  30
HETATM   30  O   UNK N   1      36.358  15.100   5.934  0.00  0.00    -0.390 OA
HETATM   31  H   UNK N   1      36.646  15.614   6.704  0.00  0.00     0.210 HD
ENDBRANCH   7  30
ENDBRANCH   2   3
ENDBRANCH   1   2
BRANCH   1  32
HETATM   32  P   UNK N   1      36.563  11.871   7.595  0.00  0.00     0.401 P 
HETATM   33  O   UNK N   1      37.251  10.477   7.598  0.00  0.00    -0.631 OA
BRANCH  32  34
HETATM   34  O   UNK N   1      35.417  12.020   8.919  0.00  0.00    -0.195 OA
BRANCH  34  35
HETATM   35  P   UNK N   1      35.712  13.523   9.750  0.00  0.00     0.401 P 
HETATM   36  O   UNK N   1      36.082  14.763   8.888  0.00  0.00    -0.631 OA
BRANCH  35  37
HETATM   37  O   UNK N   1      35.197  13.847  11.384  0.00  0.00    -0.294 OA
BRANCH  37  38
HETATM   38  C   UNK N   1      36.248  13.495  12.251  0.00  0.00     0.215 C 
BRANCH  38  39
HETATM   39  C   UNK N   1      35.861  13.575  13.739  0.00  0.00     0.180 C 
HETATM   40  O   UNK N   1      34.639  12.918  14.035  0.00  0.00    -0.353 OA
HETATM   41  C   UNK N   1      34.978  11.674  14.582  0.00  0.00     0.259 C 
HETATM   42  C   UNK N   1      36.270  11.922  15.345  0.00  0.00     0.198 C 
HETATM   43  C   UNK N   1      36.971  12.994  14.581  0.00  0.00     0.182 C 
BRANCH  41  44
HETATM   44  N   UNK N   1      34.987  10.646  13.543  0.00  0.00    -0.337 N 
HETATM   45  C   UNK N   1      34.070  10.748  12.449  0.00  0.00     0.106 A 
HETATM   46  C   UNK N   1      33.857   9.729  11.598  0.00  0.00     0.028 A 
HETATM   47  C   UNK N   1      34.593   8.421  11.765  0.00  0.00     0.074 A 
HETATM   48  C   UNK N   1      35.507   8.371  12.960  0.00  0.00    -0.005 A 
HETATM   49  C   UNK N   1      35.658   9.415  13.782  0.00  0.00     0.089 A 
BRANCH  46  50
HETATM   50  C   UNK N   1      32.865   9.866  10.502  0.00  0.00     0.246 C 
HETATM   51  O   UNK N   1      32.176   8.912  10.179  0.00  0.00    -0.268 OA
HETATM   52  N   UNK N   1      32.700  11.047   9.868  0.00  0.00    -0.366 N 
HETATM   53  H   UNK N   1      33.255  11.827  10.099  0.00  0.00     0.159 HD
HETATM   54  H   UNK N   1      32.016  11.128   9.165  0.00  0.00     0.159 HD
ENDBRANCH  46  50
ENDBRANCH  41  44
BRANCH  42  55
HETATM   55  O   UNK N   1      37.068  10.797  15.542  0.00  0.00    -0.388 OA
HETATM   56  H   UNK N   1      37.002   9.971  15.038  0.00  0.00     0.210 HD
ENDBRANCH  42  55
BRANCH  43  57
HETATM   57  O   UNK N   1      37.427  13.962  15.477  0.00  0.00    -0.390 OA
HETATM   58  H   UNK N   1      38.116  13.741  16.124  0.00  0.00     0.210 HD
ENDBRANCH  43  57
ENDBRANCH  38  39
ENDBRANCH  37  38
ENDBRANCH  35  37
BRANCH  35  59
HETATM   59  O   UNK N   1      34.048  13.794   9.366  0.00  0.00    -0.307 OA
HETATM   60  H   UNK N   1      33.099  13.907   9.530  0.00  0.00     0.222 HD
ENDBRANCH  35  59
ENDBRANCH  34  35
ENDBRANCH  32  34
BRANCH  32  61
HETATM   61  O   UNK N   1      37.847  13.014   7.837  0.00  0.00    -0.307 OA
HETATM   62  H   UNK N   1      38.024  13.967   7.843  0.00  0.00     0.222 HD
ENDBRANCH  32  61
ENDBRANCH   1  32
TORSDOF 21
ENDMDL
MODEL 6
REMARK VINA RESULT:      -7.9      2.263      3.419
REMARK  21 active torsions:
REMARK  status: ('A' for Active; 'I' for Inactive)
REMARK    1  A    between atoms: C_3  and  N_1 
REMARK    2  A    between atoms: C_9  and  O_47 
REMARK    3  A    between atoms: C_12  and  N_18 
REMARK    4  A    between atoms: C_14  and  C_19 
REMARK    5  A    between atoms: C_15  and  O_20 
REMARK    6  A    between atoms: C_19  and  O_21 
REMARK    7  A    between atoms: O_21  and  P_45 
REMARK    8  A    between atoms: O_22  and  C_23 
REMARK    9  A    between atoms: P_43  and  O_22 
REMARK   10  A    between atoms: C_24  and  C_23 
REMARK   11  A    between atoms: C_26  and  O_29 
REMARK   12  A    between atoms: C_27  and  N_30 
REMARK   13  A    between atoms: C_28  and  O_31 
REMARK   14  A    between atoms: C_34  and  C_37 
REMARK       I    between atoms: C_37  and  N_39 
REMARK   15  A    between atoms: P_45  and  O_40 
REMARK   16  A    between atoms: O_40  and  P_43 
REMARK   17  A    between atoms: P_43  and  O_44 
REMARK   18  A    between atoms: P_45  and  O_46 
REMARK   19  A    between atoms: O_47  and  P_50 
REMARK   20  A    between atoms: P_50  and  O_49 
REMARK   21  A    between atoms: P_50  and  O_51 
ROOT
HETATM    1  O   UNK N   1      35.258  17.356   9.449  0.00  0.00    -0.294 OA
ENDROOT
BRANCH   1   2
HETATM    2  C   UNK N   1      34.868  16.484  10.479  0.00  0.00     0.215 C 
BRANCH   2   3
HETATM    3  C   UNK N   1      36.063  15.787  11.180  0.00  0.00     0.180 C 
HETATM    4  O   UNK N   1      35.753  15.479  12.513  0.00  0.00    -0.353 OA
HETATM    5  C   UNK N   1      35.251  14.158  12.497  0.00  0.00     0.263 C 
HETATM    6  C   UNK N   1      35.496  13.514  11.117  0.00  0.00     0.214 C 
HETATM    7  C   UNK N   1      36.509  14.486  10.553  0.00  0.00     0.183 C 
BRANCH   5   8
HETATM    8  N   UNK N   1      35.720  13.408  13.661  0.00  0.00    -0.297 N 
HETATM    9  C   UNK N   1      35.237  12.293  14.226  0.00  0.00     0.142 A 
HETATM   10  C   UNK N   1      35.992  11.977  15.296  0.00  0.00     0.122 A 
HETATM   11  N   UNK N   1      34.152  11.570  13.861  0.00  0.00    -0.336 N 
HETATM   12  C   UNK N   1      35.669  10.878  16.074  0.00  0.00     0.131 A 
HETATM   13  N   UNK N   1      36.990  12.868  15.433  0.00  0.00    -0.346 N 
HETATM   14  N   UNK N   1      34.568  10.148  15.725  0.00  0.00    -0.337 N 
HETATM   15  C   UNK N   1      33.814  10.487  14.627  0.00  0.00     0.183 A 
ATOM     16  HN  UNK N   1      34.304   9.339  16.286  1.00  0.00     0.168 HD
HETATM   17  C   UNK N   1      36.798  13.748  14.411  0.00  0.00     0.188 A 
ATOM     18  HN  UNK N   1      37.724  12.882  16.142  1.00  0.00     0.167 HD
ATOM     19  HN  UNK N   1      33.603  11.825  13.041  1.00  0.00     0.168 HD
BRANCH  12  20
HETATM   20  N   UNK N   1      36.437  10.529  17.202  0.00  0.00    -0.383 N 
HETATM   21  H   UNK N   1      36.159  10.709  18.128  0.00  0.00     0.157 HD
HETATM   22  H   UNK N   1      37.301  10.078  17.055  0.00  0.00     0.157 HD
ENDBRANCH  12  20
ENDBRANCH   5   8
BRANCH   6  23
HETATM   23  O   UNK N   1      35.914  12.170  11.241  0.00  0.00    -0.284 OA
BRANCH  23  24
HETATM   24  P   UNK N   1      34.980  11.110  10.210  0.00  0.00     0.391 P 
HETATM   25  O   UNK N   1      35.722   9.753  10.069  0.00  0.00    -0.632 OA
BRANCH  24  26
HETATM   26  O   UNK N   1      34.842  11.782   8.617  0.00  0.00    -0.307 OA
HETATM   27  H   UNK N   1      34.074  12.157   8.158  0.00  0.00     0.222 HD
ENDBRANCH  24  26
BRANCH  24  28
HETATM   28  O   UNK N   1      33.401  10.809  10.869  0.00  0.00    -0.307 OA
HETATM   29  H   UNK N   1      32.651  10.601  11.448  0.00  0.00     0.222 HD
ENDBRANCH  24  28
ENDBRANCH  23  24
ENDBRANCH   6  23
BRANCH   7  30
HETATM   30  O   UNK N   1      36.468  14.561   9.158  0.00  0.00    -0.390 OA
HETATM   31  H   UNK N   1      37.225  14.267   8.629  0.00  0.00     0.210 HD
ENDBRANCH   7  30
ENDBRANCH   2   3
ENDBRANCH   1   2
BRANCH   1  32
HETATM   32  P   UNK N   1      34.040  17.276   8.201  0.00  0.00     0.401 P 
HETATM   33  O   UNK N   1      33.371  18.672   8.063  0.00  0.00    -0.631 OA
BRANCH  32  34
HETATM   34  O   UNK N   1      32.845  16.020   8.493  0.00  0.00    -0.195 OA
BRANCH  34  35
HETATM   35  P   UNK N   1      33.026  14.781   7.283  0.00  0.00     0.401 P 
HETATM   36  O   UNK N   1      34.394  14.046   7.200  0.00  0.00    -0.631 OA
BRANCH  35  37
HETATM   37  O   UNK N   1      31.687  14.006   6.478  0.00  0.00    -0.294 OA
BRANCH  37  38
HETATM   38  C   UNK N   1      30.747  14.996   6.141  0.00  0.00     0.215 C 
BRANCH  38  39
HETATM   39  C   UNK N   1      29.800  14.574   5.003  0.00  0.00     0.180 C 
HETATM   40  O   UNK N   1      28.441  14.888   5.262  0.00  0.00    -0.353 OA
HETATM   41  C   UNK N   1      28.159  16.060   4.548  0.00  0.00     0.259 C 
HETATM   42  C   UNK N   1      29.015  15.968   3.295  0.00  0.00     0.198 C 
HETATM   43  C   UNK N   1      30.239  15.225   3.715  0.00  0.00     0.182 C 
BRANCH  41  44
HETATM   44  N   UNK N   1      28.331  17.231   5.405  0.00  0.00    -0.337 N 
HETATM   45  C   UNK N   1      28.764  17.052   6.758  0.00  0.00     0.106 A 
HETATM   46  C   UNK N   1      28.710  18.045   7.663  0.00  0.00     0.028 A 
HETATM   47  C   UNK N   1      28.187  19.409   7.279  0.00  0.00     0.074 A 
HETATM   48  C   UNK N   1      27.710  19.512   5.854  0.00  0.00    -0.005 A 
HETATM   49  C   UNK N   1      27.771  18.478   5.009  0.00  0.00     0.089 A 
BRANCH  46  50
HETATM   50  C   UNK N   1      29.132  17.801   9.065  0.00  0.00     0.246 C 
HETATM   51  O   UNK N   1      28.302  17.504   9.909  0.00  0.00    -0.268 OA
HETATM   52  N   UNK N   1      30.433  17.885   9.416  0.00  0.00    -0.366 N 
HETATM   53  H   UNK N   1      31.119  18.139   8.757  0.00  0.00     0.159 HD
HETATM   54  H   UNK N   1      30.698  17.689  10.344  0.00  0.00     0.159 HD
ENDBRANCH  46  50
ENDBRANCH  41  44
BRANCH  42  55
HETATM   55  O   UNK N   1      29.313  17.187   2.688  0.00  0.00    -0.388 OA
HETATM   56  H   UNK N   1      29.471  17.313   1.739  0.00  0.00     0.210 HD
ENDBRANCH  42  55
BRANCH  43  57
HETATM   57  O   UNK N   1      30.513  14.237   2.767  0.00  0.00    -0.390 OA
HETATM   58  H   UNK N   1      29.910  13.486   2.657  0.00  0.00     0.210 HD
ENDBRANCH  43  57
ENDBRANCH  38  39
ENDBRANCH  37  38
ENDBRANCH  35  37
BRANCH  35  59
HETATM   59  O   UNK N   1      32.591  13.753   8.603  0.00  0.00    -0.307 OA
HETATM   60  H   UNK N   1      32.569  12.944   9.137  0.00  0.00     0.222 HD
ENDBRANCH  35  59
ENDBRANCH  34  35
ENDBRANCH  32  34
BRANCH  32  61
HETATM   61  O   UNK N   1      34.797  16.979   6.667  0.00  0.00    -0.307 OA
HETATM   62  H   UNK N   1      35.669  16.863   6.260  0.00  0.00     0.222 HD
ENDBRANCH  32  61
ENDBRANCH   1  32
TORSDOF 21
ENDMDL
MODEL 7
REMARK VINA RESULT:      -7.9      2.957     11.373
REMARK  21 active torsions:
REMARK  status: ('A' for Active; 'I' for Inactive)
REMARK    1  A    between atoms: C_3  and  N_1 
REMARK    2  A    between atoms: C_9  and  O_47 
REMARK    3  A    between atoms: C_12  and  N_18 
REMARK    4  A    between atoms: C_14  and  C_19 
REMARK    5  A    between atoms: C_15  and  O_20 
REMARK    6  A    between atoms: C_19  and  O_21 
REMARK    7  A    between atoms: O_21  and  P_45 
REMARK    8  A    between atoms: O_22  and  C_23 
REMARK    9  A    between atoms: P_43  and  O_22 
REMARK   10  A    between atoms: C_24  and  C_23 
REMARK   11  A    between atoms: C_26  and  O_29 
REMARK   12  A    between atoms: C_27  and  N_30 
REMARK   13  A    between atoms: C_28  and  O_31 
REMARK   14  A    between atoms: C_34  and  C_37 
REMARK       I    between atoms: C_37  and  N_39 
REMARK   15  A    between atoms: P_45  and  O_40 
REMARK   16  A    between atoms: O_40  and  P_43 
REMARK   17  A    between atoms: P_43  and  O_44 
REMARK   18  A    between atoms: P_45  and  O_46 
REMARK   19  A    between atoms: O_47  and  P_50 
REMARK   20  A    between atoms: P_50  and  O_49 
REMARK   21  A    between atoms: P_50  and  O_51 
ROOT
HETATM    1  O   UNK N   1      34.051  14.100   6.404  0.00  0.00    -0.294 OA
ENDROOT
BRANCH   1   2
HETATM    2  C   UNK N   1      34.815  15.234   6.081  0.00  0.00     0.215 C 
BRANCH   2   3
HETATM    3  C   UNK N   1      34.049  16.263   5.210  0.00  0.00     0.180 C 
HETATM    4  O   UNK N   1      33.016  15.643   4.491  0.00  0.00    -0.353 OA
HETATM    5  C   UNK N   1      31.860  15.765   5.295  0.00  0.00     0.263 C 
HETATM    6  C   UNK N   1      32.127  16.734   6.464  0.00  0.00     0.214 C 
HETATM    7  C   UNK N   1      33.395  17.394   5.971  0.00  0.00     0.183 C 
BRANCH   5   8
HETATM    8  N   UNK N   1      30.681  16.038   4.476  0.00  0.00    -0.297 N 
HETATM    9  C   UNK N   1      29.381  15.837   4.731  0.00  0.00     0.142 A 
HETATM   10  C   UNK N   1      28.655  16.229   3.667  0.00  0.00     0.122 A 
HETATM   11  N   UNK N   1      28.818  15.298   5.839  0.00  0.00    -0.336 N 
HETATM   12  C   UNK N   1      27.278  16.085   3.674  0.00  0.00     0.131 A 
HETATM   13  N   UNK N   1      29.467  16.710   2.709  0.00  0.00    -0.346 N 
HETATM   14  N   UNK N   1      26.698  15.530   4.780  0.00  0.00    -0.337 N 
HETATM   15  C   UNK N   1      27.459  15.140   5.856  0.00  0.00     0.183 A 
ATOM     16  HN  UNK N   1      25.687  15.405   4.806  1.00  0.00     0.168 HD
HETATM   17  C   UNK N   1      30.718  16.577   3.231  0.00  0.00     0.188 A 
ATOM     18  HN  UNK N   1      29.206  17.088   1.798  1.00  0.00     0.167 HD
ATOM     19  HN  UNK N   1      29.390  15.018   6.635  1.00  0.00     0.168 HD
BRANCH  12  20
HETATM   20  N   UNK N   1      26.495  16.480   2.572  0.00  0.00    -0.383 N 
HETATM   21  H   UNK N   1      25.511  16.496   2.579  0.00  0.00     0.157 HD
HETATM   22  H   UNK N   1      26.958  16.756   1.747  0.00  0.00     0.157 HD
ENDBRANCH  12  20
ENDBRANCH   5   8
BRANCH   6  23
HETATM   23  O   UNK N   1      31.022  17.585   6.693  0.00  0.00    -0.284 OA
BRANCH  23  24
HETATM   24  P   UNK N   1      30.469  17.488   8.349  0.00  0.00     0.391 P 
HETATM   25  O   UNK N   1      28.958  17.127   8.362  0.00  0.00    -0.632 OA
BRANCH  24  26
HETATM   26  O   UNK N   1      30.630  19.028   9.132  0.00  0.00    -0.307 OA
HETATM   27  H   UNK N   1      30.753  19.246  10.069  0.00  0.00     0.222 HD
ENDBRANCH  24  26
BRANCH  24  28
HETATM   28  O   UNK N   1      31.334  16.273   9.240  0.00  0.00    -0.307 OA
HETATM   29  H   UNK N   1      31.600  15.469   9.713  0.00  0.00     0.222 HD
ENDBRANCH  24  28
ENDBRANCH  23  24
ENDBRANCH   6  23
BRANCH   7  30
HETATM   30  O   UNK N   1      34.215  17.837   7.013  0.00  0.00    -0.390 OA
HETATM   31  H   UNK N   1      33.879  18.471   7.665  0.00  0.00     0.210 HD
ENDBRANCH   7  30
ENDBRANCH   2   3
ENDBRANCH   1   2
BRANCH   1  32
HETATM   32  P   UNK N   1      33.985  13.988   8.145  0.00  0.00     0.401 P 
HETATM   33  O   UNK N   1      32.578  13.475   8.561  0.00  0.00    -0.631 OA
BRANCH  32  34
HETATM   34  O   UNK N   1      34.374  15.506   8.942  0.00  0.00    -0.195 OA
BRANCH  34  35
HETATM   35  P   UNK N   1      35.027  15.160  10.519  0.00  0.00     0.401 P 
HETATM   36  O   UNK N   1      35.287  16.361  11.473  0.00  0.00    -0.631 OA
BRANCH  35  37
HETATM   37  O   UNK N   1      34.991  13.583  11.262  0.00  0.00    -0.294 OA
BRANCH  37  38
HETATM   38  C   UNK N   1      36.089  13.485  12.135  0.00  0.00     0.215 C 
BRANCH  38  39
HETATM   39  C   UNK N   1      35.702  13.624  13.618  0.00  0.00     0.180 C 
HETATM   40  O   UNK N   1      34.512  12.929  13.952  0.00  0.00    -0.353 OA
HETATM   41  C   UNK N   1      34.906  11.731  14.561  0.00  0.00     0.259 C 
HETATM   42  C   UNK N   1      36.187  12.076  15.305  0.00  0.00     0.198 C 
HETATM   43  C   UNK N   1      36.838  13.138  14.484  0.00  0.00     0.182 C 
BRANCH  41  44
HETATM   44  N   UNK N   1      34.961  10.653  13.576  0.00  0.00    -0.337 N 
HETATM   45  C   UNK N   1      34.063  10.677  12.461  0.00  0.00     0.106 A 
HETATM   46  C   UNK N   1      33.891   9.611  11.659  0.00  0.00     0.028 A 
HETATM   47  C   UNK N   1      34.654   8.331  11.906  0.00  0.00     0.074 A 
HETATM   48  C   UNK N   1      35.546   8.364  13.119  0.00  0.00    -0.005 A 
HETATM   49  C   UNK N   1      35.655   9.452  13.889  0.00  0.00     0.089 A 
BRANCH  46  50
HETATM   50  C   UNK N   1      32.918   9.669  10.540  0.00  0.00     0.246 C 
HETATM   51  O   UNK N   1      32.281   8.674  10.233  0.00  0.00    -0.268 OA
HETATM   52  N   UNK N   1      32.714  10.820   9.865  0.00  0.00    -0.366 N 
HETATM   53  H   UNK N   1      33.228  11.631  10.082  0.00  0.00     0.159 HD
HETATM   54  H   UNK N   1      32.042  10.848   9.146  0.00  0.00     0.159 HD
ENDBRANCH  46  50
ENDBRANCH  41  44
BRANCH  42  55
HETATM   55  O   UNK N   1      37.036  11.000  15.557  0.00  0.00    -0.388 OA
HETATM   56  H   UNK N   1      36.747  10.113  15.825  0.00  0.00     0.210 HD
ENDBRANCH  42  55
BRANCH  43  57
HETATM   57  O   UNK N   1      37.252  14.170  15.328  0.00  0.00    -0.390 OA
HETATM   58  H   UNK N   1      38.196  14.305  15.506  0.00  0.00     0.210 HD
ENDBRANCH  43  57
ENDBRANCH  38  39
ENDBRANCH  37  38
ENDBRANCH  35  37
BRANCH  35  59
HETATM   59  O   UNK N   1      33.358  15.208  10.966  0.00  0.00    -0.307 OA
HETATM   60  H   UNK N   1      32.441  15.524  10.967  0.00  0.00     0.222 HD
ENDBRANCH  35  59
ENDBRANCH  34  35
ENDBRANCH  32  34
BRANCH  32  61
HETATM   61  O   UNK N   1      35.094  12.771   8.693  0.00  0.00    -0.307 OA
HETATM   62  H   UNK N   1      36.033  12.632   8.890  0.00  0.00     0.222 HD
ENDBRANCH  32  61
ENDBRANCH   1  32
TORSDOF 21
ENDMDL
MODEL 8
REMARK VINA RESULT:      -7.8      1.484      2.132
REMARK  21 active torsions:
REMARK  status: ('A' for Active; 'I' for Inactive)
REMARK    1  A    between atoms: C_3  and  N_1 
REMARK    2  A    between atoms: C_9  and  O_47 
REMARK    3  A    between atoms: C_12  and  N_18 
REMARK    4  A    between atoms: C_14  and  C_19 
REMARK    5  A    between atoms: C_15  and  O_20 
REMARK    6  A    between atoms: C_19  and  O_21 
REMARK    7  A    between atoms: O_21  and  P_45 
REMARK    8  A    between atoms: O_22  and  C_23 
REMARK    9  A    between atoms: P_43  and  O_22 
REMARK   10  A    between atoms: C_24  and  C_23 
REMARK   11  A    between atoms: C_26  and  O_29 
REMARK   12  A    between atoms: C_27  and  N_30 
REMARK   13  A    between atoms: C_28  and  O_31 
REMARK   14  A    between atoms: C_34  and  C_37 
REMARK       I    between atoms: C_37  and  N_39 
REMARK   15  A    between atoms: P_45  and  O_40 
REMARK   16  A    between atoms: O_40  and  P_43 
REMARK   17  A    between atoms: P_43  and  O_44 
REMARK   18  A    between atoms: P_45  and  O_46 
REMARK   19  A    between atoms: O_47  and  P_50 
REMARK   20  A    between atoms: P_50  and  O_49 
REMARK   21  A    between atoms: P_50  and  O_51 
ROOT
HETATM    1  O   UNK N   1      35.509  14.144  10.416  0.00  0.00    -0.294 OA
ENDROOT
BRANCH   1   2
HETATM    2  C   UNK N   1      34.854  13.438  11.439  0.00  0.00     0.215 C 
BRANCH   2   3
HETATM    3  C   UNK N   1      35.408  13.750  12.853  0.00  0.00     0.180 C 
HETATM    4  O   UNK N   1      34.597  13.184  13.847  0.00  0.00    -0.353 OA
HETATM    5  C   UNK N   1      35.157  11.917  14.127  0.00  0.00     0.263 C 
HETATM    6  C   UNK N   1      36.538  11.787  13.455  0.00  0.00     0.214 C 
HETATM    7  C   UNK N   1      36.805  13.240  13.126  0.00  0.00     0.183 C 
BRANCH   5   8
HETATM    8  N   UNK N   1      35.097  11.624  15.558  0.00  0.00    -0.297 N 
HETATM    9  C   UNK N   1      35.228  12.437  16.615  0.00  0.00     0.142 A 
HETATM   10  C   UNK N   1      35.114  11.713  17.746  0.00  0.00     0.122 A 
HETATM   11  N   UNK N   1      35.473  13.768  16.625  0.00  0.00    -0.336 N 
HETATM   12  C   UNK N   1      35.252  12.325  18.980  0.00  0.00     0.131 A 
HETATM   13  N   UNK N   1      34.888  10.422  17.444  0.00  0.00    -0.346 N 
HETATM   14  N   UNK N   1      35.513  13.666  19.003  0.00  0.00    -0.337 N 
HETATM   15  C   UNK N   1      35.621  14.386  17.837  0.00  0.00     0.183 A 
ATOM     16  HN  UNK N   1      35.627  14.139  19.899  1.00  0.00     0.168 HD
HETATM   17  C   UNK N   1      34.886  10.391  16.082  0.00  0.00     0.188 A 
ATOM     18  HN  UNK N   1      34.749   9.643  18.088  1.00  0.00     0.167 HD
ATOM     19  HN  UNK N   1      35.544  14.295  15.755  1.00  0.00     0.168 HD
BRANCH  12  20
HETATM   20  N   UNK N   1      35.145  11.591  20.177  0.00  0.00    -0.383 N 
HETATM   21  H   UNK N   1      34.314  11.516  20.699  0.00  0.00     0.157 HD
HETATM   22  H   UNK N   1      35.947  11.127  20.512  0.00  0.00     0.157 HD
ENDBRANCH  12  20
ENDBRANCH   5   8
BRANCH   6  23
HETATM   23  O   UNK N   1      37.470  11.153  14.306  0.00  0.00    -0.284 OA
BRANCH  23  24
HETATM   24  P   UNK N   1      37.949   9.590  13.683  0.00  0.00     0.391 P 
HETATM   25  O   UNK N   1      36.821   8.561  13.965  0.00  0.00    -0.632 OA
BRANCH  24  26
HETATM   26  O   UNK N   1      39.371   9.024  14.499  0.00  0.00    -0.307 OA
HETATM   27  H   UNK N   1      39.525   8.205  14.996  0.00  0.00     0.222 HD
ENDBRANCH  24  26
BRANCH  24  28
HETATM   28  O   UNK N   1      38.228   9.646  11.969  0.00  0.00    -0.307 OA
HETATM   29  H   UNK N   1      38.469   9.444  11.051  0.00  0.00     0.222 HD
ENDBRANCH  24  28
ENDBRANCH  23  24
ENDBRANCH   6  23
BRANCH   7  30
HETATM   30  O   UNK N   1      37.625  13.399  12.006  0.00  0.00    -0.390 OA
HETATM   31  H   UNK N   1      38.569  13.594  12.114  0.00  0.00     0.210 HD
ENDBRANCH   7  30
ENDBRANCH   2   3
ENDBRANCH   1   2
BRANCH   1  32
HETATM   32  P   UNK N   1      34.551  15.558  10.055  0.00  0.00     0.401 P 
HETATM   33  O   UNK N   1      33.054  15.227  10.309  0.00  0.00    -0.631 OA
BRANCH  32  34
HETATM   34  O   UNK N   1      34.806  16.156   8.421  0.00  0.00    -0.195 OA
BRANCH  34  35
HETATM   35  P   UNK N   1      34.228  17.796   8.328  0.00  0.00     0.401 P 
HETATM   36  O   UNK N   1      35.266  18.939   8.514  0.00  0.00    -0.631 OA
BRANCH  35  37
HETATM   37  O   UNK N   1      32.704  18.251   7.613  0.00  0.00    -0.294 OA
BRANCH  37  38
HETATM   38  C   UNK N   1      31.773  17.231   7.883  0.00  0.00     0.215 C 
BRANCH  38  39
HETATM   39  C   UNK N   1      31.601  16.241   6.717  0.00  0.00     0.180 C 
HETATM   40  O   UNK N   1      30.357  15.559   6.743  0.00  0.00    -0.353 OA
HETATM   41  C   UNK N   1      29.529  16.205   5.815  0.00  0.00     0.259 C 
HETATM   42  C   UNK N   1      30.469  16.675   4.716  0.00  0.00     0.198 C 
HETATM   43  C   UNK N   1      31.756  16.972   5.407  0.00  0.00     0.182 C 
BRANCH  41  44
HETATM   44  N   UNK N   1      28.705  17.211   6.482  0.00  0.00    -0.337 N 
HETATM   45  C   UNK N   1      28.279  18.365   5.751  0.00  0.00     0.106 A 
HETATM   46  C   UNK N   1      27.733  19.434   6.357  0.00  0.00     0.028 A 
HETATM   47  C   UNK N   1      27.541  19.454   7.855  0.00  0.00     0.074 A 
HETATM   48  C   UNK N   1      28.051  18.227   8.563  0.00  0.00    -0.005 A 
HETATM   49  C   UNK N   1      28.605  17.205   7.901  0.00  0.00     0.089 A 
BRANCH  46  50
HETATM   50  C   UNK N   1      27.344  20.625   5.562  0.00  0.00     0.246 C 
HETATM   51  O   UNK N   1      27.079  20.508   4.376  0.00  0.00    -0.268 OA
HETATM   52  N   UNK N   1      27.260  21.841   6.142  0.00  0.00    -0.366 N 
HETATM   53  H   UNK N   1      27.485  21.965   7.092  0.00  0.00     0.159 HD
HETATM   54  H   UNK N   1      26.970  22.615   5.606  0.00  0.00     0.159 HD
ENDBRANCH  46  50
ENDBRANCH  41  44
BRANCH  42  55
HETATM   55  O   UNK N   1      30.007  17.750   3.960  0.00  0.00    -0.388 OA
HETATM   56  H   UNK N   1      29.385  18.427   4.273  0.00  0.00     0.210 HD
ENDBRANCH  42  55
BRANCH  43  57
HETATM   57  O   UNK N   1      32.801  16.401   4.678  0.00  0.00    -0.390 OA
HETATM   58  H   UNK N   1      33.699  16.381   5.048  0.00  0.00     0.210 HD
ENDBRANCH  43  57
ENDBRANCH  38  39
ENDBRANCH  37  38
ENDBRANCH  35  37
BRANCH  35  59
HETATM   59  O   UNK N   1      34.744  17.639   6.686  0.00  0.00    -0.307 OA
HETATM   60  H   UNK N   1      34.984  17.186   5.863  0.00  0.00     0.222 HD
ENDBRANCH  35  59
ENDBRANCH  34  35
ENDBRANCH  32  34
BRANCH  32  61
HETATM   61  O   UNK N   1      34.936  16.824  11.178  0.00  0.00    -0.307 OA
HETATM   62  H   UNK N   1      34.526  17.549  11.676  0.00  0.00     0.222 HD
ENDBRANCH  32  61
ENDBRANCH   1  32
TORSDOF 21
ENDMDL
MODEL 9
REMARK VINA RESULT:      -7.8      4.157     11.235
REMARK  21 active torsions:
REMARK  status: ('A' for Active; 'I' for Inactive)
REMARK    1  A    between atoms: C_3  and  N_1 
REMARK    2  A    between atoms: C_9  and  O_47 
REMARK    3  A    between atoms: C_12  and  N_18 
REMARK    4  A    between atoms: C_14  and  C_19 
REMARK    5  A    between atoms: C_15  and  O_20 
REMARK    6  A    between atoms: C_19  and  O_21 
REMARK    7  A    between atoms: O_21  and  P_45 
REMARK    8  A    between atoms: O_22  and  C_23 
REMARK    9  A    between atoms: P_43  and  O_22 
REMARK   10  A    between atoms: C_24  and  C_23 
REMARK   11  A    between atoms: C_26  and  O_29 
REMARK   12  A    between atoms: C_27  and  N_30 
REMARK   13  A    between atoms: C_28  and  O_31 
REMARK   14  A    between atoms: C_34  and  C_37 
REMARK       I    between atoms: C_37  and  N_39 
REMARK   15  A    between atoms: P_45  and  O_40 
REMARK   16  A    between atoms: O_40  and  P_43 
REMARK   17  A    between atoms: P_43  and  O_44 
REMARK   18  A    between atoms: P_45  and  O_46 
REMARK   19  A    between atoms: O_47  and  P_50 
REMARK   20  A    between atoms: P_50  and  O_49 
REMARK   21  A    between atoms: P_50  and  O_51 
ROOT
HETATM    1  O   UNK N   1      33.256  15.552   4.842  0.00  0.00    -0.294 OA
ENDROOT
BRANCH   1   2
HETATM    2  C   UNK N   1      31.959  15.442   5.373  0.00  0.00     0.215 C 
BRANCH   2   3
HETATM    3  C   UNK N   1      31.076  16.687   5.101  0.00  0.00     0.180 C 
HETATM    4  O   UNK N   1      29.860  16.320   4.507  0.00  0.00    -0.353 OA
HETATM    5  C   UNK N   1      28.945  16.153   5.572  0.00  0.00     0.263 C 
HETATM    6  C   UNK N   1      29.554  16.690   6.883  0.00  0.00     0.214 C 
HETATM    7  C   UNK N   1      30.707  17.495   6.324  0.00  0.00     0.183 C 
BRANCH   5   8
HETATM    8  N   UNK N   1      27.624  16.661   5.209  0.00  0.00    -0.297 N 
HETATM    9  C   UNK N   1      27.267  17.821   4.641  0.00  0.00     0.142 A 
HETATM   10  C   UNK N   1      25.926  17.857   4.513  0.00  0.00     0.122 A 
HETATM   11  N   UNK N   1      28.062  18.850   4.264  0.00  0.00    -0.336 N 
HETATM   12  C   UNK N   1      25.308  18.976   3.983  0.00  0.00     0.131 A 
HETATM   13  N   UNK N   1      25.390  16.714   4.978  0.00  0.00    -0.346 N 
HETATM   14  N   UNK N   1      26.097  20.028   3.611  0.00  0.00    -0.337 N 
HETATM   15  C   UNK N   1      27.464  19.968   3.747  0.00  0.00     0.183 A 
ATOM     16  HN  UNK N   1      25.666  20.867   3.226  1.00  0.00     0.168 HD
HETATM   17  C   UNK N   1      26.461  15.991   5.408  0.00  0.00     0.188 A 
ATOM     18  HN  UNK N   1      24.405  16.449   5.002  1.00  0.00     0.167 HD
ATOM     19  HN  UNK N   1      29.075  18.794   4.362  1.00  0.00     0.168 HD
BRANCH  12  20
HETATM   20  N   UNK N   1      23.908  19.043   3.845  0.00  0.00    -0.383 N 
HETATM   21  H   UNK N   1      23.303  18.294   4.049  0.00  0.00     0.157 HD
HETATM   22  H   UNK N   1      23.512  19.887   3.526  0.00  0.00     0.157 HD
ENDBRANCH  12  20
ENDBRANCH   5   8
BRANCH   6  23
HETATM   23  O   UNK N   1      28.600  17.402   7.643  0.00  0.00    -0.284 OA
BRANCH  23  24
HETATM   24  P   UNK N   1      29.004  17.402   9.345  0.00  0.00     0.391 P 
HETATM   25  O   UNK N   1      27.875  16.690  10.138  0.00  0.00    -0.632 OA
BRANCH  24  26
HETATM   26  O   UNK N   1      29.100  19.027   9.943  0.00  0.00    -0.307 OA
HETATM   27  H   UNK N   1      28.961  19.873   9.488  0.00  0.00     0.222 HD
ENDBRANCH  24  26
BRANCH  24  28
HETATM   28  O   UNK N   1      30.498  16.568   9.644  0.00  0.00    -0.307 OA
HETATM   29  H   UNK N   1      31.177  15.917   9.883  0.00  0.00     0.222 HD
ENDBRANCH  24  28
ENDBRANCH  23  24
ENDBRANCH   6  23
BRANCH   7  30
HETATM   30  O   UNK N   1      31.784  17.586   7.210  0.00  0.00    -0.390 OA
HETATM   31  H   UNK N   1      31.933  18.397   7.719  0.00  0.00     0.210 HD
ENDBRANCH   7  30
ENDBRANCH   2   3
ENDBRANCH   1   2
BRANCH   1  32
HETATM   32  P   UNK N   1      34.325  15.990   6.150  0.00  0.00     0.401 P 
HETATM   33  O   UNK N   1      35.757  15.486   5.816  0.00  0.00    -0.631 OA
BRANCH  32  34
HETATM   34  O   UNK N   1      33.782  15.385   7.708  0.00  0.00    -0.195 OA
BRANCH  34  35
HETATM   35  P   UNK N   1      34.596  16.270   8.969  0.00  0.00     0.401 P 
HETATM   36  O   UNK N   1      34.229  17.770   9.150  0.00  0.00    -0.631 OA
BRANCH  35  37
HETATM   37  O   UNK N   1      35.433  15.516  10.300  0.00  0.00    -0.294 OA
BRANCH  37  38
HETATM   38  C   UNK N   1      34.499  14.760  11.032  0.00  0.00     0.215 C 
BRANCH  38  39
HETATM   39  C   UNK N   1      35.154  13.755  11.997  0.00  0.00     0.180 C 
HETATM   40  O   UNK N   1      35.077  12.414  11.543  0.00  0.00    -0.353 OA
HETATM   41  C   UNK N   1      36.326  12.109  10.985  0.00  0.00     0.259 C 
HETATM   42  C   UNK N   1      37.326  12.903  11.811  0.00  0.00     0.198 C 
HETATM   43  C   UNK N   1      36.596  14.137  12.221  0.00  0.00     0.182 C 
BRANCH  41  44
HETATM   44  N   UNK N   1      36.306  12.333   9.541  0.00  0.00    -0.337 N 
HETATM   45  C   UNK N   1      35.068  12.222   8.832  0.00  0.00     0.106 A 
HETATM   46  C   UNK N   1      35.015  12.174   7.489  0.00  0.00     0.028 A 
HETATM   47  C   UNK N   1      36.280  12.244   6.666  0.00  0.00     0.074 A 
HETATM   48  C   UNK N   1      37.545  12.317   7.479  0.00  0.00    -0.005 A 
HETATM   49  C   UNK N   1      37.530  12.339   8.816  0.00  0.00     0.089 A 
BRANCH  46  50
HETATM   50  C   UNK N   1      33.711  12.016   6.798  0.00  0.00     0.246 C 
HETATM   51  O   UNK N   1      32.672  12.061   7.437  0.00  0.00    -0.268 OA
HETATM   52  N   UNK N   1      33.658  11.842   5.460  0.00  0.00    -0.366 N 
HETATM   53  H   UNK N   1      34.482  11.785   4.925  0.00  0.00     0.159 HD
HETATM   54  H   UNK N   1      32.783  11.770   5.015  0.00  0.00     0.159 HD
ENDBRANCH  46  50
ENDBRANCH  41  44
BRANCH  42  55
HETATM   55  O   UNK N   1      38.533  13.182  11.175  0.00  0.00    -0.388 OA
HETATM   56  H   UNK N   1      38.668  13.881  10.515  0.00  0.00     0.210 HD
ENDBRANCH  42  55
BRANCH  43  57
HETATM   57  O   UNK N   1      36.811  14.357  13.583  0.00  0.00    -0.390 OA
HETATM   58  H   UNK N   1      36.147  14.076  14.233  0.00  0.00     0.210 HD
ENDBRANCH  43  57
ENDBRANCH  38  39
ENDBRANCH  37  38
ENDBRANCH  35  37
BRANCH  35  59
HETATM   59  O   UNK N   1      33.176  15.849   9.861  0.00  0.00    -0.307 OA
HETATM   60  H   UNK N   1      32.655  15.477  10.589  0.00  0.00     0.222 HD
ENDBRANCH  35  59
ENDBRANCH  34  35
ENDBRANCH  32  34
BRANCH  32  61
HETATM   61  O   UNK N   1      34.459  17.718   6.239  0.00  0.00    -0.307 OA
HETATM   62  H   UNK N   1      33.929  18.514   6.402  0.00  0.00     0.222 HD
ENDBRANCH  32  61
ENDBRANCH   1  32
TORSDOF 21
ENDMDL
