MODEL 1
REMARK VINA RESULT:      -5.3      0.000      0.000
REMARK  13 active torsions:
REMARK  status: ('A' for Active; 'I' for Inactive)
REMARK    1  A    between atoms: C_2  and  N_1 
REMARK    2  A    between atoms: C_2  and  C_3 
REMARK    3  A    between atoms: C_2  and  C_19 
REMARK    4  A    between atoms: C_3  and  C_4 
REMARK    5  A    between atoms: C_4  and  C_5 
REMARK    6  A    between atoms: C_5  and  N_6 
REMARK       I    between atoms: N_6  and  C_7 
REMARK       I    between atoms: C_7  and  N_10 
REMARK    7  A    between atoms: C_11  and  N_10 
REMARK    8  A    between atoms: C_11  and  C_12 
REMARK    9  A    between atoms: C_11  and  C_16 
REMARK   10  A    between atoms: C_12  and  C_13 
REMARK   11  A    between atoms: C_13  and  O_14 
REMARK   12  A    between atoms: C_16  and  O_17 
REMARK   13  A    between atoms: C_19  and  O_20 
ROOT
HETATM    1  N   UNK N   1      30.234  16.749   8.025  0.00  0.00    -0.227 N 
HETATM    2  C   UNK N   1      31.375  17.443   8.511  0.00  0.00     0.668 C 
HETATM    3  N   UNK N   1      31.252  18.622   9.014  0.00  0.00    -0.235 N 
ATOM      4  HN  UNK N   1      30.420  18.620   9.605  1.00  0.00     0.174 HD
HETATM    5  N   UNK N   1      32.629  16.772   8.539  0.00  0.00    -0.212 N 
HETATM    6  H   UNK N   1      30.369  15.902   7.542  0.00  0.00     0.177 HD
HETATM    7  H   UNK N   1      31.644  19.524   9.053  0.00  0.00     0.174 HD
HETATM    8  H   UNK N   1      32.661  15.862   8.164  0.00  0.00     0.178 HD
ENDROOT
BRANCH   1   9
HETATM    9  C   UNK N   1      28.886  17.230   8.208  0.00  0.00     0.138 C 
BRANCH   9  10
HETATM   10  C   UNK N   1      28.257  17.482   6.848  0.00  0.00     0.023 C 
BRANCH  10  11
HETATM   11  C   UNK N   1      28.953  16.704   5.743  0.00  0.00     0.037 C 
BRANCH  11  12
HETATM   12  C   UNK N   1      29.676  17.645   4.791  0.00  0.00     0.173 C 
BRANCH  12  13
HETATM   13  N   UNK N   1      29.060  17.577   3.475  0.00  0.00    -0.418 N 
HETATM   14  H   UNK N   1      28.863  16.706   2.981  0.00  0.00     0.150 HD
HETATM   15  H   UNK N   1      28.809  18.453   3.018  0.00  0.00     0.150 HD
ENDBRANCH  12  13
BRANCH  12  16
HETATM   16  C   UNK N   1      31.134  17.291   4.723  0.00  0.00     0.163 C 
HETATM   17  O   UNK N   1      31.885  17.954   4.025  0.00  0.00    -0.648 OA
BRANCH  16  18
HETATM   18  O   UNK N   1      31.621  16.240   5.412  0.00  0.00    -0.775 OA
HETATM   19  H   UNK N   1      31.175  15.832   6.127  0.00  0.00     0.167 HD
ENDBRANCH  16  18
ENDBRANCH  12  16
ENDBRANCH  11  12
ENDBRANCH  10  11
ENDBRANCH   9  10
ENDBRANCH   1   9
BRANCH   5  20
HETATM   20  C   UNK N   1      33.866  17.312   9.074  0.00  0.00     0.207 C 
BRANCH  20  21
HETATM   21  C   UNK N   1      34.754  16.231   9.672  0.00  0.00     0.146 C 
BRANCH  21  22
HETATM   22  C   UNK N   1      33.928  15.032  10.001  0.00  0.00     0.141 C 
HETATM   23  O   UNK N   1      33.968  14.050   9.277  0.00  0.00    -0.650 OA
BRANCH  22  24
HETATM   24  O   UNK N   1      33.146  15.025  11.097  0.00  0.00    -0.776 OA
HETATM   25  H   UNK N   1      32.548  14.360  11.377  0.00  0.00     0.167 HD
ENDBRANCH  22  24
ENDBRANCH  21  22
ENDBRANCH  20  21
BRANCH  20  26
HETATM   26  C   UNK N   1      34.598  18.198   8.099  0.00  0.00     0.164 C 
HETATM   27  O   UNK N   1      34.509  17.986   6.902  0.00  0.00    -0.648 OA
BRANCH  26  28
HETATM   28  O   UNK N   1      35.322  19.249   8.537  0.00  0.00    -0.775 OA
HETATM   29  H   UNK N   1      36.115  19.444   8.996  0.00  0.00     0.167 HD
ENDBRANCH  26  28
ENDBRANCH  20  26
ENDBRANCH   5  20
TORSDOF 13
ENDMDL
MODEL 2
REMARK VINA RESULT:      -5.3      6.988      9.136
REMARK  13 active torsions:
REMARK  status: ('A' for Active; 'I' for Inactive)
REMARK    1  A    between atoms: C_2  and  N_1 
REMARK    2  A    between atoms: C_2  and  C_3 
REMARK    3  A    between atoms: C_2  and  C_19 
REMARK    4  A    between atoms: C_3  and  C_4 
REMARK    5  A    between atoms: C_4  and  C_5 
REMARK    6  A    between atoms: C_5  and  N_6 
REMARK       I    between atoms: N_6  and  C_7 
REMARK       I    between atoms: C_7  and  N_10 
REMARK    7  A    between atoms: C_11  and  N_10 
REMARK    8  A    between atoms: C_11  and  C_12 
REMARK    9  A    between atoms: C_11  and  C_16 
REMARK   10  A    between atoms: C_12  and  C_13 
REMARK   11  A    between atoms: C_13  and  O_14 
REMARK   12  A    between atoms: C_16  and  O_17 
REMARK   13  A    between atoms: C_19  and  O_20 
ROOT
HETATM    1  N   UNK N   1      23.151  18.256   5.589  0.00  0.00    -0.227 N 
HETATM    2  C   UNK N   1      24.176  18.877   4.825  0.00  0.00     0.668 C 
HETATM    3  N   UNK N   1      23.886  19.504   3.739  0.00  0.00    -0.235 N 
ATOM      4  HN  UNK N   1      23.040  20.048   3.913  1.00  0.00     0.174 HD
HETATM    5  N   UNK N   1      25.503  18.892   5.338  0.00  0.00    -0.212 N 
HETATM    6  H   UNK N   1      23.409  17.686   6.349  0.00  0.00     0.177 HD
HETATM    7  H   UNK N   1      24.158  19.667   2.808  0.00  0.00     0.174 HD
HETATM    8  H   UNK N   1      25.664  18.417   6.185  0.00  0.00     0.178 HD
ENDROOT
BRANCH   1   9
HETATM    9  C   UNK N   1      21.746  18.423   5.301  0.00  0.00     0.138 C 
BRANCH   9  10
HETATM   10  C   UNK N   1      21.291  17.307   4.375  0.00  0.00     0.023 C 
BRANCH  10  11
HETATM   11  C   UNK N   1      21.005  17.809   2.969  0.00  0.00     0.037 C 
BRANCH  11  12
HETATM   12  C   UNK N   1      20.029  18.976   2.999  0.00  0.00     0.173 C 
BRANCH  12  13
HETATM   13  N   UNK N   1      18.780  18.584   2.363  0.00  0.00    -0.418 N 
HETATM   14  H   UNK N   1      18.476  17.617   2.250  0.00  0.00     0.150 HD
HETATM   15  H   UNK N   1      18.171  19.321   2.010  0.00  0.00     0.150 HD
ENDBRANCH  12  13
BRANCH  12  16
HETATM   16  C   UNK N   1      20.630  20.170   2.317  0.00  0.00     0.163 C 
HETATM   17  O   UNK N   1      21.316  20.951   2.958  0.00  0.00    -0.648 OA
BRANCH  16  18
HETATM   18  O   UNK N   1      20.410  20.400   1.007  0.00  0.00    -0.775 OA
HETATM   19  H   UNK N   1      20.224  21.246   0.650  0.00  0.00     0.167 HD
ENDBRANCH  16  18
ENDBRANCH  12  16
ENDBRANCH  11  12
ENDBRANCH  10  11
ENDBRANCH   9  10
ENDBRANCH   1   9
BRANCH   5  20
HETATM   20  C   UNK N   1      26.641  19.548   4.719  0.00  0.00     0.207 C 
BRANCH  20  21
HETATM   21  C   UNK N   1      27.232  20.632   5.609  0.00  0.00     0.146 C 
BRANCH  21  22
HETATM   22  C   UNK N   1      27.143  20.209   7.038  0.00  0.00     0.141 C 
HETATM   23  O   UNK N   1      27.923  19.379   7.474  0.00  0.00    -0.650 OA
BRANCH  22  24
HETATM   24  O   UNK N   1      26.211  20.745   7.849  0.00  0.00    -0.776 OA
HETATM   25  H   UNK N   1      26.342  21.283   8.605  0.00  0.00     0.167 HD
ENDBRANCH  22  24
ENDBRANCH  21  22
ENDBRANCH  20  21
BRANCH  20  26
HETATM   26  C   UNK N   1      27.677  18.582   4.206  0.00  0.00     0.164 C 
HETATM   27  O   UNK N   1      27.338  17.646   3.503  0.00  0.00    -0.648 OA
BRANCH  26  28
HETATM   28  O   UNK N   1      28.983  18.766   4.485  0.00  0.00    -0.775 OA
HETATM   29  H   UNK N   1      29.726  19.262   4.200  0.00  0.00     0.167 HD
ENDBRANCH  26  28
ENDBRANCH  20  26
ENDBRANCH   5  20
TORSDOF 13
ENDMDL
MODEL 3
REMARK VINA RESULT:      -5.3      2.461      2.848
REMARK  13 active torsions:
REMARK  status: ('A' for Active; 'I' for Inactive)
REMARK    1  A    between atoms: C_2  and  N_1 
REMARK    2  A    between atoms: C_2  and  C_3 
REMARK    3  A    between atoms: C_2  and  C_19 
REMARK    4  A    between atoms: C_3  and  C_4 
REMARK    5  A    between atoms: C_4  and  C_5 
REMARK    6  A    between atoms: C_5  and  N_6 
REMARK       I    between atoms: N_6  and  C_7 
REMARK       I    between atoms: C_7  and  N_10 
REMARK    7  A    between atoms: C_11  and  N_10 
REMARK    8  A    between atoms: C_11  and  C_12 
REMARK    9  A    between atoms: C_11  and  C_16 
REMARK   10  A    between atoms: C_12  and  C_13 
REMARK   11  A    between atoms: C_13  and  O_14 
REMARK   12  A    between atoms: C_16  and  O_17 
REMARK   13  A    between atoms: C_19  and  O_20 
ROOT
HETATM    1  N   UNK N   1      30.021  16.995   7.641  0.00  0.00    -0.227 N 
HETATM    2  C   UNK N   1      31.121  17.582   8.322  0.00  0.00     0.668 C 
HETATM    3  N   UNK N   1      30.935  18.575   9.121  0.00  0.00    -0.235 N 
ATOM      4  HN  UNK N   1      30.098  18.377   9.670  1.00  0.00     0.174 HD
HETATM    5  N   UNK N   1      32.406  16.984   8.198  0.00  0.00    -0.212 N 
HETATM    6  H   UNK N   1      30.202  16.317   6.951  0.00  0.00     0.177 HD
HETATM    7  H   UNK N   1      31.282  19.449   9.410  0.00  0.00     0.174 HD
HETATM    8  H   UNK N   1      32.487  16.212   7.592  0.00  0.00     0.178 HD
ENDROOT
BRANCH   1   9
HETATM    9  C   UNK N   1      28.649  17.349   7.915  0.00  0.00     0.138 C 
BRANCH   9  10
HETATM   10  C   UNK N   1      28.088  18.124   6.734  0.00  0.00     0.023 C 
BRANCH  10  11
HETATM   11  C   UNK N   1      27.661  19.530   7.122  0.00  0.00     0.037 C 
BRANCH  11  12
HETATM   12  C   UNK N   1      27.784  20.479   5.939  0.00  0.00     0.173 C 
BRANCH  12  13
HETATM   13  N   UNK N   1      27.322  21.804   6.325  0.00  0.00    -0.418 N 
HETATM   14  H   UNK N   1      27.932  22.617   6.414  0.00  0.00     0.150 HD
HETATM   15  H   UNK N   1      26.329  21.927   6.517  0.00  0.00     0.150 HD
ENDBRANCH  12  13
BRANCH  12  16
HETATM   16  C   UNK N   1      26.999  19.953   4.772  0.00  0.00     0.163 C 
HETATM   17  O   UNK N   1      25.785  19.846   4.859  0.00  0.00    -0.648 OA
BRANCH  16  18
HETATM   18  O   UNK N   1      27.618  19.582   3.634  0.00  0.00    -0.775 OA
HETATM   19  H   UNK N   1      28.512  19.781   3.438  0.00  0.00     0.167 HD
ENDBRANCH  16  18
ENDBRANCH  12  16
ENDBRANCH  11  12
ENDBRANCH  10  11
ENDBRANCH   9  10
ENDBRANCH   1   9
BRANCH   5  20
HETATM   20  C   UNK N   1      33.610  17.415   8.887  0.00  0.00     0.207 C 
BRANCH  20  21
HETATM   21  C   UNK N   1      34.331  16.256   9.560  0.00  0.00     0.146 C 
BRANCH  21  22
HETATM   22  C   UNK N   1      33.384  15.118   9.747  0.00  0.00     0.141 C 
HETATM   23  O   UNK N   1      33.405  14.178   8.970  0.00  0.00    -0.650 OA
BRANCH  22  24
HETATM   24  O   UNK N   1      32.512  15.121  10.773  0.00  0.00    -0.776 OA
HETATM   25  H   UNK N   1      32.091  15.857  11.173  0.00  0.00     0.167 HD
ENDBRANCH  22  24
ENDBRANCH  21  22
ENDBRANCH  20  21
BRANCH  20  26
HETATM   26  C   UNK N   1      34.521  18.251   8.026  0.00  0.00     0.164 C 
HETATM   27  O   UNK N   1      35.259  19.073   8.543  0.00  0.00    -0.648 OA
BRANCH  26  28
HETATM   28  O   UNK N   1      34.555  18.073   6.690  0.00  0.00    -0.775 OA
HETATM   29  H   UNK N   1      34.636  18.560   5.893  0.00  0.00     0.167 HD
ENDBRANCH  26  28
ENDBRANCH  20  26
ENDBRANCH   5  20
TORSDOF 13
ENDMDL
MODEL 4
REMARK VINA RESULT:      -5.3     10.849     12.299
REMARK  13 active torsions:
REMARK  status: ('A' for Active; 'I' for Inactive)
REMARK    1  A    between atoms: C_2  and  N_1 
REMARK    2  A    between atoms: C_2  and  C_3 
REMARK    3  A    between atoms: C_2  and  C_19 
REMARK    4  A    between atoms: C_3  and  C_4 
REMARK    5  A    between atoms: C_4  and  C_5 
REMARK    6  A    between atoms: C_5  and  N_6 
REMARK       I    between atoms: N_6  and  C_7 
REMARK       I    between atoms: C_7  and  N_10 
REMARK    7  A    between atoms: C_11  and  N_10 
REMARK    8  A    between atoms: C_11  and  C_12 
REMARK    9  A    between atoms: C_11  and  C_16 
REMARK   10  A    between atoms: C_12  and  C_13 
REMARK   11  A    between atoms: C_13  and  O_14 
REMARK   12  A    between atoms: C_16  and  O_17 
REMARK   13  A    between atoms: C_19  and  O_20 
ROOT
HETATM    1  N   UNK N   1      21.671  15.978   4.876  0.00  0.00    -0.227 N 
HETATM    2  C   UNK N   1      21.493  16.375   6.229  0.00  0.00     0.668 C 
HETATM    3  N   UNK N   1      21.972  17.495   6.645  0.00  0.00    -0.235 N 
ATOM      4  HN  UNK N   1      21.789  18.196   5.926  1.00  0.00     0.174 HD
HETATM    5  N   UNK N   1      20.683  15.573   7.080  0.00  0.00    -0.212 N 
HETATM    6  H   UNK N   1      21.399  15.070   4.611  0.00  0.00     0.177 HD
HETATM    7  H   UNK N   1      22.444  17.943   7.383  0.00  0.00     0.174 HD
HETATM    8  H   UNK N   1      20.322  14.738   6.702  0.00  0.00     0.178 HD
ENDROOT
BRANCH   1   9
HETATM    9  C   UNK N   1      22.234  16.848   3.870  0.00  0.00     0.138 C 
BRANCH   9  10
HETATM   10  C   UNK N   1      21.113  17.620   3.194  0.00  0.00     0.023 C 
BRANCH  10  11
HETATM   11  C   UNK N   1      21.202  19.113   3.463  0.00  0.00     0.037 C 
BRANCH  11  12
HETATM   12  C   UNK N   1      20.176  19.874   2.637  0.00  0.00     0.173 C 
BRANCH  12  13
HETATM   13  N   UNK N   1      19.185  18.946   2.114  0.00  0.00    -0.418 N 
HETATM   14  H   UNK N   1      18.892  18.094   2.592  0.00  0.00     0.150 HD
HETATM   15  H   UNK N   1      18.756  19.162   1.214  0.00  0.00     0.150 HD
ENDBRANCH  12  13
BRANCH  12  16
HETATM   16  C   UNK N   1      20.857  20.620   1.526  0.00  0.00     0.163 C 
HETATM   17  O   UNK N   1      22.059  20.830   1.587  0.00  0.00    -0.648 OA
BRANCH  16  18
HETATM   18  O   UNK N   1      20.157  21.074   0.468  0.00  0.00    -0.775 OA
HETATM   19  H   UNK N   1      19.224  21.032   0.403  0.00  0.00     0.167 HD
ENDBRANCH  16  18
ENDBRANCH  12  16
ENDBRANCH  11  12
ENDBRANCH  10  11
ENDBRANCH   9  10
ENDBRANCH   1   9
BRANCH   5  20
HETATM   20  C   UNK N   1      20.341  15.880   8.458  0.00  0.00     0.207 C 
BRANCH  20  21
HETATM   21  C   UNK N   1      19.017  16.622   8.570  0.00  0.00     0.146 C 
BRANCH  21  22
HETATM   22  C   UNK N   1      19.266  18.020   9.029  0.00  0.00     0.141 C 
HETATM   23  O   UNK N   1      20.218  18.643   8.588  0.00  0.00    -0.650 OA
BRANCH  22  24
HETATM   24  O   UNK N   1      18.440  18.600   9.920  0.00  0.00    -0.776 OA
HETATM   25  H   UNK N   1      18.487  19.467  10.273  0.00  0.00     0.167 HD
ENDBRANCH  22  24
ENDBRANCH  21  22
ENDBRANCH  20  21
BRANCH  20  26
HETATM   26  C   UNK N   1      20.421  14.683   9.370  0.00  0.00     0.164 C 
HETATM   27  O   UNK N   1      19.397  14.165   9.783  0.00  0.00    -0.648 OA
BRANCH  26  28
HETATM   28  O   UNK N   1      21.616  14.154   9.704  0.00  0.00    -0.775 OA
HETATM   29  H   UNK N   1      22.465  13.989   9.343  0.00  0.00     0.167 HD
ENDBRANCH  26  28
ENDBRANCH  20  26
ENDBRANCH   5  20
TORSDOF 13
ENDMDL
MODEL 5
REMARK VINA RESULT:      -5.2      2.931      6.632
REMARK  13 active torsions:
REMARK  status: ('A' for Active; 'I' for Inactive)
REMARK    1  A    between atoms: C_2  and  N_1 
REMARK    2  A    between atoms: C_2  and  C_3 
REMARK    3  A    between atoms: C_2  and  C_19 
REMARK    4  A    between atoms: C_3  and  C_4 
REMARK    5  A    between atoms: C_4  and  C_5 
REMARK    6  A    between atoms: C_5  and  N_6 
REMARK       I    between atoms: N_6  and  C_7 
REMARK       I    between atoms: C_7  and  N_10 
REMARK    7  A    between atoms: C_11  and  N_10 
REMARK    8  A    between atoms: C_11  and  C_12 
REMARK    9  A    between atoms: C_11  and  C_16 
REMARK   10  A    between atoms: C_12  and  C_13 
REMARK   11  A    between atoms: C_13  and  O_14 
REMARK   12  A    between atoms: C_16  and  O_17 
REMARK   13  A    between atoms: C_19  and  O_20 
ROOT
HETATM    1  N   UNK N   1      32.977  13.322   8.599  0.00  0.00    -0.227 N 
HETATM    2  C   UNK N   1      32.724  14.645   9.052  0.00  0.00     0.668 C 
HETATM    3  N   UNK N   1      32.855  14.940  10.299  0.00  0.00    -0.235 N 
ATOM      4  HN  UNK N   1      33.704  14.486  10.636  1.00  0.00     0.174 HD
HETATM    5  N   UNK N   1      32.440  15.658   8.095  0.00  0.00    -0.212 N 
HETATM    6  H   UNK N   1      32.759  13.094   7.667  0.00  0.00     0.177 HD
HETATM    7  H   UNK N   1      32.459  15.431  11.054  0.00  0.00     0.174 HD
HETATM    8  H   UNK N   1      32.375  15.381   7.152  0.00  0.00     0.178 HD
ENDROOT
BRANCH   1   9
HETATM    9  C   UNK N   1      33.539  12.296   9.445  0.00  0.00     0.138 C 
BRANCH   9  10
HETATM   10  C   UNK N   1      35.056  12.375   9.384  0.00  0.00     0.023 C 
BRANCH  10  11
HETATM   11  C   UNK N   1      35.676  12.550  10.761  0.00  0.00     0.037 C 
BRANCH  11  12
HETATM   12  C   UNK N   1      36.804  13.570  10.720  0.00  0.00     0.173 C 
BRANCH  12  13
HETATM   13  N   UNK N   1      37.919  13.098  11.527  0.00  0.00    -0.418 N 
HETATM   14  H   UNK N   1      37.987  12.155  11.910  0.00  0.00     0.150 HD
HETATM   15  H   UNK N   1      38.679  13.748  11.720  0.00  0.00     0.150 HD
ENDBRANCH  12  13
BRANCH  12  16
HETATM   16  C   UNK N   1      36.313  14.903  11.206  0.00  0.00     0.163 C 
HETATM   17  O   UNK N   1      35.301  14.963  11.887  0.00  0.00    -0.648 OA
BRANCH  16  18
HETATM   18  O   UNK N   1      36.967  16.038  10.886  0.00  0.00    -0.775 OA
HETATM   19  H   UNK N   1      37.822  16.254  11.201  0.00  0.00     0.167 HD
ENDBRANCH  16  18
ENDBRANCH  12  16
ENDBRANCH  11  12
ENDBRANCH  10  11
ENDBRANCH   9  10
ENDBRANCH   1   9
BRANCH   5  20
HETATM   20  C   UNK N   1      32.236  17.066   8.388  0.00  0.00     0.207 C 
BRANCH  20  21
HETATM   21  C   UNK N   1      33.204  17.957   7.623  0.00  0.00     0.146 C 
BRANCH  21  22
HETATM   22  C   UNK N   1      34.439  18.166   8.434  0.00  0.00     0.141 C 
HETATM   23  O   UNK N   1      35.071  19.204   8.321  0.00  0.00    -0.650 OA
BRANCH  22  24
HETATM   24  O   UNK N   1      34.854  17.219   9.297  0.00  0.00    -0.776 OA
HETATM   25  H   UNK N   1      35.531  17.282   9.942  0.00  0.00     0.167 HD
ENDBRANCH  22  24
ENDBRANCH  21  22
ENDBRANCH  20  21
BRANCH  20  26
HETATM   26  C   UNK N   1      30.801  17.501   8.245  0.00  0.00     0.164 C 
HETATM   27  O   UNK N   1      30.185  17.894   9.221  0.00  0.00    -0.648 OA
BRANCH  26  28
HETATM   28  O   UNK N   1      30.200  17.496   7.037  0.00  0.00    -0.775 OA
HETATM   29  H   UNK N   1      29.426  17.805   6.609  0.00  0.00     0.167 HD
ENDBRANCH  26  28
ENDBRANCH  20  26
ENDBRANCH   5  20
TORSDOF 13
ENDMDL
MODEL 6
REMARK VINA RESULT:      -5.2      4.921      8.692
REMARK  13 active torsions:
REMARK  status: ('A' for Active; 'I' for Inactive)
REMARK    1  A    between atoms: C_2  and  N_1 
REMARK    2  A    between atoms: C_2  and  C_3 
REMARK    3  A    between atoms: C_2  and  C_19 
REMARK    4  A    between atoms: C_3  and  C_4 
REMARK    5  A    between atoms: C_4  and  C_5 
REMARK    6  A    between atoms: C_5  and  N_6 
REMARK       I    between atoms: N_6  and  C_7 
REMARK       I    between atoms: C_7  and  N_10 
REMARK    7  A    between atoms: C_11  and  N_10 
REMARK    8  A    between atoms: C_11  and  C_12 
REMARK    9  A    between atoms: C_11  and  C_16 
REMARK   10  A    between atoms: C_12  and  C_13 
REMARK   11  A    between atoms: C_13  and  O_14 
REMARK   12  A    between atoms: C_16  and  O_17 
REMARK   13  A    between atoms: C_19  and  O_20 
ROOT
HETATM    1  N   UNK N   1      34.350  12.001  12.714  0.00  0.00    -0.227 N 
HETATM    2  C   UNK N   1      35.104  12.741  11.764  0.00  0.00     0.668 C 
HETATM    3  N   UNK N   1      36.279  12.345  11.418  0.00  0.00    -0.235 N 
ATOM      4  HN  UNK N   1      36.241  11.333  11.297  1.00  0.00     0.174 HD
HETATM    5  N   UNK N   1      34.497  13.854  11.119  0.00  0.00    -0.212 N 
HETATM    6  H   UNK N   1      33.507  12.384  13.048  0.00  0.00     0.177 HD
HETATM    7  H   UNK N   1      37.200  12.634  11.225  0.00  0.00     0.174 HD
HETATM    8  H   UNK N   1      33.587  14.099  11.406  0.00  0.00     0.178 HD
ENDROOT
BRANCH   1   9
HETATM    9  C   UNK N   1      34.765  10.711  13.213  0.00  0.00     0.138 C 
BRANCH   9  10
HETATM   10  C   UNK N   1      35.037  10.817  14.704  0.00  0.00     0.023 C 
BRANCH  10  11
HETATM   11  C   UNK N   1      34.587  12.152  15.275  0.00  0.00     0.037 C 
BRANCH  11  12
HETATM   12  C   UNK N   1      35.722  12.829  16.029  0.00  0.00     0.173 C 
BRANCH  12  13
HETATM   13  N   UNK N   1      35.199  13.481  17.220  0.00  0.00    -0.418 N 
HETATM   14  H   UNK N   1      34.930  14.464  17.261  0.00  0.00     0.150 HD
HETATM   15  H   UNK N   1      35.093  12.920  18.064  0.00  0.00     0.150 HD
ENDBRANCH  12  13
BRANCH  12  16
HETATM   16  C   UNK N   1      36.418  13.816  15.136  0.00  0.00     0.163 C 
HETATM   17  O   UNK N   1      35.892  14.160  14.089  0.00  0.00    -0.648 OA
BRANCH  16  18
HETATM   18  O   UNK N   1      37.625  14.315  15.468  0.00  0.00    -0.775 OA
HETATM   19  H   UNK N   1      37.850  14.609  16.328  0.00  0.00     0.167 HD
ENDBRANCH  16  18
ENDBRANCH  12  16
ENDBRANCH  11  12
ENDBRANCH  10  11
ENDBRANCH   9  10
ENDBRANCH   1   9
BRANCH   5  20
HETATM   20  C   UNK N   1      35.103  14.662  10.076  0.00  0.00     0.207 C 
BRANCH  20  21
HETATM   21  C   UNK N   1      34.228  14.744   8.832  0.00  0.00     0.146 C 
BRANCH  21  22
HETATM   22  C   UNK N   1      32.820  14.401   9.189  0.00  0.00     0.141 C 
HETATM   23  O   UNK N   1      32.301  13.403   8.718  0.00  0.00    -0.650 OA
BRANCH  22  24
HETATM   24  O   UNK N   1      32.123  15.184  10.034  0.00  0.00    -0.776 OA
HETATM   25  H   UNK N   1      31.236  15.476   9.953  0.00  0.00     0.167 HD
ENDBRANCH  22  24
ENDBRANCH  21  22
ENDBRANCH  20  21
BRANCH  20  26
HETATM   26  C   UNK N   1      35.560  16.014  10.560  0.00  0.00     0.164 C 
HETATM   27  O   UNK N   1      36.740  16.206  10.797  0.00  0.00    -0.648 OA
BRANCH  26  28
HETATM   28  O   UNK N   1      34.680  17.026  10.699  0.00  0.00    -0.775 OA
HETATM   29  H   UNK N   1      34.067  17.530  10.200  0.00  0.00     0.167 HD
ENDBRANCH  26  28
ENDBRANCH  20  26
ENDBRANCH   5  20
TORSDOF 13
ENDMDL
MODEL 7
REMARK VINA RESULT:      -5.1      2.815      3.841
REMARK  13 active torsions:
REMARK  status: ('A' for Active; 'I' for Inactive)
REMARK    1  A    between atoms: C_2  and  N_1 
REMARK    2  A    between atoms: C_2  and  C_3 
REMARK    3  A    between atoms: C_2  and  C_19 
REMARK    4  A    between atoms: C_3  and  C_4 
REMARK    5  A    between atoms: C_4  and  C_5 
REMARK    6  A    between atoms: C_5  and  N_6 
REMARK       I    between atoms: N_6  and  C_7 
REMARK       I    between atoms: C_7  and  N_10 
REMARK    7  A    between atoms: C_11  and  N_10 
REMARK    8  A    between atoms: C_11  and  C_12 
REMARK    9  A    between atoms: C_11  and  C_16 
REMARK   10  A    between atoms: C_12  and  C_13 
REMARK   11  A    between atoms: C_13  and  O_14 
REMARK   12  A    between atoms: C_16  and  O_17 
REMARK   13  A    between atoms: C_19  and  O_20 
ROOT
HETATM    1  N   UNK N   1      29.590  16.882   4.768  0.00  0.00    -0.227 N 
HETATM    2  C   UNK N   1      30.971  17.215   4.732  0.00  0.00     0.668 C 
HETATM    3  N   UNK N   1      31.489  17.719   3.666  0.00  0.00    -0.235 N 
ATOM      4  HN  UNK N   1      30.833  18.410   3.301  1.00  0.00     0.174 HD
HETATM    5  N   UNK N   1      31.740  17.091   5.922  0.00  0.00    -0.212 N 
HETATM    6  H   UNK N   1      29.244  16.393   5.549  0.00  0.00     0.177 HD
HETATM    7  H   UNK N   1      32.268  17.701   3.065  0.00  0.00     0.174 HD
HETATM    8  H   UNK N   1      31.287  16.722   6.714  0.00  0.00     0.178 HD
ENDROOT
BRANCH   1   9
HETATM    9  C   UNK N   1      28.670  17.228   3.711  0.00  0.00     0.138 C 
BRANCH   9  10
HETATM   10  C   UNK N   1      27.616  18.177   4.257  0.00  0.00     0.023 C 
BRANCH  10  11
HETATM   11  C   UNK N   1      28.230  19.323   5.044  0.00  0.00     0.037 C 
BRANCH  11  12
HETATM   12  C   UNK N   1      27.431  19.601   6.309  0.00  0.00     0.173 C 
BRANCH  12  13
HETATM   13  N   UNK N   1      27.315  21.038   6.508  0.00  0.00    -0.418 N 
HETATM   14  H   UNK N   1      27.611  21.521   7.356  0.00  0.00     0.150 HD
HETATM   15  H   UNK N   1      26.915  21.595   5.754  0.00  0.00     0.150 HD
ENDBRANCH  12  13
BRANCH  12  16
HETATM   16  C   UNK N   1      28.087  18.943   7.489  0.00  0.00     0.163 C 
HETATM   17  O   UNK N   1      29.131  18.328   7.335  0.00  0.00    -0.648 OA
BRANCH  16  18
HETATM   18  O   UNK N   1      27.529  19.010   8.714  0.00  0.00    -0.775 OA
HETATM   19  H   UNK N   1      27.752  19.656   9.354  0.00  0.00     0.167 HD
ENDBRANCH  16  18
ENDBRANCH  12  16
ENDBRANCH  11  12
ENDBRANCH  10  11
ENDBRANCH   9  10
ENDBRANCH   1   9
BRANCH   5  20
HETATM   20  C   UNK N   1      33.137  17.462   6.069  0.00  0.00     0.207 C 
BRANCH  20  21
HETATM   21  C   UNK N   1      33.453  17.963   7.471  0.00  0.00     0.146 C 
BRANCH  21  22
HETATM   22  C   UNK N   1      32.508  17.347   8.447  0.00  0.00     0.141 C 
HETATM   23  O   UNK N   1      32.683  16.198   8.818  0.00  0.00    -0.650 OA
BRANCH  22  24
HETATM   24  O   UNK N   1      31.467  18.055   8.926  0.00  0.00    -0.776 OA
HETATM   25  H   UNK N   1      30.966  17.894   9.702  0.00  0.00     0.167 HD
ENDBRANCH  22  24
ENDBRANCH  21  22
ENDBRANCH  20  21
BRANCH  20  26
HETATM   26  C   UNK N   1      34.088  16.391   5.601  0.00  0.00     0.164 C 
HETATM   27  O   UNK N   1      33.930  15.873   4.509  0.00  0.00    -0.648 OA
BRANCH  26  28
HETATM   28  O   UNK N   1      35.137  16.025   6.366  0.00  0.00    -0.775 OA
HETATM   29  H   UNK N   1      35.344  15.768   7.243  0.00  0.00     0.167 HD
ENDBRANCH  26  28
ENDBRANCH  20  26
ENDBRANCH   5  20
TORSDOF 13
ENDMDL
MODEL 8
REMARK VINA RESULT:      -5.1      4.387      6.995
REMARK  13 active torsions:
REMARK  status: ('A' for Active; 'I' for Inactive)
REMARK    1  A    between atoms: C_2  and  N_1 
REMARK    2  A    between atoms: C_2  and  C_3 
REMARK    3  A    between atoms: C_2  and  C_19 
REMARK    4  A    between atoms: C_3  and  C_4 
REMARK    5  A    between atoms: C_4  and  C_5 
REMARK    6  A    between atoms: C_5  and  N_6 
REMARK       I    between atoms: N_6  and  C_7 
REMARK       I    between atoms: C_7  and  N_10 
REMARK    7  A    between atoms: C_11  and  N_10 
REMARK    8  A    between atoms: C_11  and  C_12 
REMARK    9  A    between atoms: C_11  and  C_16 
REMARK   10  A    between atoms: C_12  and  C_13 
REMARK   11  A    between atoms: C_13  and  O_14 
REMARK   12  A    between atoms: C_16  and  O_17 
REMARK   13  A    between atoms: C_19  and  O_20 
ROOT
HETATM    1  N   UNK N   1      35.122  15.005  11.642  0.00  0.00    -0.227 N 
HETATM    2  C   UNK N   1      36.038  14.055  12.171  0.00  0.00     0.668 C 
HETATM    3  N   UNK N   1      37.257  14.029  11.757  0.00  0.00    -0.235 N 
ATOM      4  HN  UNK N   1      37.578  14.995  11.682  1.00  0.00     0.174 HD
HETATM    5  N   UNK N   1      35.618  13.216  13.240  0.00  0.00    -0.212 N 
HETATM    6  H   UNK N   1      34.172  14.930  11.888  0.00  0.00     0.177 HD
HETATM    7  H   UNK N   1      38.001  13.445  11.485  0.00  0.00     0.174 HD
HETATM    8  H   UNK N   1      34.681  13.295  13.533  0.00  0.00     0.178 HD
ENDROOT
BRANCH   1   9
HETATM    9  C   UNK N   1      35.524  16.076  10.761  0.00  0.00     0.138 C 
BRANCH   9  10
HETATM   10  C   UNK N   1      35.390  15.613   9.320  0.00  0.00     0.023 C 
BRANCH  10  11
HETATM   11  C   UNK N   1      34.023  15.935   8.739  0.00  0.00     0.037 C 
BRANCH  11  12
HETATM   12  C   UNK N   1      33.677  17.401   8.951  0.00  0.00     0.173 C 
BRANCH  12  13
HETATM   13  N   UNK N   1      32.253  17.603   8.733  0.00  0.00    -0.418 N 
HETATM   14  H   UNK N   1      31.840  17.825   7.826  0.00  0.00     0.150 HD
HETATM   15  H   UNK N   1      31.629  17.517   9.535  0.00  0.00     0.150 HD
ENDBRANCH  12  13
BRANCH  12  16
HETATM   16  C   UNK N   1      34.491  18.262   8.029  0.00  0.00     0.163 C 
HETATM   17  O   UNK N   1      34.451  18.064   6.824  0.00  0.00    -0.648 OA
BRANCH  16  18
HETATM   18  O   UNK N   1      35.279  19.242   8.515  0.00  0.00    -0.775 OA
HETATM   19  H   UNK N   1      36.145  19.100   8.843  0.00  0.00     0.167 HD
ENDBRANCH  16  18
ENDBRANCH  12  16
ENDBRANCH  11  12
ENDBRANCH  10  11
ENDBRANCH   9  10
ENDBRANCH   1   9
BRANCH   5  20
HETATM   20  C   UNK N   1      36.452  12.253  13.937  0.00  0.00     0.207 C 
BRANCH  20  21
HETATM   21  C   UNK N   1      35.954  11.977  15.349  0.00  0.00     0.146 C 
BRANCH  21  22
HETATM   22  C   UNK N   1      34.479  12.201  15.410  0.00  0.00     0.141 C 
HETATM   23  O   UNK N   1      34.039  13.200  15.956  0.00  0.00    -0.650 OA
BRANCH  22  24
HETATM   24  O   UNK N   1      33.633  11.310  14.859  0.00  0.00    -0.776 OA
HETATM   25  H   UNK N   1      32.714  11.211  15.017  0.00  0.00     0.167 HD
ENDBRANCH  22  24
ENDBRANCH  21  22
ENDBRANCH  20  21
BRANCH  20  26
HETATM   26  C   UNK N   1      36.696  10.995  13.146  0.00  0.00     0.164 C 
HETATM   27  O   UNK N   1      35.930  10.052  13.253  0.00  0.00    -0.648 OA
BRANCH  26  28
HETATM   28  O   UNK N   1      37.734  10.914  12.288  0.00  0.00    -0.775 OA
HETATM   29  H   UNK N   1      38.665  10.804  12.282  0.00  0.00     0.167 HD
ENDBRANCH  26  28
ENDBRANCH  20  26
ENDBRANCH   5  20
TORSDOF 13
ENDMDL
MODEL 9
REMARK VINA RESULT:      -5.0      3.578      4.748
REMARK  13 active torsions:
REMARK  status: ('A' for Active; 'I' for Inactive)
REMARK    1  A    between atoms: C_2  and  N_1 
REMARK    2  A    between atoms: C_2  and  C_3 
REMARK    3  A    between atoms: C_2  and  C_19 
REMARK    4  A    between atoms: C_3  and  C_4 
REMARK    5  A    between atoms: C_4  and  C_5 
REMARK    6  A    between atoms: C_5  and  N_6 
REMARK       I    between atoms: N_6  and  C_7 
REMARK       I    between atoms: C_7  and  N_10 
REMARK    7  A    between atoms: C_11  and  N_10 
REMARK    8  A    between atoms: C_11  and  C_12 
REMARK    9  A    between atoms: C_11  and  C_16 
REMARK   10  A    between atoms: C_12  and  C_13 
REMARK   11  A    between atoms: C_13  and  O_14 
REMARK   12  A    between atoms: C_16  and  O_17 
REMARK   13  A    between atoms: C_19  and  O_20 
ROOT
HETATM    1  N   UNK N   1      29.327  17.814   6.035  0.00  0.00    -0.227 N 
HETATM    2  C   UNK N   1      30.602  17.227   6.260  0.00  0.00     0.668 C 
HETATM    3  N   UNK N   1      31.383  16.972   5.269  0.00  0.00    -0.235 N 
ATOM      4  HN  UNK N   1      31.343  17.768   4.631  1.00  0.00     0.174 HD
HETATM    5  N   UNK N   1      31.043  17.033   7.598  0.00  0.00    -0.212 N 
HETATM    6  H   UNK N   1      28.704  17.892   6.793  0.00  0.00     0.177 HD
HETATM    7  H   UNK N   1      32.004  16.313   4.884  0.00  0.00     0.174 HD
HETATM    8  H   UNK N   1      30.414  17.267   8.318  0.00  0.00     0.178 HD
ENDROOT
BRANCH   1   9
HETATM    9  C   UNK N   1      28.905  18.302   4.744  0.00  0.00     0.138 C 
BRANCH   9  10
HETATM   10  C   UNK N   1      27.386  18.320   4.689  0.00  0.00     0.023 C 
BRANCH  10  11
HETATM   11  C   UNK N   1      26.846  19.654   4.198  0.00  0.00     0.037 C 
BRANCH  11  12
HETATM   12  C   UNK N   1      25.328  19.622   4.105  0.00  0.00     0.173 C 
BRANCH  12  13
HETATM   13  N   UNK N   1      24.882  18.259   3.859  0.00  0.00    -0.418 N 
HETATM   14  H   UNK N   1      24.000  18.020   3.406  0.00  0.00     0.150 HD
HETATM   15  H   UNK N   1      25.489  17.496   4.157  0.00  0.00     0.150 HD
ENDBRANCH  12  13
BRANCH  12  16
HETATM   16  C   UNK N   1      24.858  20.547   3.020  0.00  0.00     0.163 C 
HETATM   17  O   UNK N   1      25.617  20.849   2.112  0.00  0.00    -0.648 OA
BRANCH  16  18
HETATM   18  O   UNK N   1      23.613  21.062   3.044  0.00  0.00    -0.775 OA
HETATM   19  H   UNK N   1      23.253  21.589   2.358  0.00  0.00     0.167 HD
ENDBRANCH  16  18
ENDBRANCH  12  16
ENDBRANCH  11  12
ENDBRANCH  10  11
ENDBRANCH   9  10
ENDBRANCH   1   9
BRANCH   5  20
HETATM   20  C   UNK N   1      32.343  16.520   7.994  0.00  0.00     0.207 C 
BRANCH  20  21
HETATM   21  C   UNK N   1      33.160  17.552   8.759  0.00  0.00     0.146 C 
BRANCH  21  22
HETATM   22  C   UNK N   1      34.117  18.220   7.829  0.00  0.00     0.141 C 
HETATM   23  O   UNK N   1      34.927  19.022   8.265  0.00  0.00    -0.650 OA
BRANCH  22  24
HETATM   24  O   UNK N   1      34.097  17.936   6.513  0.00  0.00    -0.776 OA
HETATM   25  H   UNK N   1      34.590  17.283   6.054  0.00  0.00     0.167 HD
ENDBRANCH  22  24
ENDBRANCH  21  22
ENDBRANCH  20  21
BRANCH  20  26
HETATM   26  C   UNK N   1      32.267  15.192   8.703  0.00  0.00     0.164 C 
HETATM   27  O   UNK N   1      32.177  14.163   8.055  0.00  0.00    -0.648 OA
BRANCH  26  28
HETATM   28  O   UNK N   1      32.334  15.128  10.048  0.00  0.00    -0.775 OA
HETATM   29  H   UNK N   1      32.872  15.407  10.763  0.00  0.00     0.167 HD
ENDBRANCH  26  28
ENDBRANCH  20  26
ENDBRANCH   5  20
TORSDOF 13
ENDMDL
