REMARK  6 active torsions:
REMARK  status: ('A' for Active; 'I' for Inactive)
REMARK    1  A    between atoms: C_2  and  C_4 
REMARK    2  A    between atoms: C_4  and  C_5 
REMARK    3  A    between atoms: C_5  and  N_6 
REMARK    4  A    between atoms: C_5  and  P_7 
REMARK    5  A    between atoms: P_7  and  O_8 
REMARK    6  A    between atoms: P_7  and  O_9 
ROOT
HETATM    1  C   UNK N   1       2.129  -1.806  -0.067  0.00  0.00     0.187 C 
ENDROOT
BRANCH   1   2
HETATM    2  C   UNK N   1       0.865  -1.396   0.669  0.00  0.00     0.040 C 
BRANCH   2   3
HETATM    3  C   UNK N   1      -0.042  -0.599  -0.256  0.00  0.00    -0.020 C 
HETATM    4  C   UNK N   1      -0.978   0.265   0.559  0.00  0.00     0.009 C 
HETATM    5  C   UNK N   1      -0.852  -1.542  -1.125  0.00  0.00     0.009 C 
ENDBRANCH   2   3
ENDBRANCH   1   2
BRANCH   1   6
HETATM    6  N   UNK N   1       2.755  -2.921   0.621  0.00  0.00    -0.417 N 
HETATM    7  H   UNK N   1       2.297  -3.693   1.105  0.00  0.00     0.150 HD
HETATM    8  H   UNK N   1       3.775  -2.933   0.621  0.00  0.00     0.150 HD
ENDBRANCH   1   6
BRANCH   1   9
HETATM    9  P   UNK N   1       3.325  -0.377  -0.126  0.00  0.00     0.258 P 
HETATM   10  O   UNK N   1       2.650   0.879  -0.741  0.00  0.00    -0.652 OA
BRANCH   9  11
HETATM   11  O   UNK N   1       3.893   0.165   1.422  0.00  0.00    -0.328 OA
HETATM   12  H   UNK N   1       4.314   0.042   2.287  0.00  0.00     0.220 HD
ENDBRANCH   9  11
BRANCH   9  13
HETATM   13  O   UNK N   1       4.723  -0.631  -1.120  0.00  0.00    -0.328 OA
HETATM   14  H   UNK N   1       4.991  -1.379  -1.676  0.00  0.00     0.220 HD
ENDBRANCH   9  13
ENDBRANCH   1   9
TORSDOF 6
