MODEL 1
REMARK VINA RESULT:      -6.5      0.000      0.000
REMARK  4 active torsions:
REMARK  status: ('A' for Active; 'I' for Inactive)
REMARK    1  A    between atoms: N_2  and  C_3 
REMARK    2  A    between atoms: C_9  and  N_2 
REMARK    3  A    between atoms: C_3  and  C_4 
REMARK    4  A    between atoms: C_4  and  C_5 
ROOT
HETATM    1  C   UNK N   1      27.960  17.561   9.099  0.00  0.00     0.270 C 
HETATM    2  N   UNK N   1      28.806  18.379   8.238  0.00  0.00    -0.070 N 
HETATM    3  H   UNK N   1      29.439  18.944   7.673  0.00  0.00     0.279 HD
ENDROOT
BRANCH   2   4
HETATM    4  C   UNK N   1      30.157  18.543   8.775  0.00  0.00     0.238 C 
BRANCH   4   5
HETATM    5  C   UNK N   1      31.132  17.384   8.677  0.00  0.00     0.055 C 
BRANCH   5   6
HETATM    6  C   UNK N   1      31.799  17.290   7.316  0.00  0.00    -0.023 C 
HETATM    7  C   UNK N   1      33.062  17.625   6.970  0.00  0.00    -0.091 C 
HETATM    8  C   UNK N   1      33.487  17.440   5.557  0.00  0.00     0.042 C 
HETATM    9  C   UNK N   1      34.082  18.176   7.921  0.00  0.00     0.042 C 
ENDBRANCH   5   6
ENDBRANCH   4   5
ENDBRANCH   2   4
BRANCH   2  10
HETATM   10  C   UNK N   1      28.240  18.917   6.998  0.00  0.00     0.191 A 
HETATM   11  C   UNK N   1      27.432  20.212   7.101  0.00  0.00     0.037 A 
HETATM   12  C   UNK N   1      26.856  20.750   5.798  0.00  0.00     0.035 A 
HETATM   13  C   UNK N   1      27.123  19.978   4.538  0.00  0.00    -0.087 A 
HETATM   14  C   UNK N   1      26.559  20.506   3.268  0.00  0.00     0.043 C 
HETATM   15  C   UNK N   1      27.839  18.846   4.493  0.00  0.00    -0.022 A 
HETATM   16  C   UNK N   1      28.468  18.192   5.679  0.00  0.00     0.060 A 
ENDBRANCH   2  10
TORSDOF 4
ENDMDL
MODEL 2
REMARK VINA RESULT:      -6.3      0.655      1.744
REMARK  4 active torsions:
REMARK  status: ('A' for Active; 'I' for Inactive)
REMARK    1  A    between atoms: N_2  and  C_3 
REMARK    2  A    between atoms: C_9  and  N_2 
REMARK    3  A    between atoms: C_3  and  C_4 
REMARK    4  A    between atoms: C_4  and  C_5 
ROOT
HETATM    1  C   UNK N   1      27.965  17.601   9.180  0.00  0.00     0.270 C 
HETATM    2  N   UNK N   1      28.837  18.339   8.275  0.00  0.00    -0.070 N 
HETATM    3  H   UNK N   1      29.490  18.847   7.679  0.00  0.00     0.279 HD
ENDROOT
BRANCH   2   4
HETATM    4  C   UNK N   1      30.204  18.452   8.786  0.00  0.00     0.238 C 
BRANCH   4   5
HETATM    5  C   UNK N   1      31.162  17.292   8.587  0.00  0.00     0.055 C 
BRANCH   5   6
HETATM    6  C   UNK N   1      32.195  17.562   7.506  0.00  0.00    -0.023 C 
HETATM    7  C   UNK N   1      32.330  16.965   6.301  0.00  0.00    -0.091 C 
HETATM    8  C   UNK N   1      33.433  17.408   5.407  0.00  0.00     0.042 C 
HETATM    9  C   UNK N   1      31.438  15.874   5.791  0.00  0.00     0.042 C 
ENDBRANCH   5   6
ENDBRANCH   4   5
ENDBRANCH   2   4
BRANCH   2  10
HETATM   10  C   UNK N   1      28.280  18.857   7.024  0.00  0.00     0.191 A 
HETATM   11  C   UNK N   1      28.475  18.009   5.766  0.00  0.00     0.037 A 
HETATM   12  C   UNK N   1      27.886  18.571   4.478  0.00  0.00     0.035 A 
HETATM   13  C   UNK N   1      27.174  19.892   4.547  0.00  0.00    -0.087 A 
HETATM   14  C   UNK N   1      26.601  20.437   3.289  0.00  0.00     0.043 C 
HETATM   15  C   UNK N   1      27.026  20.603   5.673  0.00  0.00    -0.022 A 
HETATM   16  C   UNK N   1      27.544  20.190   7.011  0.00  0.00     0.060 A 
ENDBRANCH   2  10
TORSDOF 4
ENDMDL
MODEL 3
REMARK VINA RESULT:      -6.3      1.602      6.013
REMARK  4 active torsions:
REMARK  status: ('A' for Active; 'I' for Inactive)
REMARK    1  A    between atoms: N_2  and  C_3 
REMARK    2  A    between atoms: C_9  and  N_2 
REMARK    3  A    between atoms: C_3  and  C_4 
REMARK    4  A    between atoms: C_4  and  C_5 
ROOT
HETATM    1  C   UNK N   1      29.584  15.102   5.272  0.00  0.00     0.270 C 
HETATM    2  N   UNK N   1      29.799  16.535   5.426  0.00  0.00    -0.070 N 
HETATM    3  H   UNK N   1      29.901  17.547   5.506  0.00  0.00     0.279 HD
ENDROOT
BRANCH   2   4
HETATM    4  C   UNK N   1      28.732  17.329   4.817  0.00  0.00     0.238 C 
BRANCH   4   5
HETATM    5  C   UNK N   1      27.529  17.714   5.659  0.00  0.00     0.055 C 
BRANCH   5   6
HETATM    6  C   UNK N   1      27.600  19.143   6.167  0.00  0.00    -0.023 C 
HETATM    7  C   UNK N   1      27.268  20.285   5.524  0.00  0.00    -0.091 C 
HETATM    8  C   UNK N   1      27.428  21.578   6.239  0.00  0.00     0.042 C 
HETATM    9  C   UNK N   1      26.742  20.344   4.121  0.00  0.00     0.042 C 
ENDBRANCH   5   6
ENDBRANCH   4   5
ENDBRANCH   2   4
BRANCH   2  10
HETATM   10  C   UNK N   1      30.994  16.998   6.135  0.00  0.00     0.191 A 
HETATM   11  C   UNK N   1      30.846  17.319   7.623  0.00  0.00     0.037 A 
HETATM   12  C   UNK N   1      32.104  17.797   8.336  0.00  0.00     0.035 A 
HETATM   13  C   UNK N   1      33.368  17.913   7.533  0.00  0.00    -0.087 A 
HETATM   14  C   UNK N   1      34.594  18.381   8.232  0.00  0.00     0.043 C 
HETATM   15  C   UNK N   1      33.454  17.621   6.228  0.00  0.00    -0.022 A 
HETATM   16  C   UNK N   1      32.315  17.142   5.390  0.00  0.00     0.060 A 
ENDBRANCH   2  10
TORSDOF 4
ENDMDL
MODEL 4
REMARK VINA RESULT:      -6.2      1.491      2.789
REMARK  4 active torsions:
REMARK  status: ('A' for Active; 'I' for Inactive)
REMARK    1  A    between atoms: N_2  and  C_3 
REMARK    2  A    between atoms: C_9  and  N_2 
REMARK    3  A    between atoms: C_3  and  C_4 
REMARK    4  A    between atoms: C_4  and  C_5 
ROOT
HETATM    1  C   UNK N   1      28.864  15.295   5.359  0.00  0.00     0.270 C 
HETATM    2  N   UNK N   1      29.641  16.496   5.640  0.00  0.00    -0.070 N 
HETATM    3  H   UNK N   1      30.231  17.304   5.834  0.00  0.00     0.279 HD
ENDROOT
BRANCH   2   4
HETATM    4  C   UNK N   1      31.077  16.228   5.708  0.00  0.00     0.238 C 
BRANCH   4   5
HETATM    5  C   UNK N   1      32.049  17.318   5.292  0.00  0.00     0.055 C 
BRANCH   5   6
HETATM    6  C   UNK N   1      33.220  17.457   6.250  0.00  0.00    -0.023 C 
HETATM    7  C   UNK N   1      33.202  17.771   7.564  0.00  0.00    -0.091 C 
HETATM    8  C   UNK N   1      34.493  17.847   8.296  0.00  0.00     0.042 C 
HETATM    9  C   UNK N   1      31.956  18.052   8.350  0.00  0.00     0.042 C 
ENDBRANCH   5   6
ENDBRANCH   4   5
ENDBRANCH   2   4
BRANCH   2  10
HETATM   10  C   UNK N   1      28.936  17.768   5.814  0.00  0.00     0.191 A 
HETATM   11  C   UNK N   1      28.601  18.562   4.549  0.00  0.00     0.037 A 
HETATM   12  C   UNK N   1      27.869  19.881   4.758  0.00  0.00     0.035 A 
HETATM   13  C   UNK N   1      27.540  20.289   6.166  0.00  0.00    -0.087 A 
HETATM   14  C   UNK N   1      26.825  21.577   6.365  0.00  0.00     0.043 C 
HETATM   15  C   UNK N   1      27.853  19.562   7.247  0.00  0.00    -0.022 A 
HETATM   16  C   UNK N   1      28.567  18.251   7.210  0.00  0.00     0.060 A 
ENDBRANCH   2  10
TORSDOF 4
ENDMDL
MODEL 5
REMARK VINA RESULT:      -6.2     13.640     16.381
REMARK  4 active torsions:
REMARK  status: ('A' for Active; 'I' for Inactive)
REMARK    1  A    between atoms: N_2  and  C_3 
REMARK    2  A    between atoms: C_9  and  N_2 
REMARK    3  A    between atoms: C_3  and  C_4 
REMARK    4  A    between atoms: C_4  and  C_5 
ROOT
HETATM    1  C   UNK N   1      36.657  10.065  21.523  0.00  0.00     0.270 C 
HETATM    2  N   UNK N   1      35.585  10.655  20.731  0.00  0.00    -0.070 N 
HETATM    3  H   UNK N   1      34.869  11.111  20.166  0.00  0.00     0.279 HD
ENDROOT
BRANCH   2   4
HETATM    4  C   UNK N   1      35.965  11.941  20.147  0.00  0.00     0.238 C 
BRANCH   4   5
HETATM    5  C   UNK N   1      34.890  12.811  19.521  0.00  0.00     0.055 C 
BRANCH   5   6
HETATM    6  C   UNK N   1      35.283  13.335  18.150  0.00  0.00    -0.023 C 
HETATM    7  C   UNK N   1      35.369  12.660  16.982  0.00  0.00    -0.091 C 
HETATM    8  C   UNK N   1      35.780  13.400  15.760  0.00  0.00     0.042 C 
HETATM    9  C   UNK N   1      35.078  11.198  16.826  0.00  0.00     0.042 C 
ENDBRANCH   5   6
ENDBRANCH   4   5
ENDBRANCH   2   4
BRANCH   2  10
HETATM   10  C   UNK N   1      34.315   9.934  20.614  0.00  0.00     0.191 A 
HETATM   11  C   UNK N   1      33.247  10.222  21.671  0.00  0.00     0.037 A 
HETATM   12  C   UNK N   1      31.936   9.459  21.526  0.00  0.00     0.035 A 
HETATM   13  C   UNK N   1      31.801   8.502  20.376  0.00  0.00    -0.087 A 
HETATM   14  C   UNK N   1      30.521   7.760  20.238  0.00  0.00     0.043 C 
HETATM   15  C   UNK N   1      32.765   8.280  19.472  0.00  0.00    -0.022 A 
HETATM   16  C   UNK N   1      34.101   8.946  19.476  0.00  0.00     0.060 A 
ENDBRANCH   2  10
TORSDOF 4
ENDMDL
MODEL 6
REMARK VINA RESULT:      -6.1     12.625     14.662
REMARK  4 active torsions:
REMARK  status: ('A' for Active; 'I' for Inactive)
REMARK    1  A    between atoms: N_2  and  C_3 
REMARK    2  A    between atoms: C_9  and  N_2 
REMARK    3  A    between atoms: C_3  and  C_4 
REMARK    4  A    between atoms: C_4  and  C_5 
ROOT
HETATM    1  C   UNK N   1      29.552  25.037  -5.839  0.00  0.00     0.270 C 
HETATM    2  N   UNK N   1      28.851  23.869  -5.319  0.00  0.00    -0.070 N 
HETATM    3  H   UNK N   1      28.339  23.085  -4.915  0.00  0.00     0.279 HD
ENDROOT
BRANCH   2   4
HETATM    4  C   UNK N   1      28.044  24.181  -4.139  0.00  0.00     0.238 C 
BRANCH   4   5
HETATM    5  C   UNK N   1      26.536  24.021  -4.216  0.00  0.00     0.055 C 
BRANCH   5   6
HETATM    6  C   UNK N   1      25.821  25.331  -4.496  0.00  0.00    -0.023 C 
HETATM    7  C   UNK N   1      25.482  25.869  -5.688  0.00  0.00    -0.091 C 
HETATM    8  C   UNK N   1      24.777  27.178  -5.705  0.00  0.00     0.042 C 
HETATM    9  C   UNK N   1      25.769  25.234  -7.015  0.00  0.00     0.042 C 
ENDBRANCH   5   6
ENDBRANCH   4   5
ENDBRANCH   2   4
BRANCH   2  10
HETATM   10  C   UNK N   1      29.022  22.583  -5.998  0.00  0.00     0.191 A 
HETATM   11  C   UNK N   1      28.041  22.248  -7.123  0.00  0.00     0.037 A 
HETATM   12  C   UNK N   1      28.242  20.904  -7.812  0.00  0.00     0.035 A 
HETATM   13  C   UNK N   1      29.369  20.031  -7.339  0.00  0.00    -0.087 A 
HETATM   14  C   UNK N   1      29.562  18.721  -8.015  0.00  0.00     0.043 C 
HETATM   15  C   UNK N   1      30.207  20.364  -6.348  0.00  0.00    -0.022 A 
HETATM   16  C   UNK N   1      30.142  21.641  -5.576  0.00  0.00     0.060 A 
ENDBRANCH   2  10
TORSDOF 4
ENDMDL
MODEL 7
REMARK VINA RESULT:      -5.9     11.354     14.425
REMARK  4 active torsions:
REMARK  status: ('A' for Active; 'I' for Inactive)
REMARK    1  A    between atoms: N_2  and  C_3 
REMARK    2  A    between atoms: C_9  and  N_2 
REMARK    3  A    between atoms: C_3  and  C_4 
REMARK    4  A    between atoms: C_4  and  C_5 
ROOT
HETATM    1  C   UNK N   1      25.938  28.091  -3.678  0.00  0.00     0.270 C 
HETATM    2  N   UNK N   1      26.277  26.970  -4.546  0.00  0.00    -0.070 N 
HETATM    3  H   UNK N   1      26.474  26.203  -5.189  0.00  0.00     0.279 HD
ENDROOT
BRANCH   2   4
HETATM    4  C   UNK N   1      25.470  26.945  -5.766  0.00  0.00     0.238 C 
BRANCH   4   5
HETATM    5  C   UNK N   1      26.048  26.307  -7.017  0.00  0.00     0.055 C 
BRANCH   5   6
HETATM    6  C   UNK N   1      25.694  24.836  -7.143  0.00  0.00    -0.023 C 
HETATM    7  C   UNK N   1      26.517  23.764  -7.112  0.00  0.00    -0.091 C 
HETATM    8  C   UNK N   1      25.927  22.408  -7.259  0.00  0.00     0.042 C 
HETATM    9  C   UNK N   1      28.004  23.844  -6.939  0.00  0.00     0.042 C 
ENDBRANCH   5   6
ENDBRANCH   4   5
ENDBRANCH   2   4
BRANCH   2  10
HETATM   10  C   UNK N   1      27.329  26.043  -4.123  0.00  0.00     0.191 A 
HETATM   11  C   UNK N   1      26.887  24.738  -3.458  0.00  0.00     0.037 A 
HETATM   12  C   UNK N   1      28.002  23.792  -3.029  0.00  0.00     0.035 A 
HETATM   13  C   UNK N   1      29.420  24.211  -3.289  0.00  0.00    -0.087 A 
HETATM   14  C   UNK N   1      30.505  23.285  -2.868  0.00  0.00     0.043 C 
HETATM   15  C   UNK N   1      29.763  25.366  -3.876  0.00  0.00    -0.022 A 
HETATM   16  C   UNK N   1      28.793  26.395  -4.352  0.00  0.00     0.060 A 
ENDBRANCH   2  10
TORSDOF 4
ENDMDL
MODEL 8
REMARK VINA RESULT:      -5.9     12.378     15.318
REMARK  4 active torsions:
REMARK  status: ('A' for Active; 'I' for Inactive)
REMARK    1  A    between atoms: N_2  and  C_3 
REMARK    2  A    between atoms: C_9  and  N_2 
REMARK    3  A    between atoms: C_3  and  C_4 
REMARK    4  A    between atoms: C_4  and  C_5 
ROOT
HETATM    1  C   UNK N   1      25.974  26.185  -9.075  0.00  0.00     0.270 C 
HETATM    2  N   UNK N   1      26.674  25.955  -7.817  0.00  0.00    -0.070 N 
HETATM    3  H   UNK N   1      27.181  25.744  -6.958  0.00  0.00     0.279 HD
ENDROOT
BRANCH   2   4
HETATM    4  C   UNK N   1      27.383  24.675  -7.799  0.00  0.00     0.238 C 
BRANCH   4   5
HETATM    5  C   UNK N   1      26.982  23.625  -6.780  0.00  0.00     0.055 C 
BRANCH   5   6
HETATM    6  C   UNK N   1      28.125  23.231  -5.861  0.00  0.00    -0.023 C 
HETATM    7  C   UNK N   1      28.422  23.709  -4.632  0.00  0.00    -0.091 C 
HETATM    8  C   UNK N   1      29.607  23.160  -3.921  0.00  0.00     0.042 C 
HETATM    9  C   UNK N   1      27.634  24.769  -3.922  0.00  0.00     0.042 C 
ENDBRANCH   5   6
ENDBRANCH   4   5
ENDBRANCH   2   4
BRANCH   2  10
HETATM   10  C   UNK N   1      26.594  26.973  -6.768  0.00  0.00     0.191 A 
HETATM   11  C   UNK N   1      25.386  26.920  -5.831  0.00  0.00     0.037 A 
HETATM   12  C   UNK N   1      25.327  27.990  -4.748  0.00  0.00     0.035 A 
HETATM   13  C   UNK N   1      26.442  28.995  -4.690  0.00  0.00    -0.087 A 
HETATM   14  C   UNK N   1      26.381  30.037  -3.632  0.00  0.00     0.043 C 
HETATM   15  C   UNK N   1      27.484  29.005  -5.532  0.00  0.00    -0.022 A 
HETATM   16  C   UNK N   1      27.686  28.027  -6.642  0.00  0.00     0.060 A 
ENDBRANCH   2  10
TORSDOF 4
ENDMDL
MODEL 9
REMARK VINA RESULT:      -5.8     10.699     13.973
REMARK  4 active torsions:
REMARK  status: ('A' for Active; 'I' for Inactive)
REMARK    1  A    between atoms: N_2  and  C_3 
REMARK    2  A    between atoms: C_9  and  N_2 
REMARK    3  A    between atoms: C_3  and  C_4 
REMARK    4  A    between atoms: C_4  and  C_5 
ROOT
HETATM    1  C   UNK N   1      27.079  21.393  -8.067  0.00  0.00     0.270 C 
HETATM    2  N   UNK N   1      27.719  22.339  -7.161  0.00  0.00    -0.070 N 
HETATM    3  H   UNK N   1      28.212  22.967  -6.526  0.00  0.00     0.279 HD
ENDROOT
BRANCH   2   4
HETATM    4  C   UNK N   1      29.056  21.905  -6.753  0.00  0.00     0.238 C 
BRANCH   4   5
HETATM    5  C   UNK N   1      29.906  22.837  -5.909  0.00  0.00     0.055 C 
BRANCH   5   6
HETATM    6  C   UNK N   1      29.732  22.602  -4.419  0.00  0.00    -0.023 C 
HETATM    7  C   UNK N   1      29.278  23.459  -3.477  0.00  0.00    -0.091 C 
HETATM    8  C   UNK N   1      29.197  22.992  -2.068  0.00  0.00     0.042 C 
HETATM    9  C   UNK N   1      28.844  24.867  -3.753  0.00  0.00     0.042 C 
ENDBRANCH   5   6
ENDBRANCH   4   5
ENDBRANCH   2   4
BRANCH   2  10
HETATM   10  C   UNK N   1      26.994  23.553  -6.780  0.00  0.00     0.191 A 
HETATM   11  C   UNK N   1      27.258  24.815  -7.603  0.00  0.00     0.037 A 
HETATM   12  C   UNK N   1      26.490  26.062  -7.185  0.00  0.00     0.035 A 
HETATM   13  C   UNK N   1      25.552  25.954  -6.018  0.00  0.00    -0.087 A 
HETATM   14  C   UNK N   1      24.805  27.174  -5.613  0.00  0.00     0.043 C 
HETATM   15  C   UNK N   1      25.350  24.826  -5.323  0.00  0.00    -0.022 A 
HETATM   16  C   UNK N   1      26.024  23.524  -5.606  0.00  0.00     0.060 A 
ENDBRANCH   2  10
TORSDOF 4
ENDMDL
