MODEL 1
REMARK VINA RESULT:      -7.2      0.000      0.000
REMARK  22 active torsions:
REMARK  status: ('A' for Active; 'I' for Inactive)
REMARK    1  A    between atoms: C_3  and  C_2 
REMARK    2  A    between atoms: C_7  and  C_3 
REMARK    3  A    between atoms: C_14  and  C_7 
REMARK    4  A    between atoms: N_28  and  C_14 
REMARK    5  A    between atoms: C_18  and  C_15 
REMARK    6  A    between atoms: C_20  and  C_15 
REMARK    7  A    between atoms: C_17  and  C_16 
REMARK    8  A    between atoms: C_21  and  C_16 
REMARK    9  A    between atoms: O_41  and  C_19 
REMARK   10  A    between atoms: C_23  and  C_20 
REMARK   11  A    between atoms: C_20  and  N_30 
REMARK   12  A    between atoms: C_24  and  C_21 
REMARK   13  A    between atoms: C_21  and  N_32 
REMARK   14  A    between atoms: C_25  and  C_22 
REMARK   15  A    between atoms: C_26  and  C_22 
REMARK   16  A    between atoms: O_41  and  C_22 
REMARK   17  A    between atoms: O_33  and  C_23 
REMARK   18  A    between atoms: O_35  and  C_24 
REMARK   19  A    between atoms: O_37  and  C_25 
REMARK   20  A    between atoms: O_39  and  C_26 
REMARK   21  A    between atoms: N_32  and  C_27 
REMARK   22  A    between atoms: C_27  and  O_40 
ROOT
HETATM    1  C   UNK N   1      34.874  13.049  10.145  0.00  0.00     0.163 C 
ENDROOT
BRANCH   1   2
HETATM    2  C   UNK N   1      35.548  12.280   8.981  0.00  0.00     0.072 C 
BRANCH   2   3
HETATM    3  C   UNK N   1      35.253  12.979   7.691  0.00  0.00    -0.056 A 
HETATM    4  C   UNK N   1      36.193  13.839   7.116  0.00  0.00     0.010 A 
HETATM    5  C   UNK N   1      35.808  14.694   6.079  0.00  0.00     0.037 A 
HETATM    6  C   UNK N   1      34.477  14.730   5.653  0.00  0.00     0.070 A 
HETATM    7  C   UNK N   1      33.553  13.826   6.192  0.00  0.00     0.037 A 
HETATM    8  C   UNK N   1      33.940  12.956   7.208  0.00  0.00     0.010 A 
BRANCH   6   9
HETATM    9  O   UNK N   1      34.108  15.676   4.758  0.00  0.00    -0.325 OA
BRANCH   9  10
HETATM   10  C   UNK N   1      32.994  15.662   3.917  0.00  0.00     0.323 C 
BRANCH  10  11
HETATM   11  C   UNK N   1      33.338  14.837   2.703  0.00  0.00     0.181 C 
HETATM   12  O   UNK N   1      34.138  15.260   1.883  0.00  0.00    -0.648 OA
BRANCH  11  13
HETATM   13  O   UNK N   1      32.775  13.625   2.520  0.00  0.00    -0.774 OA
HETATM   14  H   UNK N   1      32.449  12.911   3.028  0.00  0.00     0.167 HD
ENDBRANCH  11  13
ENDBRANCH  10  11
BRANCH  10  15
HETATM   15  C   UNK N   1      32.525  17.047   3.483  0.00  0.00     0.181 C 
HETATM   16  O   UNK N   1      32.628  17.993   4.247  0.00  0.00    -0.648 OA
BRANCH  15  17
HETATM   17  O   UNK N   1      31.920  17.228   2.291  0.00  0.00    -0.774 OA
HETATM   18  H   UNK N   1      31.923  17.026   1.376  0.00  0.00     0.167 HD
ENDBRANCH  15  17
ENDBRANCH  10  15
ENDBRANCH   9  10
ENDBRANCH   6   9
ENDBRANCH   2   3
ENDBRANCH   1   2
BRANCH   1  19
HETATM   19  C   UNK N   1      35.297  12.550  11.512  0.00  0.00     0.135 C 
HETATM   20  N   UNK N   1      34.505  12.678  12.527  0.00  0.00    -0.373 N 
ATOM     21  HN  UNK N   1      33.579  13.077  12.381  1.00  0.00     0.161 HD
BRANCH  20  22
HETATM   22  C   UNK N   1      34.888  12.272  13.865  0.00  0.00     0.121 C 
BRANCH  22  23
HETATM   23  C   UNK N   1      34.058  11.070  14.297  0.00  0.00     0.020 C 
BRANCH  23  24
HETATM   24  C   UNK N   1      34.483  10.508  15.633  0.00  0.00     0.001 C 
BRANCH  24  25
HETATM   25  C   UNK N   1      35.616  11.374  16.148  0.00  0.00    -0.004 C 
HETATM   26  C   UNK N   1      35.265  11.947  17.503  0.00  0.00     0.005 C 
ENDBRANCH  24  25
ENDBRANCH  23  24
ENDBRANCH  22  23
ENDBRANCH  20  22
BRANCH  19  27
HETATM   27  O   UNK N   1      36.527  12.017  11.670  0.00  0.00    -0.348 OA
HETATM   28  H   UNK N   1      37.333  11.808  12.100  0.00  0.00     0.219 HD
ENDBRANCH  19  27
ENDBRANCH   1  19
BRANCH   1  29
HETATM   29  N   UNK N   1      35.138  14.474  10.132  0.00  0.00    -0.344 N 
HETATM   30  C   UNK N   1      34.302  15.415  10.430  0.00  0.00     0.214 C 
ATOM     31  HN  UNK N   1      36.077  14.764   9.860  1.00  0.00     0.163 HD
BRANCH  30  32
HETATM   32  N   UNK N   1      34.597  16.756  10.048  0.00  0.00    -0.342 N 
HETATM   33  H   UNK N   1      35.380  17.219  10.425  0.00  0.00     0.164 HD
BRANCH  32  34
HETATM   34  C   UNK N   1      33.730  17.435   9.097  0.00  0.00     0.187 C 
BRANCH  34  35
HETATM   35  C   UNK N   1      32.769  16.467   8.383  0.00  0.00     0.074 C 
BRANCH  35  36
HETATM   36  C   UNK N   1      31.415  16.961   7.932  0.00  0.00    -0.056 A 
HETATM   37  C   UNK N   1      30.807  16.341   6.836  0.00  0.00     0.007 A 
HETATM   38  C   UNK N   1      29.501  16.682   6.466  0.00  0.00     0.001 A 
HETATM   39  C   UNK N   1      28.792  17.639   7.198  0.00  0.00     0.000 A 
HETATM   40  C   UNK N   1      29.386  18.255   8.300  0.00  0.00     0.001 A 
HETATM   41  C   UNK N   1      30.686  17.904   8.675  0.00  0.00     0.007 A 
ENDBRANCH  35  36
ENDBRANCH  34  35
BRANCH  34  42
HETATM   42  C   UNK N   1      34.539  18.248   8.103  0.00  0.00     0.163 C 
HETATM   43  O   UNK N   1      35.247  19.161   8.496  0.00  0.00    -0.648 OA
BRANCH  42  44
HETATM   44  O   UNK N   1      34.464  17.992   6.782  0.00  0.00    -0.775 OA
HETATM   45  H   UNK N   1      34.550  17.235   6.237  0.00  0.00     0.167 HD
ENDBRANCH  42  44
ENDBRANCH  34  42
ENDBRANCH  32  34
ENDBRANCH  30  32
BRANCH  30  46
HETATM   46  O   UNK N   1      33.104  15.133  10.991  0.00  0.00    -0.333 OA
HETATM   47  H   UNK N   1      32.473  15.032  11.676  0.00  0.00     0.220 HD
ENDBRANCH  30  46
ENDBRANCH   1  29
TORSDOF 22
ENDMDL
MODEL 2
REMARK VINA RESULT:      -7.0      6.733     10.898
REMARK  22 active torsions:
REMARK  status: ('A' for Active; 'I' for Inactive)
REMARK    1  A    between atoms: C_3  and  C_2 
REMARK    2  A    between atoms: C_7  and  C_3 
REMARK    3  A    between atoms: C_14  and  C_7 
REMARK    4  A    between atoms: N_28  and  C_14 
REMARK    5  A    between atoms: C_18  and  C_15 
REMARK    6  A    between atoms: C_20  and  C_15 
REMARK    7  A    between atoms: C_17  and  C_16 
REMARK    8  A    between atoms: C_21  and  C_16 
REMARK    9  A    between atoms: O_41  and  C_19 
REMARK   10  A    between atoms: C_23  and  C_20 
REMARK   11  A    between atoms: C_20  and  N_30 
REMARK   12  A    between atoms: C_24  and  C_21 
REMARK   13  A    between atoms: C_21  and  N_32 
REMARK   14  A    between atoms: C_25  and  C_22 
REMARK   15  A    between atoms: C_26  and  C_22 
REMARK   16  A    between atoms: O_41  and  C_22 
REMARK   17  A    between atoms: O_33  and  C_23 
REMARK   18  A    between atoms: O_35  and  C_24 
REMARK   19  A    between atoms: O_37  and  C_25 
REMARK   20  A    between atoms: O_39  and  C_26 
REMARK   21  A    between atoms: N_32  and  C_27 
REMARK   22  A    between atoms: C_27  and  O_40 
ROOT
HETATM    1  C   UNK N   1      25.401  16.153   6.129  0.00  0.00     0.163 C 
ENDROOT
BRANCH   1   2
HETATM    2  C   UNK N   1      26.616  15.223   6.372  0.00  0.00     0.072 C 
BRANCH   2   3
HETATM    3  C   UNK N   1      27.879  16.015   6.248  0.00  0.00    -0.056 A 
HETATM    4  C   UNK N   1      28.904  15.593   5.397  0.00  0.00     0.010 A 
HETATM    5  C   UNK N   1      30.173  16.172   5.499  0.00  0.00     0.037 A 
HETATM    6  C   UNK N   1      30.433  17.130   6.483  0.00  0.00     0.070 A 
HETATM    7  C   UNK N   1      29.388  17.591   7.294  0.00  0.00     0.037 A 
HETATM    8  C   UNK N   1      28.118  17.033   7.177  0.00  0.00     0.010 A 
BRANCH   6   9
HETATM    9  O   UNK N   1      31.707  17.555   6.654  0.00  0.00    -0.325 OA
BRANCH   9  10
HETATM   10  C   UNK N   1      32.460  17.533   7.829  0.00  0.00     0.323 C 
BRANCH  10  11
HETATM   11  C   UNK N   1      33.835  18.063   7.509  0.00  0.00     0.181 C 
HETATM   12  O   UNK N   1      34.374  18.858   8.263  0.00  0.00    -0.648 OA
BRANCH  11  13
HETATM   13  O   UNK N   1      34.481  17.657   6.398  0.00  0.00    -0.774 OA
HETATM   14  H   UNK N   1      35.116  17.977   5.789  0.00  0.00     0.167 HD
ENDBRANCH  11  13
ENDBRANCH  10  11
BRANCH  10  15
HETATM   15  C   UNK N   1      32.575  16.154   8.469  0.00  0.00     0.181 C 
HETATM   16  O   UNK N   1      33.284  15.302   7.960  0.00  0.00    -0.648 OA
BRANCH  15  17
HETATM   17  O   UNK N   1      31.836  15.832   9.552  0.00  0.00    -0.774 OA
HETATM   18  H   UNK N   1      31.726  15.927  10.477  0.00  0.00     0.167 HD
ENDBRANCH  15  17
ENDBRANCH  10  15
ENDBRANCH   9  10
ENDBRANCH   6   9
ENDBRANCH   2   3
ENDBRANCH   1   2
BRANCH   1  19
HETATM   19  C   UNK N   1      25.445  16.850   4.784  0.00  0.00     0.135 C 
HETATM   20  N   UNK N   1      25.461  18.142   4.719  0.00  0.00    -0.373 N 
ATOM     21  HN  UNK N   1      25.491  18.677   5.586  1.00  0.00     0.161 HD
BRANCH  20  22
HETATM   22  C   UNK N   1      25.441  18.855   3.457  0.00  0.00     0.121 C 
BRANCH  22  23
HETATM   23  C   UNK N   1      26.415  20.025   3.510  0.00  0.00     0.020 C 
BRANCH  23  24
HETATM   24  C   UNK N   1      27.514  19.833   4.528  0.00  0.00     0.001 C 
BRANCH  24  25
HETATM   25  C   UNK N   1      27.472  21.021   5.468  0.00  0.00    -0.004 C 
HETATM   26  C   UNK N   1      27.059  20.579   6.855  0.00  0.00     0.005 C 
ENDBRANCH  24  25
ENDBRANCH  23  24
ENDBRANCH  22  23
ENDBRANCH  20  22
BRANCH  19  27
HETATM   27  O   UNK N   1      25.414  16.111   3.655  0.00  0.00    -0.348 OA
HETATM   28  H   UNK N   1      25.090  15.486   3.036  0.00  0.00     0.219 HD
ENDBRANCH  19  27
ENDBRANCH   1  19
BRANCH   1  29
HETATM   29  N   UNK N   1      24.124  15.472   6.194  0.00  0.00    -0.344 N 
HETATM   30  C   UNK N   1      22.960  16.026   6.304  0.00  0.00     0.214 C 
ATOM     31  HN  UNK N   1      24.144  14.454   6.150  1.00  0.00     0.163 HD
BRANCH  30  32
HETATM   32  N   UNK N   1      21.844  15.231   6.694  0.00  0.00    -0.342 N 
HETATM   33  H   UNK N   1      21.317  14.749   6.016  0.00  0.00     0.164 HD
BRANCH  32  34
HETATM   34  C   UNK N   1      21.488  15.141   8.102  0.00  0.00     0.187 C 
BRANCH  34  35
HETATM   35  C   UNK N   1      21.203  13.694   8.545  0.00  0.00     0.074 C 
BRANCH  35  36
HETATM   36  C   UNK N   1      22.149  13.010   9.502  0.00  0.00    -0.056 A 
HETATM   37  C   UNK N   1      23.521  13.056   9.236  0.00  0.00     0.007 A 
HETATM   38  C   UNK N   1      24.440  12.547  10.161  0.00  0.00     0.001 A 
HETATM   39  C   UNK N   1      23.989  11.997  11.365  0.00  0.00     0.000 A 
HETATM   40  C   UNK N   1      22.623  11.958  11.645  0.00  0.00     0.001 A 
HETATM   41  C   UNK N   1      21.708  12.477  10.725  0.00  0.00     0.007 A 
ENDBRANCH  35  36
ENDBRANCH  34  35
BRANCH  34  42
HETATM   42  C   UNK N   1      20.329  16.062   8.433  0.00  0.00     0.163 C 
HETATM   43  O   UNK N   1      19.276  15.596   8.838  0.00  0.00    -0.648 OA
BRANCH  42  44
HETATM   44  O   UNK N   1      20.438  17.395   8.259  0.00  0.00    -0.775 OA
HETATM   45  H   UNK N   1      21.092  17.979   7.929  0.00  0.00     0.167 HD
ENDBRANCH  42  44
ENDBRANCH  34  42
ENDBRANCH  32  34
ENDBRANCH  30  32
BRANCH  30  46
HETATM   46  O   UNK N   1      22.809  17.364   6.170  0.00  0.00    -0.333 OA
HETATM   47  H   UNK N   1      22.422  18.207   6.301  0.00  0.00     0.220 HD
ENDBRANCH  30  46
ENDBRANCH   1  29
TORSDOF 22
ENDMDL
MODEL 3
REMARK VINA RESULT:      -6.8      2.475      4.619
REMARK  22 active torsions:
REMARK  status: ('A' for Active; 'I' for Inactive)
REMARK    1  A    between atoms: C_3  and  C_2 
REMARK    2  A    between atoms: C_7  and  C_3 
REMARK    3  A    between atoms: C_14  and  C_7 
REMARK    4  A    between atoms: N_28  and  C_14 
REMARK    5  A    between atoms: C_18  and  C_15 
REMARK    6  A    between atoms: C_20  and  C_15 
REMARK    7  A    between atoms: C_17  and  C_16 
REMARK    8  A    between atoms: C_21  and  C_16 
REMARK    9  A    between atoms: O_41  and  C_19 
REMARK   10  A    between atoms: C_23  and  C_20 
REMARK   11  A    between atoms: C_20  and  N_30 
REMARK   12  A    between atoms: C_24  and  C_21 
REMARK   13  A    between atoms: C_21  and  N_32 
REMARK   14  A    between atoms: C_25  and  C_22 
REMARK   15  A    between atoms: C_26  and  C_22 
REMARK   16  A    between atoms: O_41  and  C_22 
REMARK   17  A    between atoms: O_33  and  C_23 
REMARK   18  A    between atoms: O_35  and  C_24 
REMARK   19  A    between atoms: O_37  and  C_25 
REMARK   20  A    between atoms: O_39  and  C_26 
REMARK   21  A    between atoms: N_32  and  C_27 
REMARK   22  A    between atoms: C_27  and  O_40 
ROOT
HETATM    1  C   UNK N   1      33.590  17.033   8.149  0.00  0.00     0.163 C 
ENDROOT
BRANCH   1   2
HETATM    2  C   UNK N   1      34.043  17.746   6.850  0.00  0.00     0.072 C 
BRANCH   2   3
HETATM    3  C   UNK N   1      33.712  16.886   5.672  0.00  0.00    -0.056 A 
HETATM    4  C   UNK N   1      34.204  15.581   5.581  0.00  0.00     0.010 A 
HETATM    5  C   UNK N   1      34.129  14.893   4.366  0.00  0.00     0.037 A 
HETATM    6  C   UNK N   1      33.613  15.525   3.230  0.00  0.00     0.070 A 
HETATM    7  C   UNK N   1      33.069  16.811   3.340  0.00  0.00     0.037 A 
HETATM    8  C   UNK N   1      33.121  17.488   4.555  0.00  0.00     0.010 A 
BRANCH   6   9
HETATM    9  O   UNK N   1      33.698  14.887   2.039  0.00  0.00    -0.325 OA
BRANCH   9  10
HETATM   10  C   UNK N   1      34.340  13.679   1.766  0.00  0.00     0.323 C 
BRANCH  10  11
HETATM   11  C   UNK N   1      35.513  13.970   0.863  0.00  0.00     0.181 C 
HETATM   12  O   UNK N   1      36.653  13.862   1.287  0.00  0.00    -0.648 OA
BRANCH  11  13
HETATM   13  O   UNK N   1      35.312  14.342  -0.417  0.00  0.00    -0.774 OA
HETATM   14  H   UNK N   1      34.606  14.583  -0.984  0.00  0.00     0.167 HD
ENDBRANCH  11  13
ENDBRANCH  10  11
BRANCH  10  15
HETATM   15  C   UNK N   1      33.442  12.628   1.122  0.00  0.00     0.181 C 
HETATM   16  O   UNK N   1      33.888  11.892   0.258  0.00  0.00    -0.648 OA
BRANCH  15  17
HETATM   17  O   UNK N   1      32.133  12.554   1.438  0.00  0.00    -0.774 OA
HETATM   18  H   UNK N   1      31.450  12.037   1.818  0.00  0.00     0.167 HD
ENDBRANCH  15  17
ENDBRANCH  10  15
ENDBRANCH   9  10
ENDBRANCH   6   9
ENDBRANCH   2   3
ENDBRANCH   1   2
BRANCH   1  19
HETATM   19  C   UNK N   1      34.570  17.198   9.292  0.00  0.00     0.135 C 
HETATM   20  N   UNK N   1      34.636  16.309  10.229  0.00  0.00    -0.373 N 
ATOM     21  HN  UNK N   1      34.051  15.477  10.159  1.00  0.00     0.161 HD
BRANCH  20  22
HETATM   22  C   UNK N   1      35.513  16.452  11.374  0.00  0.00     0.121 C 
BRANCH  22  23
HETATM   23  C   UNK N   1      36.039  15.086  11.795  0.00  0.00     0.020 C 
BRANCH  23  24
HETATM   24  C   UNK N   1      34.939  14.089  12.071  0.00  0.00     0.001 C 
BRANCH  24  25
HETATM   25  C   UNK N   1      35.448  13.138  13.137  0.00  0.00    -0.004 C 
HETATM   26  C   UNK N   1      36.187  13.903  14.213  0.00  0.00     0.005 C 
ENDBRANCH  24  25
ENDBRANCH  23  24
ENDBRANCH  22  23
ENDBRANCH  20  22
BRANCH  19  27
HETATM   27  O   UNK N   1      35.338  18.308   9.350  0.00  0.00    -0.348 OA
HETATM   28  H   UNK N   1      36.123  18.818   9.375  0.00  0.00     0.219 HD
ENDBRANCH  19  27
ENDBRANCH   1  19
BRANCH   1  29
HETATM   29  N   UNK N   1      32.306  17.487   8.644  0.00  0.00    -0.344 N 
HETATM   30  C   UNK N   1      31.391  16.756   9.193  0.00  0.00     0.214 C 
ATOM     31  HN  UNK N   1      32.104  18.481   8.550  1.00  0.00     0.163 HD
BRANCH  30  32
HETATM   32  N   UNK N   1      30.068  17.272   9.316  0.00  0.00    -0.342 N 
HETATM   33  H   UNK N   1      29.741  17.601  10.185  0.00  0.00     0.164 HD
BRANCH  32  34
HETATM   34  C   UNK N   1      29.203  17.307   8.146  0.00  0.00     0.187 C 
BRANCH  34  35
HETATM   35  C   UNK N   1      29.994  17.476   6.835  0.00  0.00     0.074 C 
BRANCH  35  36
HETATM   36  C   UNK N   1      29.937  16.392   5.787  0.00  0.00    -0.056 A 
HETATM   37  C   UNK N   1      29.463  16.716   4.512  0.00  0.00     0.007 A 
HETATM   38  C   UNK N   1      29.514  15.775   3.477  0.00  0.00     0.001 A 
HETATM   39  C   UNK N   1      30.049  14.505   3.711  0.00  0.00     0.000 A 
HETATM   40  C   UNK N   1      30.535  14.175   4.978  0.00  0.00     0.001 A 
HETATM   41  C   UNK N   1      30.494  15.120   6.006  0.00  0.00     0.007 A 
ENDBRANCH  35  36
ENDBRANCH  34  35
BRANCH  34  42
HETATM   42  C   UNK N   1      28.130  18.370   8.290  0.00  0.00     0.163 C 
HETATM   43  O   UNK N   1      27.968  19.196   7.405  0.00  0.00    -0.648 OA
BRANCH  42  44
HETATM   44  O   UNK N   1      27.369  18.433   9.400  0.00  0.00    -0.775 OA
HETATM   45  H   UNK N   1      26.451  18.474   9.586  0.00  0.00     0.167 HD
ENDBRANCH  42  44
ENDBRANCH  34  42
ENDBRANCH  32  34
ENDBRANCH  30  32
BRANCH  30  46
HETATM   46  O   UNK N   1      31.639  15.474   9.544  0.00  0.00    -0.333 OA
HETATM   47  H   UNK N   1      32.153  14.723   9.766  0.00  0.00     0.220 HD
ENDBRANCH  30  46
ENDBRANCH   1  29
TORSDOF 22
ENDMDL
MODEL 4
REMARK VINA RESULT:      -6.7      2.627      8.065
REMARK  22 active torsions:
REMARK  status: ('A' for Active; 'I' for Inactive)
REMARK    1  A    between atoms: C_3  and  C_2 
REMARK    2  A    between atoms: C_7  and  C_3 
REMARK    3  A    between atoms: C_14  and  C_7 
REMARK    4  A    between atoms: N_28  and  C_14 
REMARK    5  A    between atoms: C_18  and  C_15 
REMARK    6  A    between atoms: C_20  and  C_15 
REMARK    7  A    between atoms: C_17  and  C_16 
REMARK    8  A    between atoms: C_21  and  C_16 
REMARK    9  A    between atoms: O_41  and  C_19 
REMARK   10  A    between atoms: C_23  and  C_20 
REMARK   11  A    between atoms: C_20  and  N_30 
REMARK   12  A    between atoms: C_24  and  C_21 
REMARK   13  A    between atoms: C_21  and  N_32 
REMARK   14  A    between atoms: C_25  and  C_22 
REMARK   15  A    between atoms: C_26  and  C_22 
REMARK   16  A    between atoms: O_41  and  C_22 
REMARK   17  A    between atoms: O_33  and  C_23 
REMARK   18  A    between atoms: O_35  and  C_24 
REMARK   19  A    between atoms: O_37  and  C_25 
REMARK   20  A    between atoms: O_39  and  C_26 
REMARK   21  A    between atoms: N_32  and  C_27 
REMARK   22  A    between atoms: C_27  and  O_40 
ROOT
HETATM    1  C   UNK N   1      35.378  13.682  10.337  0.00  0.00     0.163 C 
ENDROOT
BRANCH   1   2
HETATM    2  C   UNK N   1      35.401  15.225  10.473  0.00  0.00     0.072 C 
BRANCH   2   3
HETATM    3  C   UNK N   1      34.331  15.814   9.609  0.00  0.00    -0.056 A 
HETATM    4  C   UNK N   1      34.449  17.117   9.116  0.00  0.00     0.010 A 
HETATM    5  C   UNK N   1      33.336  17.751   8.557  0.00  0.00     0.037 A 
HETATM    6  C   UNK N   1      32.094  17.108   8.538  0.00  0.00     0.070 A 
HETATM    7  C   UNK N   1      31.994  15.782   8.980  0.00  0.00     0.037 A 
HETATM    8  C   UNK N   1      33.108  15.140   9.515  0.00  0.00     0.010 A 
BRANCH   6   9
HETATM    9  O   UNK N   1      31.008  17.806   8.133  0.00  0.00    -0.325 OA
BRANCH   9  10
HETATM   10  C   UNK N   1      29.668  17.430   8.234  0.00  0.00     0.323 C 
BRANCH  10  11
HETATM   11  C   UNK N   1      29.023  17.644   6.888  0.00  0.00     0.181 C 
HETATM   12  O   UNK N   1      29.371  16.973   5.929  0.00  0.00    -0.648 OA
BRANCH  11  13
HETATM   13  O   UNK N   1      28.053  18.569   6.736  0.00  0.00    -0.774 OA
HETATM   14  H   UNK N   1      27.125  18.645   6.828  0.00  0.00     0.167 HD
ENDBRANCH  11  13
ENDBRANCH  10  11
BRANCH  10  15
HETATM   15  C   UNK N   1      28.889  18.184   9.306  0.00  0.00     0.181 C 
HETATM   16  O   UNK N   1      29.481  18.879  10.114  0.00  0.00    -0.648 OA
BRANCH  15  17
HETATM   17  O   UNK N   1      27.554  18.029   9.425  0.00  0.00    -0.774 OA
HETATM   18  H   UNK N   1      26.851  17.441   9.620  0.00  0.00     0.167 HD
ENDBRANCH  15  17
ENDBRANCH  10  15
ENDBRANCH   9  10
ENDBRANCH   6   9
ENDBRANCH   2   3
ENDBRANCH   1   2
BRANCH   1  19
HETATM   19  C   UNK N   1      35.958  13.191   9.026  0.00  0.00     0.135 C 
HETATM   20  N   UNK N   1      36.483  14.028   8.191  0.00  0.00    -0.373 N 
ATOM     21  HN  UNK N   1      36.540  15.012   8.452  1.00  0.00     0.161 HD
BRANCH  20  22
HETATM   22  C   UNK N   1      36.994  13.617   6.898  0.00  0.00     0.121 C 
BRANCH  22  23
HETATM   23  C   UNK N   1      36.064  14.108   5.796  0.00  0.00     0.020 C 
BRANCH  23  24
HETATM   24  C   UNK N   1      35.312  15.362   6.173  0.00  0.00     0.001 C 
BRANCH  24  25
HETATM   25  C   UNK N   1      33.923  15.252   5.576  0.00  0.00    -0.004 C 
HETATM   26  C   UNK N   1      33.488  16.585   5.007  0.00  0.00     0.005 C 
ENDBRANCH  24  25
ENDBRANCH  23  24
ENDBRANCH  22  23
ENDBRANCH  20  22
BRANCH  19  27
HETATM   27  O   UNK N   1      35.873  11.880   8.715  0.00  0.00    -0.348 OA
HETATM   28  H   UNK N   1      35.985  10.955   8.818  0.00  0.00     0.219 HD
ENDBRANCH  19  27
ENDBRANCH   1  19
BRANCH   1  29
HETATM   29  N   UNK N   1      36.104  12.995  11.386  0.00  0.00    -0.344 N 
HETATM   30  C   UNK N   1      35.679  12.748  12.582  0.00  0.00     0.214 C 
ATOM     31  HN  UNK N   1      37.045  12.674  11.158  1.00  0.00     0.163 HD
BRANCH  30  32
HETATM   32  N   UNK N   1      36.614  12.375  13.591  0.00  0.00    -0.342 N 
HETATM   33  H   UNK N   1      37.290  11.682  13.411  0.00  0.00     0.164 HD
BRANCH  32  34
HETATM   34  C   UNK N   1      36.560  13.027  14.891  0.00  0.00     0.187 C 
BRANCH  34  35
HETATM   35  C   UNK N   1      35.213  12.808  15.603  0.00  0.00     0.074 C 
BRANCH  35  36
HETATM   36  C   UNK N   1      35.198  12.370  17.048  0.00  0.00    -0.056 A 
HETATM   37  C   UNK N   1      35.423  11.021  17.341  0.00  0.00     0.007 A 
HETATM   38  C   UNK N   1      35.545  10.596  18.669  0.00  0.00     0.001 A 
HETATM   39  C   UNK N   1      35.452  11.522  19.712  0.00  0.00     0.000 A 
HETATM   40  C   UNK N   1      35.239  12.872  19.429  0.00  0.00     0.001 A 
HETATM   41  C   UNK N   1      35.129  13.296  18.102  0.00  0.00     0.007 A 
ENDBRANCH  35  36
ENDBRANCH  34  35
BRANCH  34  42
HETATM   42  C   UNK N   1      36.895  14.503  14.777  0.00  0.00     0.163 C 
HETATM   43  O   UNK N   1      37.445  15.077  15.704  0.00  0.00    -0.648 OA
BRANCH  42  44
HETATM   44  O   UNK N   1      36.567  15.199  13.670  0.00  0.00    -0.775 OA
HETATM   45  H   UNK N   1      36.003  15.920  13.471  0.00  0.00     0.167 HD
ENDBRANCH  42  44
ENDBRANCH  34  42
ENDBRANCH  32  34
ENDBRANCH  30  32
BRANCH  30  46
HETATM   46  O   UNK N   1      34.385  12.951  12.919  0.00  0.00    -0.333 OA
HETATM   47  H   UNK N   1      33.467  12.770  12.972  0.00  0.00     0.220 HD
ENDBRANCH  30  46
ENDBRANCH   1  29
TORSDOF 22
ENDMDL
MODEL 5
REMARK VINA RESULT:      -6.7     10.592     14.919
REMARK  22 active torsions:
REMARK  status: ('A' for Active; 'I' for Inactive)
REMARK    1  A    between atoms: C_3  and  C_2 
REMARK    2  A    between atoms: C_7  and  C_3 
REMARK    3  A    between atoms: C_14  and  C_7 
REMARK    4  A    between atoms: N_28  and  C_14 
REMARK    5  A    between atoms: C_18  and  C_15 
REMARK    6  A    between atoms: C_20  and  C_15 
REMARK    7  A    between atoms: C_17  and  C_16 
REMARK    8  A    between atoms: C_21  and  C_16 
REMARK    9  A    between atoms: O_41  and  C_19 
REMARK   10  A    between atoms: C_23  and  C_20 
REMARK   11  A    between atoms: C_20  and  N_30 
REMARK   12  A    between atoms: C_24  and  C_21 
REMARK   13  A    between atoms: C_21  and  N_32 
REMARK   14  A    between atoms: C_25  and  C_22 
REMARK   15  A    between atoms: C_26  and  C_22 
REMARK   16  A    between atoms: O_41  and  C_22 
REMARK   17  A    between atoms: O_33  and  C_23 
REMARK   18  A    between atoms: O_35  and  C_24 
REMARK   19  A    between atoms: O_37  and  C_25 
REMARK   20  A    between atoms: O_39  and  C_26 
REMARK   21  A    between atoms: N_32  and  C_27 
REMARK   22  A    between atoms: C_27  and  O_40 
ROOT
HETATM    1  C   UNK N   1      21.054  17.866   4.919  0.00  0.00     0.163 C 
ENDROOT
BRANCH   1   2
HETATM    2  C   UNK N   1      22.052  17.397   6.007  0.00  0.00     0.072 C 
BRANCH   2   3
HETATM    3  C   UNK N   1      21.547  16.133   6.630  0.00  0.00    -0.056 A 
HETATM    4  C   UNK N   1      21.018  16.138   7.924  0.00  0.00     0.010 A 
HETATM    5  C   UNK N   1      20.816  14.929   8.596  0.00  0.00     0.037 A 
HETATM    6  C   UNK N   1      21.190  13.721   8.000  0.00  0.00     0.070 A 
HETATM    7  C   UNK N   1      21.665  13.717   6.682  0.00  0.00     0.037 A 
HETATM    8  C   UNK N   1      21.844  14.919   6.002  0.00  0.00     0.010 A 
BRANCH   6   9
HETATM    9  O   UNK N   1      21.125  12.587   8.736  0.00  0.00    -0.325 OA
BRANCH   9  10
HETATM   10  C   UNK N   1      22.164  11.957   9.421  0.00  0.00     0.323 C 
BRANCH  10  11
HETATM   11  C   UNK N   1      21.847  12.007  10.895  0.00  0.00     0.181 C 
HETATM   12  O   UNK N   1      20.740  12.359  11.270  0.00  0.00    -0.648 OA
BRANCH  11  13
HETATM   13  O   UNK N   1      22.778  11.655  11.805  0.00  0.00    -0.774 OA
HETATM   14  H   UNK N   1      23.690  11.780  11.971  0.00  0.00     0.167 HD
ENDBRANCH  11  13
ENDBRANCH  10  11
BRANCH  10  15
HETATM   15  C   UNK N   1      23.538  12.570   9.168  0.00  0.00     0.181 C 
HETATM   16  O   UNK N   1      23.924  13.504   9.850  0.00  0.00    -0.648 OA
BRANCH  15  17
HETATM   17  O   UNK N   1      24.304  12.144   8.143  0.00  0.00    -0.774 OA
HETATM   18  H   UNK N   1      24.369  11.575   7.401  0.00  0.00     0.167 HD
ENDBRANCH  15  17
ENDBRANCH  10  15
ENDBRANCH   9  10
ENDBRANCH   6   9
ENDBRANCH   2   3
ENDBRANCH   1   2
BRANCH   1  19
HETATM   19  C   UNK N   1      21.529  19.090   4.164  0.00  0.00     0.135 C 
HETATM   20  N   UNK N   1      22.718  19.122   3.655  0.00  0.00    -0.373 N 
ATOM     21  HN  UNK N   1      23.308  18.294   3.733  1.00  0.00     0.161 HD
BRANCH  20  22
HETATM   22  C   UNK N   1      23.241  20.293   2.978  0.00  0.00     0.121 C 
BRANCH  22  23
HETATM   23  C   UNK N   1      24.675  20.550   3.426  0.00  0.00     0.020 C 
BRANCH  23  24
HETATM   24  C   UNK N   1      25.462  19.280   3.645  0.00  0.00     0.001 C 
BRANCH  24  25
HETATM   25  C   UNK N   1      26.926  19.666   3.735  0.00  0.00    -0.004 C 
HETATM   26  C   UNK N   1      27.168  20.525   4.955  0.00  0.00     0.005 C 
ENDBRANCH  24  25
ENDBRANCH  23  24
ENDBRANCH  22  23
ENDBRANCH  20  22
BRANCH  19  27
HETATM   27  O   UNK N   1      20.719  20.167   4.071  0.00  0.00    -0.348 OA
HETATM   28  H   UNK N   1      19.991  20.682   3.783  0.00  0.00     0.219 HD
ENDBRANCH  19  27
ENDBRANCH   1  19
BRANCH   1  29
HETATM   29  N   UNK N   1      20.766  16.857   3.919  0.00  0.00    -0.344 N 
HETATM   30  C   UNK N   1      19.727  16.809   3.151  0.00  0.00     0.214 C 
ATOM     31  HN  UNK N   1      21.451  16.110   3.812  1.00  0.00     0.163 HD
BRANCH  30  32
HETATM   32  N   UNK N   1      19.419  15.595   2.471  0.00  0.00    -0.342 N 
HETATM   33  H   UNK N   1      18.858  14.911   2.904  0.00  0.00     0.164 HD
BRANCH  32  34
HETATM   34  C   UNK N   1      19.943  15.374   1.131  0.00  0.00     0.187 C 
BRANCH  34  35
HETATM   35  C   UNK N   1      21.471  15.188   1.121  0.00  0.00     0.074 C 
BRANCH  35  36
HETATM   36  C   UNK N   1      22.051  13.823   0.835  0.00  0.00    -0.056 A 
HETATM   37  C   UNK N   1      21.206  12.710   0.898  0.00  0.00     0.007 A 
HETATM   38  C   UNK N   1      21.672  11.446   0.517  0.00  0.00     0.001 A 
HETATM   39  C   UNK N   1      22.985  11.291   0.061  0.00  0.00     0.000 A 
HETATM   40  C   UNK N   1      23.831  12.398  -0.017  0.00  0.00     0.001 A 
HETATM   41  C   UNK N   1      23.360  13.661   0.354  0.00  0.00     0.007 A 
ENDBRANCH  35  36
ENDBRANCH  34  35
BRANCH  34  42
HETATM   42  C   UNK N   1      19.511  16.481   0.186  0.00  0.00     0.163 C 
HETATM   43  O   UNK N   1      20.343  17.241  -0.283  0.00  0.00    -0.648 OA
BRANCH  42  44
HETATM   44  O   UNK N   1      18.211  16.654  -0.122  0.00  0.00    -0.775 OA
HETATM   45  H   UNK N   1      17.394  16.310   0.185  0.00  0.00     0.167 HD
ENDBRANCH  42  44
ENDBRANCH  34  42
ENDBRANCH  32  34
ENDBRANCH  30  32
BRANCH  30  46
HETATM   46  O   UNK N   1      18.866  17.849   3.075  0.00  0.00    -0.333 OA
HETATM   47  H   UNK N   1      18.586  18.743   3.110  0.00  0.00     0.220 HD
ENDBRANCH  30  46
ENDBRANCH   1  29
TORSDOF 22
ENDMDL
MODEL 6
REMARK VINA RESULT:      -6.7      2.735      8.027
REMARK  22 active torsions:
REMARK  status: ('A' for Active; 'I' for Inactive)
REMARK    1  A    between atoms: C_3  and  C_2 
REMARK    2  A    between atoms: C_7  and  C_3 
REMARK    3  A    between atoms: C_14  and  C_7 
REMARK    4  A    between atoms: N_28  and  C_14 
REMARK    5  A    between atoms: C_18  and  C_15 
REMARK    6  A    between atoms: C_20  and  C_15 
REMARK    7  A    between atoms: C_17  and  C_16 
REMARK    8  A    between atoms: C_21  and  C_16 
REMARK    9  A    between atoms: O_41  and  C_19 
REMARK   10  A    between atoms: C_23  and  C_20 
REMARK   11  A    between atoms: C_20  and  N_30 
REMARK   12  A    between atoms: C_24  and  C_21 
REMARK   13  A    between atoms: C_21  and  N_32 
REMARK   14  A    between atoms: C_25  and  C_22 
REMARK   15  A    between atoms: C_26  and  C_22 
REMARK   16  A    between atoms: O_41  and  C_22 
REMARK   17  A    between atoms: O_33  and  C_23 
REMARK   18  A    between atoms: O_35  and  C_24 
REMARK   19  A    between atoms: O_37  and  C_25 
REMARK   20  A    between atoms: O_39  and  C_26 
REMARK   21  A    between atoms: N_32  and  C_27 
REMARK   22  A    between atoms: C_27  and  O_40 
ROOT
HETATM    1  C   UNK N   1      32.705  16.535   8.300  0.00  0.00     0.163 C 
ENDROOT
BRANCH   1   2
HETATM    2  C   UNK N   1      31.974  17.894   8.444  0.00  0.00     0.072 C 
BRANCH   2   3
HETATM    3  C   UNK N   1      30.545  17.732   8.031  0.00  0.00    -0.056 A 
HETATM    4  C   UNK N   1      30.210  16.970   6.907  0.00  0.00     0.010 A 
HETATM    5  C   UNK N   1      28.923  17.056   6.369  0.00  0.00     0.037 A 
HETATM    6  C   UNK N   1      27.988  17.940   6.916  0.00  0.00     0.070 A 
HETATM    7  C   UNK N   1      28.310  18.658   8.075  0.00  0.00     0.037 A 
HETATM    8  C   UNK N   1      29.584  18.555   8.627  0.00  0.00     0.010 A 
BRANCH   6   9
HETATM    9  O   UNK N   1      26.807  18.112   6.277  0.00  0.00    -0.325 OA
BRANCH   9  10
HETATM   10  C   UNK N   1      26.499  19.057   5.298  0.00  0.00     0.323 C 
BRANCH  10  11
HETATM   11  C   UNK N   1      26.143  18.317   4.033  0.00  0.00     0.181 C 
HETATM   12  O   UNK N   1      26.951  17.559   3.520  0.00  0.00    -0.648 OA
BRANCH  11  13
HETATM   13  O   UNK N   1      24.929  18.479   3.468  0.00  0.00    -0.774 OA
HETATM   14  H   UNK N   1      24.551  18.576   2.617  0.00  0.00     0.167 HD
ENDBRANCH  11  13
ENDBRANCH  10  11
BRANCH  10  15
HETATM   15  C   UNK N   1      27.622  20.049   5.016  0.00  0.00     0.181 C 
HETATM   16  O   UNK N   1      27.640  21.128   5.585  0.00  0.00    -0.648 OA
BRANCH  15  17
HETATM   17  O   UNK N   1      28.559  19.784   4.082  0.00  0.00    -0.774 OA
HETATM   18  H   UNK N   1      28.727  19.557   3.189  0.00  0.00     0.167 HD
ENDBRANCH  15  17
ENDBRANCH  10  15
ENDBRANCH   9  10
ENDBRANCH   6   9
ENDBRANCH   2   3
ENDBRANCH   1   2
BRANCH   1  19
HETATM   19  C   UNK N   1      33.643  16.489   7.111  0.00  0.00     0.135 C 
HETATM   20  N   UNK N   1      33.717  15.424   6.380  0.00  0.00    -0.373 N 
ATOM     21  HN  UNK N   1      33.102  14.639   6.591  1.00  0.00     0.161 HD
BRANCH  20  22
HETATM   22  C   UNK N   1      34.643  15.308   5.270  0.00  0.00     0.121 C 
BRANCH  22  23
HETATM   23  C   UNK N   1      33.891  15.459   3.953  0.00  0.00     0.020 C 
BRANCH  23  24
HETATM   24  C   UNK N   1      32.403  15.244   4.095  0.00  0.00     0.001 C 
BRANCH  24  25
HETATM   25  C   UNK N   1      31.711  16.401   3.402  0.00  0.00    -0.004 C 
HETATM   26  C   UNK N   1      32.215  17.718   3.950  0.00  0.00     0.005 C 
ENDBRANCH  24  25
ENDBRANCH  23  24
ENDBRANCH  22  23
ENDBRANCH  20  22
BRANCH  19  27
HETATM   27  O   UNK N   1      34.439  17.549   6.853  0.00  0.00    -0.348 OA
HETATM   28  H   UNK N   1      35.051  18.237   7.028  0.00  0.00     0.219 HD
ENDBRANCH  19  27
ENDBRANCH   1  19
BRANCH   1  29
HETATM   29  N   UNK N   1      33.497  16.175   9.458  0.00  0.00    -0.344 N 
HETATM   30  C   UNK N   1      33.582  15.003   9.999  0.00  0.00     0.214 C 
ATOM     31  HN  UNK N   1      34.043  16.920   9.891  1.00  0.00     0.163 HD
BRANCH  30  32
HETATM   32  N   UNK N   1      34.120  14.879  11.313  0.00  0.00    -0.342 N 
HETATM   33  H   UNK N   1      33.647  15.269  12.083  0.00  0.00     0.164 HD
BRANCH  32  34
HETATM   34  C   UNK N   1      35.378  14.172  11.505  0.00  0.00     0.187 C 
BRANCH  34  35
HETATM   35  C   UNK N   1      35.749  14.026  12.992  0.00  0.00     0.074 C 
BRANCH  35  36
HETATM   36  C   UNK N   1      35.250  12.831  13.769  0.00  0.00    -0.056 A 
HETATM   37  C   UNK N   1      35.292  12.875  15.166  0.00  0.00     0.007 A 
HETATM   38  C   UNK N   1      34.724  11.846  15.924  0.00  0.00     0.001 A 
HETATM   39  C   UNK N   1      34.100  10.769  15.287  0.00  0.00     0.000 A 
HETATM   40  C   UNK N   1      34.042  10.722  13.893  0.00  0.00     0.001 A 
HETATM   41  C   UNK N   1      34.600  11.757  13.139  0.00  0.00     0.007 A 
ENDBRANCH  35  36
ENDBRANCH  34  35
BRANCH  34  42
HETATM   42  C   UNK N   1      36.497  14.823  10.714  0.00  0.00     0.163 C 
HETATM   43  O   UNK N   1      37.042  14.209   9.811  0.00  0.00    -0.648 OA
BRANCH  42  44
HETATM   44  O   UNK N   1      36.919  16.067  11.016  0.00  0.00    -0.775 OA
HETATM   45  H   UNK N   1      36.858  16.914  10.619  0.00  0.00     0.167 HD
ENDBRANCH  42  44
ENDBRANCH  34  42
ENDBRANCH  32  34
ENDBRANCH  30  32
BRANCH  30  46
HETATM   46  O   UNK N   1      33.062  13.914   9.389  0.00  0.00    -0.333 OA
HETATM   47  H   UNK N   1      32.971  13.008   9.168  0.00  0.00     0.220 HD
ENDBRANCH  30  46
ENDBRANCH   1  29
TORSDOF 22
ENDMDL
MODEL 7
REMARK VINA RESULT:      -6.6      7.223     12.287
REMARK  22 active torsions:
REMARK  status: ('A' for Active; 'I' for Inactive)
REMARK    1  A    between atoms: C_3  and  C_2 
REMARK    2  A    between atoms: C_7  and  C_3 
REMARK    3  A    between atoms: C_14  and  C_7 
REMARK    4  A    between atoms: N_28  and  C_14 
REMARK    5  A    between atoms: C_18  and  C_15 
REMARK    6  A    between atoms: C_20  and  C_15 
REMARK    7  A    between atoms: C_17  and  C_16 
REMARK    8  A    between atoms: C_21  and  C_16 
REMARK    9  A    between atoms: O_41  and  C_19 
REMARK   10  A    between atoms: C_23  and  C_20 
REMARK   11  A    between atoms: C_20  and  N_30 
REMARK   12  A    between atoms: C_24  and  C_21 
REMARK   13  A    between atoms: C_21  and  N_32 
REMARK   14  A    between atoms: C_25  and  C_22 
REMARK   15  A    between atoms: C_26  and  C_22 
REMARK   16  A    between atoms: O_41  and  C_22 
REMARK   17  A    between atoms: O_33  and  C_23 
REMARK   18  A    between atoms: O_35  and  C_24 
REMARK   19  A    between atoms: O_37  and  C_25 
REMARK   20  A    between atoms: O_39  and  C_26 
REMARK   21  A    between atoms: N_32  and  C_27 
REMARK   22  A    between atoms: C_27  and  O_40 
ROOT
HETATM    1  C   UNK N   1      24.131  19.605   3.898  0.00  0.00     0.163 C 
ENDROOT
BRANCH   1   2
HETATM    2  C   UNK N   1      25.476  20.146   3.352  0.00  0.00     0.072 C 
BRANCH   2   3
HETATM    3  C   UNK N   1      26.593  19.671   4.227  0.00  0.00    -0.056 A 
HETATM    4  C   UNK N   1      27.371  18.571   3.854  0.00  0.00     0.010 A 
HETATM    5  C   UNK N   1      28.212  17.966   4.793  0.00  0.00     0.037 A 
HETATM    6  C   UNK N   1      28.237  18.424   6.115  0.00  0.00     0.070 A 
HETATM    7  C   UNK N   1      27.500  19.561   6.467  0.00  0.00     0.037 A 
HETATM    8  C   UNK N   1      26.681  20.180   5.527  0.00  0.00     0.010 A 
BRANCH   6   9
HETATM    9  O   UNK N   1      28.942  17.720   7.031  0.00  0.00    -0.325 OA
BRANCH   9  10
HETATM   10  C   UNK N   1      29.702  18.223   8.089  0.00  0.00     0.323 C 
BRANCH  10  11
HETATM   11  C   UNK N   1      31.044  17.537   8.064  0.00  0.00     0.181 C 
HETATM   12  O   UNK N   1      31.532  17.186   7.001  0.00  0.00    -0.648 OA
BRANCH  11  13
HETATM   13  O   UNK N   1      31.718  17.316   9.211  0.00  0.00    -0.774 OA
HETATM   14  H   UNK N   1      31.915  17.755  10.014  0.00  0.00     0.167 HD
ENDBRANCH  11  13
ENDBRANCH  10  11
BRANCH  10  15
HETATM   15  C   UNK N   1      29.056  18.045   9.458  0.00  0.00     0.181 C 
HETATM   16  O   UNK N   1      27.955  17.527   9.551  0.00  0.00    -0.648 OA
BRANCH  15  17
HETATM   17  O   UNK N   1      29.651  18.527  10.569  0.00  0.00    -0.774 OA
HETATM   18  H   UNK N   1      30.365  19.021  10.919  0.00  0.00     0.167 HD
ENDBRANCH  15  17
ENDBRANCH  10  15
ENDBRANCH   9  10
ENDBRANCH   6   9
ENDBRANCH   2   3
ENDBRANCH   1   2
BRANCH   1  19
HETATM   19  C   UNK N   1      22.935  20.048   3.080  0.00  0.00     0.135 C 
HETATM   20  N   UNK N   1      21.736  19.754   3.466  0.00  0.00    -0.373 N 
ATOM     21  HN  UNK N   1      21.611  19.262   4.350  1.00  0.00     0.161 HD
BRANCH  20  22
HETATM   22  C   UNK N   1      20.564  20.101   2.686  0.00  0.00     0.121 C 
BRANCH  22  23
HETATM   23  C   UNK N   1      19.577  18.940   2.694  0.00  0.00     0.020 C 
BRANCH  23  24
HETATM   24  C   UNK N   1      20.139  17.684   2.071  0.00  0.00     0.001 C 
BRANCH  24  25
HETATM   25  C   UNK N   1      20.281  16.656   3.176  0.00  0.00    -0.004 C 
HETATM   26  C   UNK N   1      21.163  15.514   2.722  0.00  0.00     0.005 C 
ENDBRANCH  24  25
ENDBRANCH  23  24
ENDBRANCH  22  23
ENDBRANCH  20  22
BRANCH  19  27
HETATM   27  O   UNK N   1      23.136  20.707   1.918  0.00  0.00    -0.348 OA
HETATM   28  H   UNK N   1      23.186  21.437   1.333  0.00  0.00     0.219 HD
ENDBRANCH  19  27
ENDBRANCH   1  19
BRANCH   1  29
HETATM   29  N   UNK N   1      24.068  18.159   3.962  0.00  0.00    -0.344 N 
HETATM   30  C   UNK N   1      23.617  17.451   4.946  0.00  0.00     0.214 C 
ATOM     31  HN  UNK N   1      24.416  17.648   3.151  1.00  0.00     0.163 HD
BRANCH  30  32
HETATM   32  N   UNK N   1      23.929  16.061   5.006  0.00  0.00    -0.342 N 
HETATM   33  H   UNK N   1      23.220  15.387   4.898  0.00  0.00     0.164 HD
BRANCH  32  34
HETATM   34  C   UNK N   1      25.307  15.649   5.230  0.00  0.00     0.187 C 
BRANCH  34  35
HETATM   35  C   UNK N   1      25.737  14.504   4.295  0.00  0.00     0.074 C 
BRANCH  35  36
HETATM   36  C   UNK N   1      24.849  14.115   3.138  0.00  0.00    -0.056 A 
HETATM   37  C   UNK N   1      24.968  14.821   1.936  0.00  0.00     0.007 A 
HETATM   38  C   UNK N   1      24.257  14.412   0.802  0.00  0.00     0.001 A 
HETATM   39  C   UNK N   1      23.429  13.286   0.862  0.00  0.00     0.000 A 
HETATM   40  C   UNK N   1      23.313  12.569   2.054  0.00  0.00     0.001 A 
HETATM   41  C   UNK N   1      24.033  12.972   3.181  0.00  0.00     0.007 A 
ENDBRANCH  35  36
ENDBRANCH  34  35
BRANCH  34  42
HETATM   42  C   UNK N   1      25.541  15.295   6.687  0.00  0.00     0.163 C 
HETATM   43  O   UNK N   1      24.935  14.364   7.193  0.00  0.00    -0.648 OA
BRANCH  42  44
HETATM   44  O   UNK N   1      26.394  16.016   7.441  0.00  0.00    -0.775 OA
HETATM   45  H   UNK N   1      27.238  15.877   7.824  0.00  0.00     0.167 HD
ENDBRANCH  42  44
ENDBRANCH  34  42
ENDBRANCH  32  34
ENDBRANCH  30  32
BRANCH  30  46
HETATM   46  O   UNK N   1      22.955  18.027   5.975  0.00  0.00    -0.333 OA
HETATM   47  H   UNK N   1      22.216  18.324   6.469  0.00  0.00     0.220 HD
ENDBRANCH  30  46
ENDBRANCH   1  29
TORSDOF 22
ENDMDL
MODEL 8
REMARK VINA RESULT:      -6.6      7.877     13.079
REMARK  22 active torsions:
REMARK  status: ('A' for Active; 'I' for Inactive)
REMARK    1  A    between atoms: C_3  and  C_2 
REMARK    2  A    between atoms: C_7  and  C_3 
REMARK    3  A    between atoms: C_14  and  C_7 
REMARK    4  A    between atoms: N_28  and  C_14 
REMARK    5  A    between atoms: C_18  and  C_15 
REMARK    6  A    between atoms: C_20  and  C_15 
REMARK    7  A    between atoms: C_17  and  C_16 
REMARK    8  A    between atoms: C_21  and  C_16 
REMARK    9  A    between atoms: O_41  and  C_19 
REMARK   10  A    between atoms: C_23  and  C_20 
REMARK   11  A    between atoms: C_20  and  N_30 
REMARK   12  A    between atoms: C_24  and  C_21 
REMARK   13  A    between atoms: C_21  and  N_32 
REMARK   14  A    between atoms: C_25  and  C_22 
REMARK   15  A    between atoms: C_26  and  C_22 
REMARK   16  A    between atoms: O_41  and  C_22 
REMARK   17  A    between atoms: O_33  and  C_23 
REMARK   18  A    between atoms: O_35  and  C_24 
REMARK   19  A    between atoms: O_37  and  C_25 
REMARK   20  A    between atoms: O_39  and  C_26 
REMARK   21  A    between atoms: N_32  and  C_27 
REMARK   22  A    between atoms: C_27  and  O_40 
ROOT
HETATM    1  C   UNK N   1      24.090  19.520   3.807  0.00  0.00     0.163 C 
ENDROOT
BRANCH   1   2
HETATM    2  C   UNK N   1      25.357  20.246   3.289  0.00  0.00     0.072 C 
BRANCH   2   3
HETATM    3  C   UNK N   1      26.440  20.144   4.315  0.00  0.00    -0.056 A 
HETATM    4  C   UNK N   1      27.478  19.218   4.166  0.00  0.00     0.010 A 
HETATM    5  C   UNK N   1      28.315  18.934   5.249  0.00  0.00     0.037 A 
HETATM    6  C   UNK N   1      28.085  19.530   6.493  0.00  0.00     0.070 A 
HETATM    7  C   UNK N   1      27.082  20.498   6.621  0.00  0.00     0.037 A 
HETATM    8  C   UNK N   1      26.263  20.801   5.537  0.00  0.00     0.010 A 
BRANCH   6   9
HETATM    9  O   UNK N   1      28.815  19.116   7.555  0.00  0.00    -0.325 OA
BRANCH   9  10
HETATM   10  C   UNK N   1      29.120  17.803   7.918  0.00  0.00     0.323 C 
BRANCH  10  11
HETATM   11  C   UNK N   1      27.878  17.183   8.507  0.00  0.00     0.181 C 
HETATM   12  O   UNK N   1      27.675  17.245   9.709  0.00  0.00    -0.648 OA
BRANCH  11  13
HETATM   13  O   UNK N   1      26.980  16.567   7.711  0.00  0.00    -0.774 OA
HETATM   14  H   UNK N   1      26.635  15.710   7.562  0.00  0.00     0.167 HD
ENDBRANCH  11  13
ENDBRANCH  10  11
BRANCH  10  15
HETATM   15  C   UNK N   1      30.275  17.683   8.906  0.00  0.00     0.181 C 
HETATM   16  O   UNK N   1      31.182  18.498   8.886  0.00  0.00    -0.648 OA
BRANCH  15  17
HETATM   17  O   UNK N   1      30.350  16.637   9.755  0.00  0.00    -0.774 OA
HETATM   18  H   UNK N   1      29.888  15.938  10.174  0.00  0.00     0.167 HD
ENDBRANCH  15  17
ENDBRANCH  10  15
ENDBRANCH   9  10
ENDBRANCH   6   9
ENDBRANCH   2   3
ENDBRANCH   1   2
BRANCH   1  19
HETATM   19  C   UNK N   1      22.805  20.088   3.240  0.00  0.00     0.135 C 
HETATM   20  N   UNK N   1      21.741  19.356   3.175  0.00  0.00    -0.373 N 
ATOM     21  HN  UNK N   1      21.771  18.410   3.553  1.00  0.00     0.161 HD
BRANCH  20  22
HETATM   22  C   UNK N   1      20.505  19.834   2.585  0.00  0.00     0.121 C 
BRANCH  22  23
HETATM   23  C   UNK N   1      19.534  18.674   2.412  0.00  0.00     0.020 C 
BRANCH  23  24
HETATM   24  C   UNK N   1      20.227  17.351   2.186  0.00  0.00     0.001 C 
BRANCH  24  25
HETATM   25  C   UNK N   1      19.800  16.845   0.822  0.00  0.00    -0.004 C 
HETATM   26  C   UNK N   1      20.111  15.370   0.689  0.00  0.00     0.005 C 
ENDBRANCH  24  25
ENDBRANCH  23  24
ENDBRANCH  22  23
ENDBRANCH  20  22
BRANCH  19  27
HETATM   27  O   UNK N   1      22.796  21.349   2.756  0.00  0.00    -0.348 OA
HETATM   28  H   UNK N   1      22.765  22.032   2.115  0.00  0.00     0.219 HD
ENDBRANCH  19  27
ENDBRANCH   1  19
BRANCH   1  29
HETATM   29  N   UNK N   1      24.072  18.101   3.514  0.00  0.00    -0.344 N 
HETATM   30  C   UNK N   1      24.460  17.148   4.298  0.00  0.00     0.214 C 
ATOM     31  HN  UNK N   1      23.719  17.826   2.598  1.00  0.00     0.163 HD
BRANCH  30  32
HETATM   32  N   UNK N   1      24.699  15.852   3.754  0.00  0.00    -0.342 N 
HETATM   33  H   UNK N   1      25.592  15.443   3.820  0.00  0.00     0.164 HD
BRANCH  32  34
HETATM   34  C   UNK N   1      23.612  15.142   3.097  0.00  0.00     0.187 C 
BRANCH  34  35
HETATM   35  C   UNK N   1      22.838  14.228   4.065  0.00  0.00     0.074 C 
BRANCH  35  36
HETATM   36  C   UNK N   1      21.453  14.627   4.515  0.00  0.00    -0.056 A 
HETATM   37  C   UNK N   1      21.313  15.758   5.327  0.00  0.00     0.007 A 
HETATM   38  C   UNK N   1      20.041  16.235   5.661  0.00  0.00     0.001 A 
HETATM   39  C   UNK N   1      18.900  15.589   5.176  0.00  0.00     0.000 A 
HETATM   40  C   UNK N   1      19.030  14.467   4.356  0.00  0.00     0.001 A 
HETATM   41  C   UNK N   1      20.301  13.999   4.014  0.00  0.00     0.007 A 
ENDBRANCH  35  36
ENDBRANCH  34  35
BRANCH  34  42
HETATM   42  C   UNK N   1      24.113  14.374   1.888  0.00  0.00     0.163 C 
HETATM   43  O   UNK N   1      23.508  14.440   0.830  0.00  0.00    -0.648 OA
BRANCH  42  44
HETATM   44  O   UNK N   1      25.208  13.593   1.975  0.00  0.00    -0.775 OA
HETATM   45  H   UNK N   1      25.755  13.130   1.370  0.00  0.00     0.167 HD
ENDBRANCH  42  44
ENDBRANCH  34  42
ENDBRANCH  32  34
ENDBRANCH  30  32
BRANCH  30  46
HETATM   46  O   UNK N   1      24.754  17.388   5.595  0.00  0.00    -0.333 OA
HETATM   47  H   UNK N   1      25.162  17.812   6.325  0.00  0.00     0.220 HD
ENDBRANCH  30  46
ENDBRANCH   1  29
TORSDOF 22
ENDMDL
MODEL 9
REMARK VINA RESULT:      -6.5      7.916     11.166
REMARK  22 active torsions:
REMARK  status: ('A' for Active; 'I' for Inactive)
REMARK    1  A    between atoms: C_3  and  C_2 
REMARK    2  A    between atoms: C_7  and  C_3 
REMARK    3  A    between atoms: C_14  and  C_7 
REMARK    4  A    between atoms: N_28  and  C_14 
REMARK    5  A    between atoms: C_18  and  C_15 
REMARK    6  A    between atoms: C_20  and  C_15 
REMARK    7  A    between atoms: C_17  and  C_16 
REMARK    8  A    between atoms: C_21  and  C_16 
REMARK    9  A    between atoms: O_41  and  C_19 
REMARK   10  A    between atoms: C_23  and  C_20 
REMARK   11  A    between atoms: C_20  and  N_30 
REMARK   12  A    between atoms: C_24  and  C_21 
REMARK   13  A    between atoms: C_21  and  N_32 
REMARK   14  A    between atoms: C_25  and  C_22 
REMARK   15  A    between atoms: C_26  and  C_22 
REMARK   16  A    between atoms: O_41  and  C_22 
REMARK   17  A    between atoms: O_33  and  C_23 
REMARK   18  A    between atoms: O_35  and  C_24 
REMARK   19  A    between atoms: O_37  and  C_25 
REMARK   20  A    between atoms: O_39  and  C_26 
REMARK   21  A    between atoms: N_32  and  C_27 
REMARK   22  A    between atoms: C_27  and  O_40 
ROOT
HETATM    1  C   UNK N   1      23.861  14.250   7.176  0.00  0.00     0.163 C 
ENDROOT
BRANCH   1   2
HETATM    2  C   UNK N   1      22.410  14.079   6.659  0.00  0.00     0.072 C 
BRANCH   2   3
HETATM    3  C   UNK N   1      22.036  15.268   5.832  0.00  0.00    -0.056 A 
HETATM    4  C   UNK N   1      21.933  15.166   4.442  0.00  0.00     0.010 A 
HETATM    5  C   UNK N   1      21.865  16.325   3.663  0.00  0.00     0.037 A 
HETATM    6  C   UNK N   1      21.954  17.584   4.265  0.00  0.00     0.070 A 
HETATM    7  C   UNK N   1      21.998  17.682   5.661  0.00  0.00     0.037 A 
HETATM    8  C   UNK N   1      22.041  16.528   6.440  0.00  0.00     0.010 A 
BRANCH   6   9
HETATM    9  O   UNK N   1      22.040  18.677   3.472  0.00  0.00    -0.325 OA
BRANCH   9  10
HETATM   10  C   UNK N   1      21.028  19.587   3.164  0.00  0.00     0.323 C 
BRANCH  10  11
HETATM   11  C   UNK N   1      20.053  18.902   2.240  0.00  0.00     0.181 C 
HETATM   12  O   UNK N   1      20.421  18.515   1.141  0.00  0.00    -0.648 OA
BRANCH  11  13
HETATM   13  O   UNK N   1      18.775  18.705   2.621  0.00  0.00    -0.774 OA
HETATM   14  H   UNK N   1      18.048  18.156   2.408  0.00  0.00     0.167 HD
ENDBRANCH  11  13
ENDBRANCH  10  11
BRANCH  10  15
HETATM   15  C   UNK N   1      21.526  20.879   2.524  0.00  0.00     0.181 C 
HETATM   16  O   UNK N   1      22.597  21.354   2.863  0.00  0.00    -0.648 OA
BRANCH  15  17
HETATM   17  O   UNK N   1      20.758  21.551   1.642  0.00  0.00    -0.774 OA
HETATM   18  H   UNK N   1      20.409  21.578   0.773  0.00  0.00     0.167 HD
ENDBRANCH  15  17
ENDBRANCH  10  15
ENDBRANCH   9  10
ENDBRANCH   6   9
ENDBRANCH   2   3
ENDBRANCH   1   2
BRANCH   1  19
HETATM   19  C   UNK N   1      24.274  13.170   8.155  0.00  0.00     0.135 C 
HETATM   20  N   UNK N   1      24.391  13.442   9.414  0.00  0.00    -0.373 N 
ATOM     21  HN  UNK N   1      24.155  14.379   9.739  1.00  0.00     0.161 HD
BRANCH  20  22
HETATM   22  C   UNK N   1      24.843  12.460  10.381  0.00  0.00     0.121 C 
BRANCH  22  23
HETATM   23  C   UNK N   1      23.695  12.083  11.309  0.00  0.00     0.020 C 
BRANCH  23  24
HETATM   24  C   UNK N   1      22.478  11.578  10.569  0.00  0.00     0.001 C 
BRANCH  24  25
HETATM   25  C   UNK N   1      21.281  12.350  11.089  0.00  0.00    -0.004 C 
HETATM   26  C   UNK N   1      20.853  13.395  10.083  0.00  0.00     0.005 C 
ENDBRANCH  24  25
ENDBRANCH  23  24
ENDBRANCH  22  23
ENDBRANCH  20  22
BRANCH  19  27
HETATM   27  O   UNK N   1      24.570  11.936   7.693  0.00  0.00    -0.348 OA
HETATM   28  H   UNK N   1      25.071  11.265   7.274  0.00  0.00     0.219 HD
ENDBRANCH  19  27
ENDBRANCH   1  19
BRANCH   1  29
HETATM   29  N   UNK N   1      24.857  14.249   6.124  0.00  0.00    -0.344 N 
HETATM   30  C   UNK N   1      25.720  15.181   5.880  0.00  0.00     0.214 C 
ATOM     31  HN  UNK N   1      24.879  13.433   5.513  1.00  0.00     0.163 HD
BRANCH  30  32
HETATM   32  N   UNK N   1      26.396  15.195   4.625  0.00  0.00    -0.342 N 
HETATM   33  H   UNK N   1      25.983  14.779   3.834  0.00  0.00     0.164 HD
BRANCH  32  34
HETATM   34  C   UNK N   1      27.703  15.827   4.525  0.00  0.00     0.187 C 
BRANCH  34  35
HETATM   35  C   UNK N   1      27.705  17.021   3.552  0.00  0.00     0.074 C 
BRANCH  35  36
HETATM   36  C   UNK N   1      27.242  18.374   4.035  0.00  0.00    -0.056 A 
HETATM   37  C   UNK N   1      25.891  18.709   3.896  0.00  0.00     0.007 A 
HETATM   38  C   UNK N   1      25.397  19.897   4.445  0.00  0.00     0.001 A 
HETATM   39  C   UNK N   1      26.251  20.755   5.146  0.00  0.00     0.000 A 
HETATM   40  C   UNK N   1      27.598  20.423   5.300  0.00  0.00     0.001 A 
HETATM   41  C   UNK N   1      28.087  19.230   4.761  0.00  0.00     0.007 A 
ENDBRANCH  35  36
ENDBRANCH  34  35
BRANCH  34  42
HETATM   42  C   UNK N   1      28.774  14.814   4.165  0.00  0.00     0.163 C 
HETATM   43  O   UNK N   1      29.203  14.761   3.023  0.00  0.00    -0.648 OA
BRANCH  42  44
HETATM   44  O   UNK N   1      29.240  13.949   5.087  0.00  0.00    -0.775 OA
HETATM   45  H   UNK N   1      29.737  13.155   5.075  0.00  0.00     0.167 HD
ENDBRANCH  42  44
ENDBRANCH  34  42
ENDBRANCH  32  34
ENDBRANCH  30  32
BRANCH  30  46
HETATM   46  O   UNK N   1      25.905  16.204   6.746  0.00  0.00    -0.333 OA
HETATM   47  H   UNK N   1      25.689  16.977   7.229  0.00  0.00     0.220 HD
ENDBRANCH  30  46
ENDBRANCH   1  29
TORSDOF 22
ENDMDL
