MODEL 1
REMARK VINA RESULT:      -4.5      0.000      0.000
REMARK  10 active torsions:
REMARK  status: ('A' for Active; 'I' for Inactive)
REMARK    1  A    between atoms: O_12  and  C_3 
REMARK    2  A    between atoms: O_13  and  C_4 
REMARK    3  A    between atoms: C_6  and  C_5 
REMARK    4  A    between atoms: O_14  and  C_5 
REMARK    5  A    between atoms: C_7  and  C_6 
REMARK    6  A    between atoms: C_6  and  N_8 
REMARK    7  A    between atoms: O_10  and  C_7 
REMARK    8  A    between atoms: P_15  and  O_12 
REMARK    9  A    between atoms: P_15  and  O_13 
REMARK   10  A    between atoms: P_15  and  O_14 
ROOT
HETATM    1  C   UNK N   1      34.671  14.755   8.695  0.00  0.00     0.216 C 
ENDROOT
BRANCH   1   2
HETATM    2  C   UNK N   1      34.843  14.895  10.205  0.00  0.00     0.198 C 
BRANCH   2   3
HETATM    3  C   UNK N   1      35.640  16.112  10.599  0.00  0.00     0.165 C 
HETATM    4  O   UNK N   1      36.837  16.008  10.811  0.00  0.00    -0.648 OA
BRANCH   3   5
HETATM    5  O   UNK N   1      35.050  17.319  10.711  0.00  0.00    -0.775 OA
HETATM    6  H   UNK N   1      34.298  17.466  11.251  0.00  0.00     0.167 HD
ENDBRANCH   3   5
ENDBRANCH   2   3
BRANCH   2   7
HETATM    7  N   UNK N   1      33.538  14.932  10.845  0.00  0.00    -0.416 N 
HETATM    8  H   UNK N   1      33.219  15.478  11.645  0.00  0.00     0.150 HD
HETATM    9  H   UNK N   1      32.835  14.320  10.430  0.00  0.00     0.150 HD
ENDBRANCH   2   7
ENDBRANCH   1   2
BRANCH   1  10
HETATM   10  O   UNK N   1      35.158  15.875   8.010  0.00  0.00    -0.290 OA
BRANCH  10  11
HETATM   11  P   UNK N   1      33.913  16.243   6.850  0.00  0.00     0.477 P 
HETATM   12  O   UNK N   1      35.144  15.908   5.965  0.00  0.00    -0.227 OA
BRANCH  11  13
HETATM   13  O   UNK N   1      34.021  17.622   5.784  0.00  0.00    -0.293 OA
BRANCH  13  14
HETATM   14  C   UNK N   1      33.510  17.192   4.550  0.00  0.00     0.176 C 
HETATM   15  C   UNK N   1      32.079  17.658   4.371  0.00  0.00     0.034 C 
ENDBRANCH  13  14
ENDBRANCH  11  13
BRANCH  11  16
HETATM   16  O   UNK N   1      34.233  17.649   7.830  0.00  0.00    -0.293 OA
BRANCH  16  17
HETATM   17  C   UNK N   1      32.986  18.261   8.004  0.00  0.00     0.176 C 
HETATM   18  C   UNK N   1      31.982  17.242   8.496  0.00  0.00     0.034 C 
ENDBRANCH  16  17
ENDBRANCH  11  16
ENDBRANCH  10  11
ENDBRANCH   1  10
TORSDOF 10
ENDMDL
MODEL 2
REMARK VINA RESULT:      -4.4     12.747     13.585
REMARK  10 active torsions:
REMARK  status: ('A' for Active; 'I' for Inactive)
REMARK    1  A    between atoms: O_12  and  C_3 
REMARK    2  A    between atoms: O_13  and  C_4 
REMARK    3  A    between atoms: C_6  and  C_5 
REMARK    4  A    between atoms: O_14  and  C_5 
REMARK    5  A    between atoms: C_7  and  C_6 
REMARK    6  A    between atoms: C_6  and  N_8 
REMARK    7  A    between atoms: O_10  and  C_7 
REMARK    8  A    between atoms: P_15  and  O_12 
REMARK    9  A    between atoms: P_15  and  O_13 
REMARK   10  A    between atoms: P_15  and  O_14 
ROOT
HETATM    1  C   UNK N   1      21.312  12.536  10.528  0.00  0.00     0.216 C 
ENDROOT
BRANCH   1   2
HETATM    2  C   UNK N   1      22.829  12.469  10.378  0.00  0.00     0.198 C 
BRANCH   2   3
HETATM    3  C   UNK N   1      23.538  12.144  11.667  0.00  0.00     0.165 C 
HETATM    4  O   UNK N   1      22.890  11.804  12.644  0.00  0.00    -0.648 OA
BRANCH   3   5
HETATM    5  O   UNK N   1      24.882  12.212  11.755  0.00  0.00    -0.775 OA
HETATM    6  H   UNK N   1      25.415  12.574  11.074  0.00  0.00     0.167 HD
ENDBRANCH   3   5
ENDBRANCH   2   3
BRANCH   2   7
HETATM    7  N   UNK N   1      23.177  11.487   9.363  0.00  0.00    -0.416 N 
HETATM    8  H   UNK N   1      23.248  11.592   8.350  0.00  0.00     0.150 HD
HETATM    9  H   UNK N   1      23.380  10.553   9.716  0.00  0.00     0.150 HD
ENDBRANCH   2   7
ENDBRANCH   1   2
BRANCH   1  10
HETATM   10  O   UNK N   1      20.676  12.739   9.297  0.00  0.00    -0.290 OA
BRANCH  10  11
HETATM   11  P   UNK N   1      20.633  14.470   9.116  0.00  0.00     0.477 P 
HETATM   12  O   UNK N   1      19.403  14.170  10.015  0.00  0.00    -0.227 OA
BRANCH  11  13
HETATM   13  O   UNK N   1      19.329  15.280   8.284  0.00  0.00    -0.293 OA
BRANCH  13  14
HETATM   14  C   UNK N   1      19.293  16.581   8.807  0.00  0.00     0.176 C 
HETATM   15  C   UNK N   1      17.864  17.074   8.921  0.00  0.00     0.034 C 
ENDBRANCH  13  14
ENDBRANCH  11  13
BRANCH  11  16
HETATM   16  O   UNK N   1      20.445  13.713   7.556  0.00  0.00    -0.293 OA
BRANCH  16  17
HETATM   17  C   UNK N   1      21.223  14.484   6.683  0.00  0.00     0.176 C 
HETATM   18  C   UNK N   1      22.623  14.624   7.238  0.00  0.00     0.034 C 
ENDBRANCH  16  17
ENDBRANCH  11  16
ENDBRANCH  10  11
ENDBRANCH   1  10
TORSDOF 10
ENDMDL
MODEL 3
REMARK VINA RESULT:      -4.3      4.299      7.273
REMARK  10 active torsions:
REMARK  status: ('A' for Active; 'I' for Inactive)
REMARK    1  A    between atoms: O_12  and  C_3 
REMARK    2  A    between atoms: O_13  and  C_4 
REMARK    3  A    between atoms: C_6  and  C_5 
REMARK    4  A    between atoms: O_14  and  C_5 
REMARK    5  A    between atoms: C_7  and  C_6 
REMARK    6  A    between atoms: C_6  and  N_8 
REMARK    7  A    between atoms: O_10  and  C_7 
REMARK    8  A    between atoms: P_15  and  O_12 
REMARK    9  A    between atoms: P_15  and  O_13 
REMARK   10  A    between atoms: P_15  and  O_14 
ROOT
HETATM    1  C   UNK N   1      35.059  14.164  11.819  0.00  0.00     0.216 C 
ENDROOT
BRANCH   1   2
HETATM    2  C   UNK N   1      34.616  15.326  10.934  0.00  0.00     0.198 C 
BRANCH   2   3
HETATM    3  C   UNK N   1      35.706  16.340  10.699  0.00  0.00     0.165 C 
HETATM    4  O   UNK N   1      35.419  17.450  10.282  0.00  0.00    -0.648 OA
BRANCH   3   5
HETATM    5  O   UNK N   1      36.996  16.041  10.953  0.00  0.00    -0.775 OA
HETATM    6  H   UNK N   1      37.650  16.699  11.087  0.00  0.00     0.167 HD
ENDBRANCH   3   5
ENDBRANCH   2   3
BRANCH   2   7
HETATM    7  N   UNK N   1      34.136  14.814   9.660  0.00  0.00    -0.416 N 
HETATM    8  H   UNK N   1      33.375  14.164   9.463  0.00  0.00     0.150 HD
HETATM    9  H   UNK N   1      34.635  15.157   8.840  0.00  0.00     0.150 HD
ENDBRANCH   2   7
ENDBRANCH   1   2
BRANCH   1  10
HETATM   10  O   UNK N   1      35.390  14.592  13.111  0.00  0.00    -0.290 OA
BRANCH  10  11
HETATM   11  P   UNK N   1      36.315  13.275  13.775  0.00  0.00     0.477 P 
HETATM   12  O   UNK N   1      36.876  13.420  12.335  0.00  0.00    -0.227 OA
BRANCH  11  13
HETATM   13  O   UNK N   1      36.201  11.652  13.141  0.00  0.00    -0.293 OA
BRANCH  13  14
HETATM   14  C   UNK N   1      37.521  11.195  13.022  0.00  0.00     0.176 C 
HETATM   15  C   UNK N   1      38.105  10.882  14.386  0.00  0.00     0.034 C 
ENDBRANCH  13  14
ENDBRANCH  11  13
BRANCH  11  16
HETATM   16  O   UNK N   1      34.627  12.840  13.729  0.00  0.00    -0.293 OA
BRANCH  16  17
HETATM   17  C   UNK N   1      34.419  12.069  14.880  0.00  0.00     0.176 C 
HETATM   18  C   UNK N   1      34.704  12.903  16.109  0.00  0.00     0.034 C 
ENDBRANCH  16  17
ENDBRANCH  11  16
ENDBRANCH  10  11
ENDBRANCH   1  10
TORSDOF 10
ENDMDL
MODEL 4
REMARK VINA RESULT:      -4.3      4.211      7.147
REMARK  10 active torsions:
REMARK  status: ('A' for Active; 'I' for Inactive)
REMARK    1  A    between atoms: O_12  and  C_3 
REMARK    2  A    between atoms: O_13  and  C_4 
REMARK    3  A    between atoms: C_6  and  C_5 
REMARK    4  A    between atoms: O_14  and  C_5 
REMARK    5  A    between atoms: C_7  and  C_6 
REMARK    6  A    between atoms: C_6  and  N_8 
REMARK    7  A    between atoms: O_10  and  C_7 
REMARK    8  A    between atoms: P_15  and  O_12 
REMARK    9  A    between atoms: P_15  and  O_13 
REMARK   10  A    between atoms: P_15  and  O_14 
ROOT
HETATM    1  C   UNK N   1      34.748  14.327  11.381  0.00  0.00     0.216 C 
ENDROOT
BRANCH   1   2
HETATM    2  C   UNK N   1      34.432  15.729  10.867  0.00  0.00     0.198 C 
BRANCH   2   3
HETATM    3  C   UNK N   1      35.665  16.557  10.610  0.00  0.00     0.165 C 
HETATM    4  O   UNK N   1      35.554  17.669  10.121  0.00  0.00    -0.648 OA
BRANCH   3   5
HETATM    5  O   UNK N   1      36.890  16.089  10.923  0.00  0.00    -0.775 OA
HETATM    6  H   UNK N   1      37.069  15.176  11.037  0.00  0.00     0.167 HD
ENDBRANCH   3   5
ENDBRANCH   2   3
BRANCH   2   7
HETATM    7  N   UNK N   1      33.639  15.636   9.652  0.00  0.00    -0.416 N 
HETATM    8  H   UNK N   1      32.666  15.355   9.528  0.00  0.00     0.150 HD
HETATM    9  H   UNK N   1      34.129  15.890   8.795  0.00  0.00     0.150 HD
ENDBRANCH   2   7
ENDBRANCH   1   2
BRANCH   1  10
HETATM   10  O   UNK N   1      34.872  14.301  12.776  0.00  0.00    -0.290 OA
BRANCH  10  11
HETATM   11  P   UNK N   1      36.055  13.059  13.078  0.00  0.00     0.477 P 
HETATM   12  O   UNK N   1      35.024  12.358  12.153  0.00  0.00    -0.227 OA
BRANCH  11  13
HETATM   13  O   UNK N   1      35.661  11.602  13.957  0.00  0.00    -0.293 OA
BRANCH  13  14
HETATM   14  C   UNK N   1      34.388  11.220  13.511  0.00  0.00     0.176 C 
HETATM   15  C   UNK N   1      33.561  10.671  14.657  0.00  0.00     0.034 C 
ENDBRANCH  13  14
ENDBRANCH  11  13
BRANCH  11  16
HETATM   16  O   UNK N   1      35.302  13.530  14.580  0.00  0.00    -0.293 OA
BRANCH  16  17
HETATM   17  C   UNK N   1      36.325  13.463  15.534  0.00  0.00     0.176 C 
HETATM   18  C   UNK N   1      37.116  14.752  15.524  0.00  0.00     0.034 C 
ENDBRANCH  16  17
ENDBRANCH  11  16
ENDBRANCH  10  11
ENDBRANCH   1  10
TORSDOF 10
ENDMDL
MODEL 5
REMARK VINA RESULT:      -4.2     13.463     14.567
REMARK  10 active torsions:
REMARK  status: ('A' for Active; 'I' for Inactive)
REMARK    1  A    between atoms: O_12  and  C_3 
REMARK    2  A    between atoms: O_13  and  C_4 
REMARK    3  A    between atoms: C_6  and  C_5 
REMARK    4  A    between atoms: O_14  and  C_5 
REMARK    5  A    between atoms: C_7  and  C_6 
REMARK    6  A    between atoms: C_6  and  N_8 
REMARK    7  A    between atoms: O_10  and  C_7 
REMARK    8  A    between atoms: P_15  and  O_12 
REMARK    9  A    between atoms: P_15  and  O_13 
REMARK   10  A    between atoms: P_15  and  O_14 
ROOT
HETATM    1  C   UNK N   1      19.425  16.118   8.887  0.00  0.00     0.216 C 
ENDROOT
BRANCH   1   2
HETATM    2  C   UNK N   1      18.820  17.424   9.395  0.00  0.00     0.198 C 
BRANCH   2   3
HETATM    3  C   UNK N   1      19.723  18.613   9.191  0.00  0.00     0.165 C 
HETATM    4  O   UNK N   1      19.861  19.428  10.089  0.00  0.00    -0.648 OA
BRANCH   3   5
HETATM    5  O   UNK N   1      20.389  18.786   8.031  0.00  0.00    -0.775 OA
HETATM    6  H   UNK N   1      20.651  19.630   7.720  0.00  0.00     0.167 HD
ENDBRANCH   3   5
ENDBRANCH   2   3
BRANCH   2   7
HETATM    7  N   UNK N   1      17.542  17.658   8.741  0.00  0.00    -0.416 N 
HETATM    8  H   UNK N   1      16.601  17.388   9.031  0.00  0.00     0.150 HD
HETATM    9  H   UNK N   1      17.593  18.168   7.860  0.00  0.00     0.150 HD
ENDBRANCH   2   7
ENDBRANCH   1   2
BRANCH   1  10
HETATM   10  O   UNK N   1      20.821  16.118   8.988  0.00  0.00    -0.290 OA
BRANCH  10  11
HETATM   11  P   UNK N   1      21.324  14.786   7.987  0.00  0.00     0.477 P 
HETATM   12  O   UNK N   1      20.377  15.596   7.061  0.00  0.00    -0.227 OA
BRANCH  11  13
HETATM   13  O   UNK N   1      20.198  13.579   7.419  0.00  0.00    -0.293 OA
BRANCH  13  14
HETATM   14  C   UNK N   1      20.640  13.216   6.138  0.00  0.00     0.176 C 
HETATM   15  C   UNK N   1      20.721  11.709   6.006  0.00  0.00     0.034 C 
ENDBRANCH  13  14
ENDBRANCH  11  13
BRANCH  11  16
HETATM   16  O   UNK N   1      20.451  14.181   9.370  0.00  0.00    -0.293 OA
BRANCH  16  17
HETATM   17  C   UNK N   1      21.121  13.007   9.736  0.00  0.00     0.176 C 
HETATM   18  C   UNK N   1      22.573  13.317  10.021  0.00  0.00     0.034 C 
ENDBRANCH  16  17
ENDBRANCH  11  16
ENDBRANCH  10  11
ENDBRANCH   1  10
TORSDOF 10
ENDMDL
MODEL 6
REMARK VINA RESULT:      -4.1     12.255     13.033
REMARK  10 active torsions:
REMARK  status: ('A' for Active; 'I' for Inactive)
REMARK    1  A    between atoms: O_12  and  C_3 
REMARK    2  A    between atoms: O_13  and  C_4 
REMARK    3  A    between atoms: C_6  and  C_5 
REMARK    4  A    between atoms: O_14  and  C_5 
REMARK    5  A    between atoms: C_7  and  C_6 
REMARK    6  A    between atoms: C_6  and  N_8 
REMARK    7  A    between atoms: O_10  and  C_7 
REMARK    8  A    between atoms: P_15  and  O_12 
REMARK    9  A    between atoms: P_15  and  O_13 
REMARK   10  A    between atoms: P_15  and  O_14 
ROOT
HETATM    1  C   UNK N   1      21.702  12.877  10.519  0.00  0.00     0.216 C 
ENDROOT
BRANCH   1   2
HETATM    2  C   UNK N   1      22.722  11.851  11.005  0.00  0.00     0.198 C 
BRANCH   2   3
HETATM    3  C   UNK N   1      24.146  12.246  10.709  0.00  0.00     0.165 C 
HETATM    4  O   UNK N   1      24.473  12.513   9.564  0.00  0.00    -0.648 OA
BRANCH   3   5
HETATM    5  O   UNK N   1      25.064  12.319  11.694  0.00  0.00    -0.775 OA
HETATM    6  H   UNK N   1      25.713  11.657  11.831  0.00  0.00     0.167 HD
ENDBRANCH   3   5
ENDBRANCH   2   3
BRANCH   2   7
HETATM    7  N   UNK N   1      22.558  11.638  12.435  0.00  0.00    -0.416 N 
HETATM    8  H   UNK N   1      23.035  10.984  13.056  0.00  0.00     0.150 HD
HETATM    9  H   UNK N   1      21.860  12.230  12.883  0.00  0.00     0.150 HD
ENDBRANCH   2   7
ENDBRANCH   1   2
BRANCH   1  10
HETATM   10  O   UNK N   1      21.051  12.450   9.356  0.00  0.00    -0.290 OA
BRANCH  10  11
HETATM   11  P   UNK N   1      21.148  13.817   8.282  0.00  0.00     0.477 P 
HETATM   12  O   UNK N   1      19.909  14.136   9.161  0.00  0.00    -0.227 OA
BRANCH  11  13
HETATM   13  O   UNK N   1      19.906  14.159   7.104  0.00  0.00    -0.293 OA
BRANCH  13  14
HETATM   14  C   UNK N   1      20.205  15.429   6.590  0.00  0.00     0.176 C 
HETATM   15  C   UNK N   1      21.703  15.665   6.585  0.00  0.00     0.034 C 
ENDBRANCH  13  14
ENDBRANCH  11  13
BRANCH  11  16
HETATM   16  O   UNK N   1      20.880  12.364   7.356  0.00  0.00    -0.293 OA
BRANCH  16  17
HETATM   17  C   UNK N   1      22.155  11.956   6.945  0.00  0.00     0.176 C 
HETATM   18  C   UNK N   1      22.173  11.780   5.443  0.00  0.00     0.034 C 
ENDBRANCH  16  17
ENDBRANCH  11  16
ENDBRANCH  10  11
ENDBRANCH   1  10
TORSDOF 10
ENDMDL
MODEL 7
REMARK VINA RESULT:      -4.1      4.068      7.158
REMARK  10 active torsions:
REMARK  status: ('A' for Active; 'I' for Inactive)
REMARK    1  A    between atoms: O_12  and  C_3 
REMARK    2  A    between atoms: O_13  and  C_4 
REMARK    3  A    between atoms: C_6  and  C_5 
REMARK    4  A    between atoms: O_14  and  C_5 
REMARK    5  A    between atoms: C_7  and  C_6 
REMARK    6  A    between atoms: C_6  and  N_8 
REMARK    7  A    between atoms: O_10  and  C_7 
REMARK    8  A    between atoms: P_15  and  O_12 
REMARK    9  A    between atoms: P_15  and  O_13 
REMARK   10  A    between atoms: P_15  and  O_14 
ROOT
HETATM    1  C   UNK N   1      36.132  14.789  10.676  0.00  0.00     0.216 C 
ENDROOT
BRANCH   1   2
HETATM    2  C   UNK N   1      35.086  15.667   9.994  0.00  0.00     0.198 C 
BRANCH   2   3
HETATM    3  C   UNK N   1      33.711  15.052   9.987  0.00  0.00     0.165 C 
HETATM    4  O   UNK N   1      33.236  14.644   8.940  0.00  0.00    -0.648 OA
BRANCH   3   5
HETATM    5  O   UNK N   1      32.999  14.936  11.126  0.00  0.00    -0.775 OA
HETATM    6  H   UNK N   1      33.351  15.156  11.967  0.00  0.00     0.167 HD
ENDBRANCH   3   5
ENDBRANCH   2   3
BRANCH   2   7
HETATM    7  N   UNK N   1      35.042  16.968  10.643  0.00  0.00    -0.416 N 
HETATM    8  H   UNK N   1      35.779  17.662  10.766  0.00  0.00     0.150 HD
HETATM    9  H   UNK N   1      34.136  17.225  11.036  0.00  0.00     0.150 HD
ENDBRANCH   2   7
ENDBRANCH   1   2
BRANCH   1  10
HETATM   10  O   UNK N   1      35.541  13.785  11.452  0.00  0.00    -0.290 OA
BRANCH  10  11
HETATM   11  P   UNK N   1      36.087  14.118  13.071  0.00  0.00     0.477 P 
HETATM   12  O   UNK N   1      37.240  13.271  12.469  0.00  0.00    -0.227 OA
BRANCH  11  13
HETATM   13  O   UNK N   1      36.306  12.850  14.252  0.00  0.00    -0.293 OA
BRANCH  13  14
HETATM   14  C   UNK N   1      36.484  13.500  15.482  0.00  0.00     0.176 C 
HETATM   15  C   UNK N   1      35.514  12.964  16.517  0.00  0.00     0.034 C 
ENDBRANCH  13  14
ENDBRANCH  11  13
BRANCH  11  16
HETATM   16  O   UNK N   1      34.614  13.185  13.129  0.00  0.00    -0.293 OA
BRANCH  16  17
HETATM   17  C   UNK N   1      34.959  11.931  12.609  0.00  0.00     0.176 C 
HETATM   18  C   UNK N   1      34.078  10.866  13.223  0.00  0.00     0.034 C 
ENDBRANCH  16  17
ENDBRANCH  11  16
ENDBRANCH  10  11
ENDBRANCH   1  10
TORSDOF 10
ENDMDL
MODEL 8
REMARK VINA RESULT:      -4.0      4.222      7.397
REMARK  10 active torsions:
REMARK  status: ('A' for Active; 'I' for Inactive)
REMARK    1  A    between atoms: O_12  and  C_3 
REMARK    2  A    between atoms: O_13  and  C_4 
REMARK    3  A    between atoms: C_6  and  C_5 
REMARK    4  A    between atoms: O_14  and  C_5 
REMARK    5  A    between atoms: C_7  and  C_6 
REMARK    6  A    between atoms: C_6  and  N_8 
REMARK    7  A    between atoms: O_10  and  C_7 
REMARK    8  A    between atoms: P_15  and  O_12 
REMARK    9  A    between atoms: P_15  and  O_13 
REMARK   10  A    between atoms: P_15  and  O_14 
ROOT
HETATM    1  C   UNK N   1      35.095  13.975  11.056  0.00  0.00     0.216 C 
ENDROOT
BRANCH   1   2
HETATM    2  C   UNK N   1      34.653  15.435  11.063  0.00  0.00     0.198 C 
BRANCH   2   3
HETATM    3  C   UNK N   1      35.767  16.393  10.727  0.00  0.00     0.165 C 
HETATM    4  O   UNK N   1      35.499  17.513  10.323  0.00  0.00    -0.648 OA
BRANCH   3   5
HETATM    5  O   UNK N   1      37.057  16.033  10.875  0.00  0.00    -0.775 OA
HETATM    6  H   UNK N   1      37.323  15.142  10.996  0.00  0.00     0.167 HD
ENDBRANCH   3   5
ENDBRANCH   2   3
BRANCH   2   7
HETATM    7  N   UNK N   1      33.549  15.616  10.133  0.00  0.00    -0.416 N 
HETATM    8  H   UNK N   1      32.650  15.136  10.086  0.00  0.00     0.150 HD
HETATM    9  H   UNK N   1      33.697  16.330   9.420  0.00  0.00     0.150 HD
ENDBRANCH   2   7
ENDBRANCH   1   2
BRANCH   1  10
HETATM   10  O   UNK N   1      35.961  13.689  12.119  0.00  0.00    -0.290 OA
BRANCH  10  11
HETATM   11  P   UNK N   1      35.137  12.450  13.023  0.00  0.00     0.477 P 
HETATM   12  O   UNK N   1      35.048  13.693  13.950  0.00  0.00    -0.227 OA
BRANCH  11  13
HETATM   13  O   UNK N   1      35.750  11.853  14.545  0.00  0.00    -0.293 OA
BRANCH  13  14
HETATM   14  C   UNK N   1      34.623  11.613  15.344  0.00  0.00     0.176 C 
HETATM   15  C   UNK N   1      33.652  10.688  14.636  0.00  0.00     0.034 C 
ENDBRANCH  13  14
ENDBRANCH  11  13
BRANCH  11  16
HETATM   16  O   UNK N   1      36.801  11.989  12.781  0.00  0.00    -0.293 OA
BRANCH  16  17
HETATM   17  C   UNK N   1      36.748  10.670  12.314  0.00  0.00     0.176 C 
HETATM   18  C   UNK N   1      37.717  10.497  11.166  0.00  0.00     0.034 C 
ENDBRANCH  16  17
ENDBRANCH  11  16
ENDBRANCH  10  11
ENDBRANCH   1  10
TORSDOF 10
ENDMDL
MODEL 9
REMARK VINA RESULT:      -4.0     14.586     17.262
REMARK  10 active torsions:
REMARK  status: ('A' for Active; 'I' for Inactive)
REMARK    1  A    between atoms: O_12  and  C_3 
REMARK    2  A    between atoms: O_13  and  C_4 
REMARK    3  A    between atoms: C_6  and  C_5 
REMARK    4  A    between atoms: O_14  and  C_5 
REMARK    5  A    between atoms: C_7  and  C_6 
REMARK    6  A    between atoms: C_6  and  N_8 
REMARK    7  A    between atoms: O_10  and  C_7 
REMARK    8  A    between atoms: P_15  and  O_12 
REMARK    9  A    between atoms: P_15  and  O_13 
REMARK   10  A    between atoms: P_15  and  O_14 
ROOT
HETATM    1  C   UNK N   1      28.531  24.012  -5.105  0.00  0.00     0.216 C 
ENDROOT
BRANCH   1   2
HETATM    2  C   UNK N   1      28.812  24.337  -3.641  0.00  0.00     0.198 C 
BRANCH   2   3
HETATM    3  C   UNK N   1      27.747  23.825  -2.705  0.00  0.00     0.165 C 
HETATM    4  O   UNK N   1      28.058  23.095  -1.778  0.00  0.00    -0.648 OA
BRANCH   3   5
HETATM    5  O   UNK N   1      26.455  24.170  -2.873  0.00  0.00    -0.775 OA
HETATM    6  H   UNK N   1      25.807  23.569  -3.185  0.00  0.00     0.167 HD
ENDBRANCH   3   5
ENDBRANCH   2   3
BRANCH   2   7
HETATM    7  N   UNK N   1      30.106  23.793  -3.259  0.00  0.00    -0.416 N 
HETATM    8  H   UNK N   1      30.816  24.176  -2.634  0.00  0.00     0.150 HD
HETATM    9  H   UNK N   1      30.339  22.894  -3.679  0.00  0.00     0.150 HD
ENDBRANCH   2   7
ENDBRANCH   1   2
BRANCH   1  10
HETATM   10  O   UNK N   1      27.397  24.683  -5.578  0.00  0.00    -0.290 OA
BRANCH  10  11
HETATM   11  P   UNK N   1      26.481  23.452  -6.401  0.00  0.00     0.477 P 
HETATM   12  O   UNK N   1      27.284  24.131  -7.544  0.00  0.00    -0.227 OA
BRANCH  11  13
HETATM   13  O   UNK N   1      25.248  23.846  -7.573  0.00  0.00    -0.293 OA
BRANCH  13  14
HETATM   14  C   UNK N   1      25.086  22.695  -8.358  0.00  0.00     0.176 C 
HETATM   15  C   UNK N   1      24.833  21.482  -7.486  0.00  0.00     0.034 C 
ENDBRANCH  13  14
ENDBRANCH  11  13
BRANCH  11  16
HETATM   16  O   UNK N   1      25.392  24.596  -5.662  0.00  0.00    -0.293 OA
BRANCH  16  17
HETATM   17  C   UNK N   1      25.600  25.795  -6.355  0.00  0.00     0.176 C 
HETATM   18  C   UNK N   1      24.807  26.904  -5.703  0.00  0.00     0.034 C 
ENDBRANCH  16  17
ENDBRANCH  11  16
ENDBRANCH  10  11
ENDBRANCH   1  10
TORSDOF 10
ENDMDL
