MODEL 1
REMARK VINA RESULT:      -6.2      0.000      0.000
REMARK  12 active torsions:
REMARK  status: ('A' for Active; 'I' for Inactive)
REMARK    1  A    between atoms: C_2  and  C_1 
REMARK    2  A    between atoms: O_16  and  C_1 
REMARK    3  A    between atoms: C_3  and  C_2 
REMARK    4  A    between atoms: C_2  and  O_8 
REMARK    5  A    between atoms: C_4  and  C_3 
REMARK    6  A    between atoms: C_3  and  O_9 
REMARK    7  A    between atoms: C_5  and  C_4 
REMARK    8  A    between atoms: O_11  and  C_5 
REMARK    9  A    between atoms: N_6  and  O_12 
REMARK   10  A    between atoms: P_17  and  O_13 
REMARK   11  A    between atoms: P_17  and  O_14 
REMARK   12  A    between atoms: P_17  and  O_16 
ROOT
HETATM    1  C   UNK N   1      35.478  13.600  12.386  0.00  0.00     0.225 C 
HETATM    2  O   UNK N   1      34.365  12.962  12.942  0.00  0.00    -0.385 OA
HETATM    3  H   UNK N   1      33.640  12.419  13.289  0.00  0.00     0.210 HD
ENDROOT
BRANCH   1   4
HETATM    4  C   UNK N   1      35.065  14.939  11.731  0.00  0.00     0.185 C 
BRANCH   4   5
HETATM    5  C   UNK N   1      35.942  15.262  10.512  0.00  0.00     0.174 C 
BRANCH   5   6
HETATM    6  C   UNK N   1      35.098  15.841   9.394  0.00  0.00     0.215 C 
BRANCH   6   7
HETATM    7  O   UNK N   1      34.774  17.165   9.689  0.00  0.00    -0.294 OA
BRANCH   7   8
HETATM    8  P   UNK N   1      34.038  17.785   8.242  0.00  0.00     0.390 P 
HETATM    9  O   UNK N   1      32.791  18.700   8.382  0.00  0.00    -0.632 OA
BRANCH   8  10
HETATM   10  O   UNK N   1      34.678  17.569   6.644  0.00  0.00    -0.307 OA
HETATM   11  H   UNK N   1      34.520  18.020   5.800  0.00  0.00     0.222 HD
ENDBRANCH   8  10
BRANCH   8  12
HETATM   12  O   UNK N   1      35.060  19.157   8.411  0.00  0.00    -0.307 OA
HETATM   13  H   UNK N   1      35.963  19.358   8.702  0.00  0.00     0.222 HD
ENDBRANCH   8  12
ENDBRANCH   7   8
ENDBRANCH   6   7
ENDBRANCH   5   6
BRANCH   5  14
HETATM   14  O   UNK N   1      36.947  16.174  10.847  0.00  0.00    -0.391 OA
HETATM   15  H   UNK N   1      37.328  16.192  11.739  0.00  0.00     0.210 HD
ENDBRANCH   5  14
ENDBRANCH   4   5
BRANCH   4  16
HETATM   16  O   UNK N   1      33.729  14.885  11.316  0.00  0.00    -0.390 OA
HETATM   17  H   UNK N   1      33.495  14.842  10.376  0.00  0.00     0.210 HD
ENDBRANCH   4  16
ENDBRANCH   1   4
BRANCH   1  18
HETATM   18  C   UNK N   1      36.512  13.780  13.459  0.00  0.00     0.167 C 
HETATM   19  N   UNK N   1      36.691  14.939  14.003  0.00  0.00    -0.249 N 
ATOM     20  HN  UNK N   1      36.140  15.733  13.679  1.00  0.00     0.196 HD
BRANCH  19  21
HETATM   21  O   UNK N   1      37.566  15.115  14.960  0.00  0.00    -0.288 OA
HETATM   22  H   UNK N   1      37.327  15.524  15.768  0.00  0.00     0.244 HD
ENDBRANCH  19  21
BRANCH  18  23
HETATM   23  O   UNK N   1      37.235  12.721  13.885  0.00  0.00    -0.346 OA
HETATM   24  H   UNK N   1      38.092  12.457  13.614  0.00  0.00     0.219 HD
ENDBRANCH  18  23
ENDBRANCH   1  18
TORSDOF 12
ENDMDL
MODEL 2
REMARK VINA RESULT:      -5.8      2.454      3.563
REMARK  12 active torsions:
REMARK  status: ('A' for Active; 'I' for Inactive)
REMARK    1  A    between atoms: C_2  and  C_1 
REMARK    2  A    between atoms: O_16  and  C_1 
REMARK    3  A    between atoms: C_3  and  C_2 
REMARK    4  A    between atoms: C_2  and  O_8 
REMARK    5  A    between atoms: C_4  and  C_3 
REMARK    6  A    between atoms: C_3  and  O_9 
REMARK    7  A    between atoms: C_5  and  C_4 
REMARK    8  A    between atoms: O_11  and  C_5 
REMARK    9  A    between atoms: N_6  and  O_12 
REMARK   10  A    between atoms: P_17  and  O_13 
REMARK   11  A    between atoms: P_17  and  O_14 
REMARK   12  A    between atoms: P_17  and  O_16 
ROOT
HETATM    1  C   UNK N   1      34.368  14.626  10.794  0.00  0.00     0.225 C 
HETATM    2  O   UNK N   1      33.096  15.119  11.099  0.00  0.00    -0.385 OA
HETATM    3  H   UNK N   1      32.240  15.440  11.423  0.00  0.00     0.210 HD
ENDROOT
BRANCH   1   4
HETATM    4  C   UNK N   1      34.327  13.788   9.494  0.00  0.00     0.185 C 
BRANCH   4   5
HETATM    5  C   UNK N   1      33.005  13.990   8.739  0.00  0.00     0.174 C 
BRANCH   5   6
HETATM    6  C   UNK N   1      33.186  14.993   7.617  0.00  0.00     0.215 C 
BRANCH   6   7
HETATM    7  O   UNK N   1      32.964  16.282   8.101  0.00  0.00    -0.294 OA
BRANCH   7   8
HETATM    8  P   UNK N   1      33.711  17.338   6.940  0.00  0.00     0.390 P 
HETATM    9  O   UNK N   1      34.654  18.457   7.459  0.00  0.00    -0.632 OA
BRANCH   8  10
HETATM   10  O   UNK N   1      33.588  17.150   5.220  0.00  0.00    -0.307 OA
HETATM   11  H   UNK N   1      32.944  17.458   4.563  0.00  0.00     0.222 HD
ENDBRANCH   8  10
BRANCH   8  12
HETATM   12  O   UNK N   1      35.033  16.239   6.916  0.00  0.00    -0.307 OA
HETATM   13  H   UNK N   1      36.002  16.270   6.933  0.00  0.00     0.222 HD
ENDBRANCH   8  12
ENDBRANCH   7   8
ENDBRANCH   6   7
ENDBRANCH   5   6
BRANCH   5  14
HETATM   14  O   UNK N   1      32.545  12.783   8.205  0.00  0.00    -0.391 OA
HETATM   15  H   UNK N   1      33.115  12.237   7.641  0.00  0.00     0.210 HD
ENDBRANCH   5  14
ENDBRANCH   4   5
BRANCH   4  16
HETATM   16  O   UNK N   1      35.383  14.151   8.649  0.00  0.00    -0.390 OA
HETATM   17  H   UNK N   1      35.266  14.191   7.687  0.00  0.00     0.210 HD
ENDBRANCH   4  16
ENDBRANCH   1   4
BRANCH   1  18
HETATM   18  C   UNK N   1      35.320  15.783  10.702  0.00  0.00     0.167 C 
HETATM   19  N   UNK N   1      34.931  16.909  10.202  0.00  0.00    -0.249 N 
ATOM     20  HN  UNK N   1      33.977  16.995   9.849  1.00  0.00     0.196 HD
BRANCH  19  21
HETATM   21  O   UNK N   1      35.732  17.940  10.136  0.00  0.00    -0.288 OA
HETATM   22  H   UNK N   1      36.280  18.177  10.858  0.00  0.00     0.244 HD
ENDBRANCH  19  21
BRANCH  18  23
HETATM   23  O   UNK N   1      36.581  15.661  11.175  0.00  0.00    -0.346 OA
HETATM   24  H   UNK N   1      36.932  14.984  11.719  0.00  0.00     0.219 HD
ENDBRANCH  18  23
ENDBRANCH   1  18
TORSDOF 12
ENDMDL
MODEL 3
REMARK VINA RESULT:      -5.8     16.577     18.228
REMARK  12 active torsions:
REMARK  status: ('A' for Active; 'I' for Inactive)
REMARK    1  A    between atoms: C_2  and  C_1 
REMARK    2  A    between atoms: O_16  and  C_1 
REMARK    3  A    between atoms: C_3  and  C_2 
REMARK    4  A    between atoms: C_2  and  O_8 
REMARK    5  A    between atoms: C_4  and  C_3 
REMARK    6  A    between atoms: C_3  and  O_9 
REMARK    7  A    between atoms: C_5  and  C_4 
REMARK    8  A    between atoms: O_11  and  C_5 
REMARK    9  A    between atoms: N_6  and  O_12 
REMARK   10  A    between atoms: P_17  and  O_13 
REMARK   11  A    between atoms: P_17  and  O_14 
REMARK   12  A    between atoms: P_17  and  O_16 
ROOT
HETATM    1  C   UNK N   1      19.711  19.602   3.024  0.00  0.00     0.225 C 
HETATM    2  O   UNK N   1      18.650  19.025   2.319  0.00  0.00    -0.385 OA
HETATM    3  H   UNK N   1      17.849  18.717   1.866  0.00  0.00     0.210 HD
ENDROOT
BRANCH   1   4
HETATM    4  C   UNK N   1      20.556  18.509   3.719  0.00  0.00     0.185 C 
BRANCH   4   5
HETATM    5  C   UNK N   1      19.986  17.107   3.456  0.00  0.00     0.174 C 
BRANCH   5   6
HETATM    6  C   UNK N   1      21.057  16.055   3.664  0.00  0.00     0.215 C 
BRANCH   6   7
HETATM    7  O   UNK N   1      21.657  15.750   2.443  0.00  0.00    -0.294 OA
BRANCH   7   8
HETATM    8  P   UNK N   1      20.351  15.693   1.297  0.00  0.00     0.390 P 
HETATM    9  O   UNK N   1      20.417  16.626   0.057  0.00  0.00    -0.632 OA
BRANCH   8  10
HETATM   10  O   UNK N   1      19.033  14.567   1.364  0.00  0.00    -0.307 OA
HETATM   11  H   UNK N   1      18.160  14.594   1.784  0.00  0.00     0.222 HD
ENDBRANCH   8  10
BRANCH   8  12
HETATM   12  O   UNK N   1      21.258  14.505   0.449  0.00  0.00    -0.307 OA
HETATM   13  H   UNK N   1      22.094  14.022   0.548  0.00  0.00     0.222 HD
ENDBRANCH   8  12
ENDBRANCH   7   8
ENDBRANCH   6   7
ENDBRANCH   5   6
BRANCH   5  14
HETATM   14  O   UNK N   1      18.909  16.839   4.305  0.00  0.00    -0.391 OA
HETATM   15  H   UNK N   1      18.244  17.518   4.499  0.00  0.00     0.210 HD
ENDBRANCH   5  14
ENDBRANCH   4   5
BRANCH   4  16
HETATM   16  O   UNK N   1      21.876  18.546   3.254  0.00  0.00    -0.390 OA
HETATM   17  H   UNK N   1      22.206  19.295   2.732  0.00  0.00     0.210 HD
ENDBRANCH   4  16
ENDBRANCH   1   4
BRANCH   1  18
HETATM   18  C   UNK N   1      20.519  20.436   2.074  0.00  0.00     0.167 C 
HETATM   19  N   UNK N   1      20.452  20.224   0.801  0.00  0.00    -0.249 N 
ATOM     20  HN  UNK N   1      19.861  19.469   0.451  1.00  0.00     0.196 HD
BRANCH  19  21
HETATM   21  O   UNK N   1      21.125  20.955  -0.050  0.00  0.00    -0.288 OA
HETATM   22  H   UNK N   1      21.964  20.685  -0.365  0.00  0.00     0.244 HD
ENDBRANCH  19  21
BRANCH  18  23
HETATM   23  O   UNK N   1      21.296  21.437   2.545  0.00  0.00    -0.346 OA
HETATM   24  H   UNK N   1      22.209  21.581   2.395  0.00  0.00     0.219 HD
ENDBRANCH  18  23
ENDBRANCH   1  18
TORSDOF 12
ENDMDL
MODEL 4
REMARK VINA RESULT:      -5.8     14.707     17.502
REMARK  12 active torsions:
REMARK  status: ('A' for Active; 'I' for Inactive)
REMARK    1  A    between atoms: C_2  and  C_1 
REMARK    2  A    between atoms: O_16  and  C_1 
REMARK    3  A    between atoms: C_3  and  C_2 
REMARK    4  A    between atoms: C_2  and  O_8 
REMARK    5  A    between atoms: C_4  and  C_3 
REMARK    6  A    between atoms: C_3  and  O_9 
REMARK    7  A    between atoms: C_5  and  C_4 
REMARK    8  A    between atoms: O_11  and  C_5 
REMARK    9  A    between atoms: N_6  and  O_12 
REMARK   10  A    between atoms: P_17  and  O_13 
REMARK   11  A    between atoms: P_17  and  O_14 
REMARK   12  A    between atoms: P_17  and  O_16 
ROOT
HETATM    1  C   UNK N   1      20.736  19.246   2.893  0.00  0.00     0.225 C 
HETATM    2  O   UNK N   1      20.301  19.717   4.135  0.00  0.00    -0.385 OA
HETATM    3  H   UNK N   1      20.111  20.041   5.030  0.00  0.00     0.210 HD
ENDROOT
BRANCH   1   4
HETATM    4  C   UNK N   1      19.738  18.211   2.326  0.00  0.00     0.185 C 
BRANCH   4   5
HETATM    5  C   UNK N   1      19.833  16.871   3.072  0.00  0.00     0.174 C 
BRANCH   5   6
HETATM    6  C   UNK N   1      21.253  16.633   3.546  0.00  0.00     0.215 C 
BRANCH   6   7
HETATM    7  O   UNK N   1      21.233  16.106   4.837  0.00  0.00    -0.294 OA
BRANCH   7   8
HETATM    8  P   UNK N   1      22.343  17.087   5.745  0.00  0.00     0.390 P 
HETATM    9  O   UNK N   1      21.798  18.362   6.445  0.00  0.00    -0.632 OA
BRANCH   8  10
HETATM   10  O   UNK N   1      24.001  16.675   6.045  0.00  0.00    -0.307 OA
HETATM   11  H   UNK N   1      24.460  16.283   6.804  0.00  0.00     0.222 HD
ENDBRANCH   8  10
BRANCH   8  12
HETATM   12  O   UNK N   1      21.913  16.151   7.122  0.00  0.00    -0.307 OA
HETATM   13  H   UNK N   1      21.236  15.505   7.377  0.00  0.00     0.222 HD
ENDBRANCH   8  12
ENDBRANCH   7   8
ENDBRANCH   6   7
ENDBRANCH   5   6
BRANCH   5  14
HETATM   14  O   UNK N   1      18.972  16.850   4.172  0.00  0.00    -0.391 OA
HETATM   15  H   UNK N   1      19.319  16.826   5.077  0.00  0.00     0.210 HD
ENDBRANCH   5  14
ENDBRANCH   4   5
BRANCH   4  16
HETATM   16  O   UNK N   1      18.426  18.689   2.436  0.00  0.00    -0.390 OA
HETATM   17  H   UNK N   1      17.706  18.311   1.908  0.00  0.00     0.210 HD
ENDBRANCH   4  16
ENDBRANCH   1   4
BRANCH   1  18
HETATM   18  C   UNK N   1      20.929  20.420   1.978  0.00  0.00     0.167 C 
HETATM   19  N   UNK N   1      20.545  20.356   0.746  0.00  0.00    -0.249 N 
ATOM     20  HN  UNK N   1      20.131  19.492   0.397  1.00  0.00     0.196 HD
BRANCH  19  21
HETATM   21  O   UNK N   1      20.676  21.375  -0.064  0.00  0.00    -0.288 OA
HETATM   22  H   UNK N   1      20.004  22.023  -0.143  0.00  0.00     0.244 HD
ENDBRANCH  19  21
BRANCH  18  23
HETATM   23  O   UNK N   1      21.476  21.563   2.451  0.00  0.00    -0.346 OA
HETATM   24  H   UNK N   1      22.259  21.991   2.168  0.00  0.00     0.219 HD
ENDBRANCH  18  23
ENDBRANCH   1  18
TORSDOF 12
ENDMDL
MODEL 5
REMARK VINA RESULT:      -5.7     16.385     18.319
REMARK  12 active torsions:
REMARK  status: ('A' for Active; 'I' for Inactive)
REMARK    1  A    between atoms: C_2  and  C_1 
REMARK    2  A    between atoms: O_16  and  C_1 
REMARK    3  A    between atoms: C_3  and  C_2 
REMARK    4  A    between atoms: C_2  and  O_8 
REMARK    5  A    between atoms: C_4  and  C_3 
REMARK    6  A    between atoms: C_3  and  O_9 
REMARK    7  A    between atoms: C_5  and  C_4 
REMARK    8  A    between atoms: O_11  and  C_5 
REMARK    9  A    between atoms: N_6  and  O_12 
REMARK   10  A    between atoms: P_17  and  O_13 
REMARK   11  A    between atoms: P_17  and  O_14 
REMARK   12  A    between atoms: P_17  and  O_16 
ROOT
HETATM    1  C   UNK N   1      21.006  19.628   2.686  0.00  0.00     0.225 C 
HETATM    2  O   UNK N   1      20.497  20.274   3.817  0.00  0.00    -0.385 OA
HETATM    3  H   UNK N   1      20.253  20.765   4.618  0.00  0.00     0.210 HD
ENDROOT
BRANCH   1   4
HETATM    4  C   UNK N   1      20.387  18.218   2.544  0.00  0.00     0.185 C 
BRANCH   4   5
HETATM    5  C   UNK N   1      20.634  17.368   3.799  0.00  0.00     0.174 C 
BRANCH   5   6
HETATM    6  C   UNK N   1      20.675  15.896   3.439  0.00  0.00     0.215 C 
BRANCH   6   7
HETATM    7  O   UNK N   1      19.387  15.364   3.494  0.00  0.00    -0.294 OA
BRANCH   7   8
HETATM    8  P   UNK N   1      19.027  15.220   5.189  0.00  0.00     0.390 P 
HETATM    9  O   UNK N   1      17.762  15.934   5.738  0.00  0.00    -0.632 OA
BRANCH   8  10
HETATM   10  O   UNK N   1      19.908  14.219   6.298  0.00  0.00    -0.307 OA
HETATM   11  H   UNK N   1      19.634  13.604   6.997  0.00  0.00     0.222 HD
ENDBRANCH   8  10
BRANCH   8  12
HETATM   12  O   UNK N   1      18.074  13.848   4.784  0.00  0.00    -0.307 OA
HETATM   13  H   UNK N   1      18.001  13.203   4.064  0.00  0.00     0.222 HD
ENDBRANCH   8  12
ENDBRANCH   7   8
ENDBRANCH   6   7
ENDBRANCH   5   6
BRANCH   5  14
HETATM   14  O   UNK N   1      21.836  17.723   4.415  0.00  0.00    -0.391 OA
HETATM   15  H   UNK N   1      22.677  17.675   3.934  0.00  0.00     0.210 HD
ENDBRANCH   5  14
ENDBRANCH   4   5
BRANCH   4  16
HETATM   16  O   UNK N   1      19.005  18.312   2.335  0.00  0.00    -0.390 OA
HETATM   17  H   UNK N   1      18.643  18.596   1.482  0.00  0.00     0.210 HD
ENDBRANCH   4  16
ENDBRANCH   1   4
BRANCH   1  18
HETATM   18  C   UNK N   1      20.749  20.492   1.486  0.00  0.00     0.167 C 
HETATM   19  N   UNK N   1      20.663  21.775   1.613  0.00  0.00    -0.249 N 
ATOM     20  HN  UNK N   1      20.747  22.191   2.540  1.00  0.00     0.196 HD
BRANCH  19  21
HETATM   21  O   UNK N   1      20.467  22.552   0.579  0.00  0.00    -0.288 OA
HETATM   22  H   UNK N   1      19.629  22.934   0.410  0.00  0.00     0.244 HD
ENDBRANCH  19  21
BRANCH  18  23
HETATM   23  O   UNK N   1      20.641  19.932   0.261  0.00  0.00    -0.346 OA
HETATM   24  H   UNK N   1      20.116  20.214  -0.462  0.00  0.00     0.219 HD
ENDBRANCH  18  23
ENDBRANCH   1  18
TORSDOF 12
ENDMDL
MODEL 6
REMARK VINA RESULT:      -5.6     15.767     17.948
REMARK  12 active torsions:
REMARK  status: ('A' for Active; 'I' for Inactive)
REMARK    1  A    between atoms: C_2  and  C_1 
REMARK    2  A    between atoms: O_16  and  C_1 
REMARK    3  A    between atoms: C_3  and  C_2 
REMARK    4  A    between atoms: C_2  and  O_8 
REMARK    5  A    between atoms: C_4  and  C_3 
REMARK    6  A    between atoms: C_3  and  O_9 
REMARK    7  A    between atoms: C_5  and  C_4 
REMARK    8  A    between atoms: O_11  and  C_5 
REMARK    9  A    between atoms: N_6  and  O_12 
REMARK   10  A    between atoms: P_17  and  O_13 
REMARK   11  A    between atoms: P_17  and  O_14 
REMARK   12  A    between atoms: P_17  and  O_16 
ROOT
HETATM    1  C   UNK N   1      19.795  19.005   2.916  0.00  0.00     0.225 C 
HETATM    2  O   UNK N   1      18.477  18.809   2.490  0.00  0.00    -0.385 OA
HETATM    3  H   UNK N   1      17.532  18.747   2.281  0.00  0.00     0.210 HD
ENDROOT
BRANCH   1   4
HETATM    4  C   UNK N   1      20.591  17.682   2.840  0.00  0.00     0.185 C 
BRANCH   4   5
HETATM    5  C   UNK N   1      20.227  16.741   3.998  0.00  0.00     0.174 C 
BRANCH   5   6
HETATM    6  C   UNK N   1      20.833  17.240   5.294  0.00  0.00     0.215 C 
BRANCH   6   7
HETATM    7  O   UNK N   1      21.313  16.160   6.034  0.00  0.00    -0.294 OA
BRANCH   7   8
HETATM    8  P   UNK N   1      20.272  16.063   7.423  0.00  0.00     0.390 P 
HETATM    9  O   UNK N   1      18.744  16.239   7.213  0.00  0.00    -0.632 OA
BRANCH   8  10
HETATM   10  O   UNK N   1      20.803  15.647   9.021  0.00  0.00    -0.307 OA
HETATM   11  H   UNK N   1      21.121  14.822   9.419  0.00  0.00     0.222 HD
ENDBRANCH   8  10
BRANCH   8  12
HETATM   12  O   UNK N   1      20.122  14.384   7.088  0.00  0.00    -0.307 OA
HETATM   13  H   UNK N   1      19.421  13.718   7.018  0.00  0.00     0.222 HD
ENDBRANCH   8  12
ENDBRANCH   7   8
ENDBRANCH   6   7
ENDBRANCH   5   6
BRANCH   5  14
HETATM   14  O   UNK N   1      18.841  16.644   4.147  0.00  0.00    -0.391 OA
HETATM   15  H   UNK N   1      18.440  16.518   5.021  0.00  0.00     0.210 HD
ENDBRANCH   5  14
ENDBRANCH   4   5
BRANCH   4  16
HETATM   16  O   UNK N   1      20.327  17.025   1.632  0.00  0.00    -0.390 OA
HETATM   17  H   UNK N   1      19.529  17.219   1.117  0.00  0.00     0.210 HD
ENDBRANCH   4  16
ENDBRANCH   1   4
BRANCH   1  18
HETATM   18  C   UNK N   1      20.408  20.094   2.085  0.00  0.00     0.167 C 
HETATM   19  N   UNK N   1      20.427  19.999   0.797  0.00  0.00    -0.249 N 
ATOM     20  HN  UNK N   1      20.041  19.166   0.352  1.00  0.00     0.196 HD
BRANCH  19  21
HETATM   21  O   UNK N   1      20.931  20.947   0.050  0.00  0.00    -0.288 OA
HETATM   22  H   UNK N   1      21.090  20.813  -0.864  0.00  0.00     0.244 HD
ENDBRANCH  19  21
BRANCH  18  23
HETATM   23  O   UNK N   1      20.914  21.196   2.683  0.00  0.00    -0.346 OA
HETATM   24  H   UNK N   1      20.526  21.721   3.354  0.00  0.00     0.219 HD
ENDBRANCH  18  23
ENDBRANCH   1  18
TORSDOF 12
ENDMDL
MODEL 7
REMARK VINA RESULT:      -5.4      3.063      6.116
REMARK  12 active torsions:
REMARK  status: ('A' for Active; 'I' for Inactive)
REMARK    1  A    between atoms: C_2  and  C_1 
REMARK    2  A    between atoms: O_16  and  C_1 
REMARK    3  A    between atoms: C_3  and  C_2 
REMARK    4  A    between atoms: C_2  and  O_8 
REMARK    5  A    between atoms: C_4  and  C_3 
REMARK    6  A    between atoms: C_3  and  O_9 
REMARK    7  A    between atoms: C_5  and  C_4 
REMARK    8  A    between atoms: O_11  and  C_5 
REMARK    9  A    between atoms: N_6  and  O_12 
REMARK   10  A    between atoms: P_17  and  O_13 
REMARK   11  A    between atoms: P_17  and  O_14 
REMARK   12  A    between atoms: P_17  and  O_16 
ROOT
HETATM    1  C   UNK N   1      34.872  14.980  11.674  0.00  0.00     0.225 C 
HETATM    2  O   UNK N   1      33.526  14.983  11.297  0.00  0.00    -0.385 OA
HETATM    3  H   UNK N   1      32.572  15.052  11.131  0.00  0.00     0.210 HD
ENDROOT
BRANCH   1   4
HETATM    4  C   UNK N   1      35.503  13.590  11.421  0.00  0.00     0.185 C 
BRANCH   4   5
HETATM    5  C   UNK N   1      36.756  13.378  12.283  0.00  0.00     0.174 C 
BRANCH   5   6
HETATM    6  C   UNK N   1      36.661  12.066  13.036  0.00  0.00     0.215 C 
BRANCH   6   7
HETATM    7  O   UNK N   1      36.573  12.317  14.405  0.00  0.00    -0.294 OA
BRANCH   7   8
HETATM    8  P   UNK N   1      35.183  11.425  14.943  0.00  0.00     0.390 P 
HETATM    9  O   UNK N   1      34.872  11.388  16.464  0.00  0.00    -0.632 OA
BRANCH   8  10
HETATM   10  O   UNK N   1      34.027  10.676  13.888  0.00  0.00    -0.307 OA
HETATM   11  H   UNK N   1      33.629  10.943  13.045  0.00  0.00     0.222 HD
ENDBRANCH   8  10
BRANCH   8  12
HETATM   12  O   UNK N   1      34.292  12.888  14.799  0.00  0.00    -0.307 OA
HETATM   13  H   UNK N   1      33.575  13.250  14.255  0.00  0.00     0.222 HD
ENDBRANCH   8  12
ENDBRANCH   7   8
ENDBRANCH   6   7
ENDBRANCH   5   6
BRANCH   5  14
HETATM   14  O   UNK N   1      37.910  13.371  11.495  0.00  0.00    -0.391 OA
HETATM   15  H   UNK N   1      37.913  12.958  10.617  0.00  0.00     0.210 HD
ENDBRANCH   5  14
ENDBRANCH   4   5
BRANCH   4  16
HETATM   16  O   UNK N   1      34.582  12.578  11.716  0.00  0.00    -0.390 OA
HETATM   17  H   UNK N   1      34.760  11.653  11.487  0.00  0.00     0.210 HD
ENDBRANCH   4  16
ENDBRANCH   1   4
BRANCH   1  18
HETATM   18  C   UNK N   1      35.579  16.075  10.929  0.00  0.00     0.167 C 
HETATM   19  N   UNK N   1      34.904  17.038  10.391  0.00  0.00    -0.249 N 
ATOM     20  HN  UNK N   1      33.887  17.032  10.458  1.00  0.00     0.196 HD
BRANCH  19  21
HETATM   21  O   UNK N   1      35.498  18.018   9.761  0.00  0.00    -0.288 OA
HETATM   22  H   UNK N   1      35.339  18.179   8.852  0.00  0.00     0.244 HD
ENDBRANCH  19  21
BRANCH  18  23
HETATM   23  O   UNK N   1      36.928  16.077  10.849  0.00  0.00    -0.346 OA
HETATM   24  H   UNK N   1      37.482  16.693  10.412  0.00  0.00     0.219 HD
ENDBRANCH  18  23
ENDBRANCH   1  18
TORSDOF 12
ENDMDL
MODEL 8
REMARK VINA RESULT:      -5.3     13.457     14.777
REMARK  12 active torsions:
REMARK  status: ('A' for Active; 'I' for Inactive)
REMARK    1  A    between atoms: C_2  and  C_1 
REMARK    2  A    between atoms: O_16  and  C_1 
REMARK    3  A    between atoms: C_3  and  C_2 
REMARK    4  A    between atoms: C_2  and  O_8 
REMARK    5  A    between atoms: C_4  and  C_3 
REMARK    6  A    between atoms: C_3  and  O_9 
REMARK    7  A    between atoms: C_5  and  C_4 
REMARK    8  A    between atoms: O_11  and  C_5 
REMARK    9  A    between atoms: N_6  and  O_12 
REMARK   10  A    between atoms: P_17  and  O_13 
REMARK   11  A    between atoms: P_17  and  O_14 
REMARK   12  A    between atoms: P_17  and  O_16 
ROOT
HETATM    1  C   UNK N   1      43.502  22.225   3.798  0.00  0.00     0.225 C 
HETATM    2  O   UNK N   1      43.456  23.571   4.174  0.00  0.00    -0.385 OA
HETATM    3  H   UNK N   1      43.403  24.466   4.545  0.00  0.00     0.210 HD
ENDROOT
BRANCH   1   4
HETATM    4  C   UNK N   1      42.828  22.025   2.420  0.00  0.00     0.185 C 
BRANCH   4   5
HETATM    5  C   UNK N   1      42.176  23.323   1.921  0.00  0.00     0.174 C 
BRANCH   5   6
HETATM    6  C   UNK N   1      42.886  23.827   0.681  0.00  0.00     0.215 C 
BRANCH   6   7
HETATM    7  O   UNK N   1      43.340  25.128   0.897  0.00  0.00    -0.294 OA
BRANCH   7   8
HETATM    8  P   UNK N   1      45.074  25.018   0.843  0.00  0.00     0.390 P 
HETATM    9  O   UNK N   1      45.894  26.333   0.745  0.00  0.00    -0.632 OA
BRANCH   8  10
HETATM   10  O   UNK N   1      45.971  23.545   1.028  0.00  0.00    -0.307 OA
HETATM   11  H   UNK N   1      46.473  22.992   0.408  0.00  0.00     0.222 HD
ENDBRANCH   8  10
BRANCH   8  12
HETATM   12  O   UNK N   1      45.053  25.161   2.556  0.00  0.00    -0.307 OA
HETATM   13  H   UNK N   1      44.994  25.861   3.225  0.00  0.00     0.222 HD
ENDBRANCH   8  12
ENDBRANCH   7   8
ENDBRANCH   6   7
ENDBRANCH   5   6
BRANCH   5  14
HETATM   14  O   UNK N   1      40.825  23.122   1.626  0.00  0.00    -0.391 OA
HETATM   15  H   UNK N   1      40.150  23.755   1.916  0.00  0.00     0.210 HD
ENDBRANCH   5  14
ENDBRANCH   4   5
BRANCH   4  16
HETATM   16  O   UNK N   1      43.772  21.609   1.473  0.00  0.00    -0.390 OA
HETATM   17  H   UNK N   1      44.707  21.853   1.553  0.00  0.00     0.210 HD
ENDBRANCH   4  16
ENDBRANCH   1   4
BRANCH   1  18
HETATM   18  C   UNK N   1      44.934  21.775   3.808  0.00  0.00     0.167 C 
HETATM   19  N   UNK N   1      45.228  20.532   3.615  0.00  0.00    -0.249 N 
ATOM     20  HN  UNK N   1      44.476  19.857   3.479  1.00  0.00     0.196 HD
BRANCH  19  21
HETATM   21  O   UNK N   1      46.469  20.120   3.591  0.00  0.00    -0.288 OA
HETATM   22  H   UNK N   1      47.173  20.683   3.844  0.00  0.00     0.244 HD
ENDBRANCH  19  21
BRANCH  18  23
HETATM   23  O   UNK N   1      45.925  22.678   3.986  0.00  0.00    -0.346 OA
HETATM   24  H   UNK N   1      46.850  22.538   3.945  0.00  0.00     0.219 HD
ENDBRANCH  18  23
ENDBRANCH   1  18
TORSDOF 12
ENDMDL
MODEL 9
REMARK VINA RESULT:      -5.3      3.043      6.142
REMARK  12 active torsions:
REMARK  status: ('A' for Active; 'I' for Inactive)
REMARK    1  A    between atoms: C_2  and  C_1 
REMARK    2  A    between atoms: O_16  and  C_1 
REMARK    3  A    between atoms: C_3  and  C_2 
REMARK    4  A    between atoms: C_2  and  O_8 
REMARK    5  A    between atoms: C_4  and  C_3 
REMARK    6  A    between atoms: C_3  and  O_9 
REMARK    7  A    between atoms: C_5  and  C_4 
REMARK    8  A    between atoms: O_11  and  C_5 
REMARK    9  A    between atoms: N_6  and  O_12 
REMARK   10  A    between atoms: P_17  and  O_13 
REMARK   11  A    between atoms: P_17  and  O_14 
REMARK   12  A    between atoms: P_17  and  O_16 
ROOT
HETATM    1  C   UNK N   1      34.331  16.230   9.222  0.00  0.00     0.225 C 
HETATM    2  O   UNK N   1      34.676  17.554   9.512  0.00  0.00    -0.385 OA
HETATM    3  H   UNK N   1      34.949  18.481   9.601  0.00  0.00     0.210 HD
ENDROOT
BRANCH   1   4
HETATM    4  C   UNK N   1      34.685  15.306  10.410  0.00  0.00     0.185 C 
BRANCH   4   5
HETATM    5  C   UNK N   1      35.691  15.973  11.360  0.00  0.00     0.174 C 
BRANCH   5   6
HETATM    6  C   UNK N   1      35.843  15.154  12.626  0.00  0.00     0.215 C 
BRANCH   6   7
HETATM    7  O   UNK N   1      36.371  13.902  12.313  0.00  0.00    -0.294 OA
BRANCH   7   8
HETATM    8  P   UNK N   1      35.774  12.836  13.549  0.00  0.00     0.390 P 
HETATM    9  O   UNK N   1      34.923  13.441  14.698  0.00  0.00    -0.632 OA
BRANCH   8  10
HETATM   10  O   UNK N   1      35.944  11.109  13.523  0.00  0.00    -0.307 OA
HETATM   11  H   UNK N   1      35.354  10.389  13.250  0.00  0.00     0.222 HD
ENDBRANCH   8  10
BRANCH   8  12
HETATM   12  O   UNK N   1      34.355  12.660  12.594  0.00  0.00    -0.307 OA
HETATM   13  H   UNK N   1      33.411  12.877  12.650  0.00  0.00     0.222 HD
ENDBRANCH   8  12
ENDBRANCH   7   8
ENDBRANCH   6   7
ENDBRANCH   5   6
BRANCH   5  14
HETATM   14  O   UNK N   1      36.940  16.110  10.749  0.00  0.00    -0.391 OA
HETATM   15  H   UNK N   1      37.711  15.620  11.074  0.00  0.00     0.210 HD
ENDBRANCH   5  14
ENDBRANCH   4   5
BRANCH   4  16
HETATM   16  O   UNK N   1      33.532  14.985  11.137  0.00  0.00    -0.390 OA
HETATM   17  H   UNK N   1      33.093  15.641  11.701  0.00  0.00     0.210 HD
ENDBRANCH   4  16
ENDBRANCH   1   4
BRANCH   1  18
HETATM   18  C   UNK N   1      32.873  16.183   8.871  0.00  0.00     0.167 C 
HETATM   19  N   UNK N   1      32.118  17.211   9.078  0.00  0.00    -0.249 N 
ATOM     20  HN  UNK N   1      32.519  18.046   9.504  1.00  0.00     0.196 HD
BRANCH  19  21
HETATM   21  O   UNK N   1      30.851  17.204   8.755  0.00  0.00    -0.288 OA
HETATM   22  H   UNK N   1      30.206  16.833   9.325  0.00  0.00     0.244 HD
ENDBRANCH  19  21
BRANCH  18  23
HETATM   23  O   UNK N   1      32.350  15.072   8.304  0.00  0.00    -0.346 OA
HETATM   24  H   UNK N   1      32.805  14.340   7.938  0.00  0.00     0.219 HD
ENDBRANCH  18  23
ENDBRANCH   1  18
TORSDOF 12
ENDMDL
