REMARK  3 active torsions:
REMARK  status: ('A' for Active; 'I' for Inactive)
REMARK    1  A    between atoms: C_2  and  S_3 
REMARK    2  A    between atoms: S_3  and  C_4 
REMARK    3  A    between atoms: C_4  and  N_5 
ROOT
HETATM    1  C   UNK N   1       0.640  -0.674  -0.000  0.00  0.00     0.131 C 
HETATM    2  N   UNK N   1      -0.576  -0.264   0.000  0.00  0.00    -0.380 N 
ATOM      3  HN  UNK N   1      -1.341  -0.937   0.000  1.00  0.00     0.158 HD
HETATM    4  H   UNK N   1      -0.769   0.702   0.000  0.00  0.00     0.158 HD
ENDROOT
BRANCH   1   5
HETATM    5  S   UNK N   1       2.024   0.486   0.000  0.00  0.00    -0.095 SA
BRANCH   5   6
HETATM    6  C   UNK N   1       1.062   2.031  -0.000  0.00  0.00     0.078 C 
HETATM    7  C   UNK N   1       2.018   3.206  -0.000  0.00  0.00     0.016 C 
ENDBRANCH   5   6
ENDBRANCH   1   5
BRANCH   1   8
HETATM    8  N   UNK N   1       0.906  -2.060  -0.000  0.00  0.00    -0.380 N 
HETATM    9  H   UNK N   1       0.161  -2.704   0.000  0.00  0.00     0.158 HD
HETATM   10  H   UNK N   1       1.836  -2.383  -0.000  0.00  0.00     0.158 HD
ENDBRANCH   1   8
TORSDOF 3
