MODEL 1
REMARK VINA RESULT:      -7.5      0.000      0.000
REMARK  5 active torsions:
REMARK  status: ('A' for Active; 'I' for Inactive)
REMARK    1  A    between atoms: C_15  and  C_13 
REMARK    2  A    between atoms: C_18  and  C_13 
REMARK    3  A    between atoms: N_23  and  C_14 
REMARK    4  A    between atoms: N_24  and  C_16 
REMARK    5  A    between atoms: O_26  and  C_20 
ROOT
HETATM    1  C   UNK N   1      27.349  17.266   6.167  0.00  0.00     0.009 A 
HETATM    2  C   UNK N   1      27.483  19.673   6.370  0.00  0.00     0.009 A 
HETATM    3  C   UNK N   1      26.326  17.407   5.220  0.00  0.00     0.030 A 
HETATM    4  C   UNK N   1      26.482  19.816   5.416  0.00  0.00     0.030 A 
HETATM    5  C   UNK N   1      27.946  18.404   6.722  0.00  0.00    -0.057 A 
HETATM    6  C   UNK N   1      25.902  18.687   4.819  0.00  0.00     0.030 A 
ENDROOT
BRANCH   5   7
HETATM    7  C   UNK N   1      29.082  18.280   7.683  0.00  0.00     0.056 C 
BRANCH   7   8
HETATM    8  C   UNK N   1      29.988  17.057   7.437  0.00  0.00     0.100 A 
HETATM    9  C   UNK N   1      31.046  17.246   6.373  0.00  0.00    -0.019 A 
HETATM   10  C   UNK N   1      30.904  17.387   4.989  0.00  0.00     0.010 A 
HETATM   11  C   UNK N   1      32.282  17.228   6.947  0.00  0.00     0.041 A 
HETATM   12  C   UNK N   1      32.061  17.550   4.208  0.00  0.00     0.001 A 
HETATM   13  C   UNK N   1      33.332  17.554   4.816  0.00  0.00     0.002 A 
HETATM   14  C   UNK N   1      33.452  17.382   6.206  0.00  0.00     0.030 A 
HETATM   15  N   UNK N   1      32.183  17.025   8.318  0.00  0.00    -0.340 N 
HETATM   16  C   UNK N   1      30.941  16.916   8.621  0.00  0.00     0.125 A 
ATOM     17  HN  UNK N   1      32.963  16.970   8.973  1.00  0.00     0.167 HD
BRANCH  16  18
HETATM   18  O   UNK N   1      30.531  16.700   9.886  0.00  0.00    -0.349 OA
HETATM   19  H   UNK N   1      31.081  16.232  10.483  0.00  0.00     0.219 HD
ENDBRANCH  16  18
ENDBRANCH   7   8
ENDBRANCH   5   7
BRANCH   6  20
HETATM   20  N   UNK N   1      24.938  18.850   3.780  0.00  0.00    -0.378 N 
HETATM   21  C   UNK N   1      23.728  18.054   3.777  0.00  0.00     0.143 C 
HETATM   22  C   UNK N   1      22.543  18.991   3.993  0.00  0.00     0.145 C 
HETATM   23  N   UNK N   1      22.630  20.076   3.037  0.00  0.00    -0.356 N 
HETATM   24  C   UNK N   1      23.845  20.858   2.967  0.00  0.00     0.145 C 
HETATM   25  C   UNK N   1      25.047  19.925   2.813  0.00  0.00     0.143 C 
BRANCH  23  26
HETATM   26  C   UNK N   1      21.607  20.348   2.192  0.00  0.00     0.350 C 
HETATM   27  O   UNK N   1      21.814  20.585   1.012  0.00  0.00    -0.284 OA
ENDBRANCH  23  26
ENDBRANCH   6  20
TORSDOF 5
ENDMDL
MODEL 2
REMARK VINA RESULT:      -7.5      9.162     13.466
REMARK  5 active torsions:
REMARK  status: ('A' for Active; 'I' for Inactive)
REMARK    1  A    between atoms: C_15  and  C_13 
REMARK    2  A    between atoms: C_18  and  C_13 
REMARK    3  A    between atoms: N_23  and  C_14 
REMARK    4  A    between atoms: N_24  and  C_16 
REMARK    5  A    between atoms: O_26  and  C_20 
ROOT
HETATM    1  C   UNK N   1      36.433  14.669  13.926  0.00  0.00     0.009 A 
HETATM    2  C   UNK N   1      35.282  12.544  14.034  0.00  0.00     0.009 A 
HETATM    3  C   UNK N   1      36.060  14.797  12.582  0.00  0.00     0.030 A 
HETATM    4  C   UNK N   1      34.894  12.679  12.706  0.00  0.00     0.030 A 
HETATM    5  C   UNK N   1      36.019  13.551  14.659  0.00  0.00    -0.057 A 
HETATM    6  C   UNK N   1      35.266  13.812  11.968  0.00  0.00     0.030 A 
ENDROOT
BRANCH   5   7
HETATM    7  C   UNK N   1      36.348  13.424  16.110  0.00  0.00     0.056 C 
BRANCH   7   8
HETATM    8  C   UNK N   1      35.137  13.094  17.007  0.00  0.00     0.100 A 
HETATM    9  C   UNK N   1      35.144  11.709  17.613  0.00  0.00    -0.019 A 
HETATM   10  C   UNK N   1      34.995  10.463  16.995  0.00  0.00     0.010 A 
HETATM   11  C   UNK N   1      35.294  11.801  18.965  0.00  0.00     0.041 A 
HETATM   12  C   UNK N   1      35.039   9.307  17.793  0.00  0.00     0.001 A 
HETATM   13  C   UNK N   1      35.218   9.415  19.187  0.00  0.00     0.002 A 
HETATM   14  C   UNK N   1      35.338  10.679  19.790  0.00  0.00     0.030 A 
HETATM   15  N   UNK N   1      35.371  13.131  19.359  0.00  0.00    -0.340 N 
HETATM   16  C   UNK N   1      35.278  13.869  18.314  0.00  0.00     0.125 A 
ATOM     17  HN  UNK N   1      35.482  13.466  20.316  1.00  0.00     0.167 HD
BRANCH  16  18
HETATM   18  O   UNK N   1      35.309  15.213  18.383  0.00  0.00    -0.349 OA
HETATM   19  H   UNK N   1      35.196  15.642  19.209  0.00  0.00     0.219 HD
ENDBRANCH  16  18
ENDBRANCH   7   8
ENDBRANCH   5   7
BRANCH   6  20
HETATM   20  N   UNK N   1      34.788  13.979  10.634  0.00  0.00    -0.378 N 
HETATM   21  C   UNK N   1      33.998  15.141  10.283  0.00  0.00     0.143 C 
HETATM   22  C   UNK N   1      34.803  15.984   9.298  0.00  0.00     0.145 C 
HETATM   23  N   UNK N   1      35.252  15.131   8.217  0.00  0.00    -0.356 N 
HETATM   24  C   UNK N   1      35.994  13.929   8.529  0.00  0.00     0.145 C 
HETATM   25  C   UNK N   1      35.226  13.105   9.563  0.00  0.00     0.143 C 
BRANCH  23  26
HETATM   26  C   UNK N   1      34.963  15.425   6.927  0.00  0.00     0.350 C 
HETATM   27  O   UNK N   1      34.801  16.582   6.568  0.00  0.00    -0.284 OA
ENDBRANCH  23  26
ENDBRANCH   6  20
TORSDOF 5
ENDMDL
MODEL 3
REMARK VINA RESULT:      -7.1      6.607     10.479
REMARK  5 active torsions:
REMARK  status: ('A' for Active; 'I' for Inactive)
REMARK    1  A    between atoms: C_15  and  C_13 
REMARK    2  A    between atoms: C_18  and  C_13 
REMARK    3  A    between atoms: N_23  and  C_14 
REMARK    4  A    between atoms: N_24  and  C_16 
REMARK    5  A    between atoms: O_26  and  C_20 
ROOT
HETATM    1  C   UNK N   1      35.809  15.931  11.234  0.00  0.00     0.009 A 
HETATM    2  C   UNK N   1      34.748  13.918  10.414  0.00  0.00     0.009 A 
HETATM    3  C   UNK N   1      35.130  16.679  10.264  0.00  0.00     0.030 A 
HETATM    4  C   UNK N   1      34.058  14.661   9.463  0.00  0.00     0.030 A 
HETATM    5  C   UNK N   1      35.595  14.551  11.325  0.00  0.00    -0.057 A 
HETATM    6  C   UNK N   1      34.229  16.051   9.385  0.00  0.00     0.030 A 
ENDROOT
BRANCH   5   7
HETATM    7  C   UNK N   1      36.256  13.742  12.392  0.00  0.00     0.056 C 
BRANCH   7   8
HETATM    8  C   UNK N   1      35.568  13.830  13.770  0.00  0.00     0.100 A 
HETATM    9  C   UNK N   1      35.180  12.502  14.380  0.00  0.00    -0.019 A 
HETATM   10  C   UNK N   1      34.202  11.587  13.978  0.00  0.00     0.010 A 
HETATM   11  C   UNK N   1      35.930  12.273  15.495  0.00  0.00     0.041 A 
HETATM   12  C   UNK N   1      34.036  10.409  14.726  0.00  0.00     0.001 A 
HETATM   13  C   UNK N   1      34.833  10.174  15.864  0.00  0.00     0.002 A 
HETATM   14  C   UNK N   1      35.791  11.121  16.265  0.00  0.00     0.030 A 
HETATM   15  N   UNK N   1      36.795  13.335  15.729  0.00  0.00    -0.340 N 
HETATM   16  C   UNK N   1      36.618  14.212  14.810  0.00  0.00     0.125 A 
ATOM     17  HN  UNK N   1      37.458  13.407  16.501  1.00  0.00     0.167 HD
BRANCH  16  18
HETATM   18  O   UNK N   1      37.312  15.366  14.779  0.00  0.00    -0.349 OA
HETATM   19  H   UNK N   1      37.215  15.989  15.472  0.00  0.00     0.219 HD
ENDBRANCH  16  18
ENDBRANCH   7   8
ENDBRANCH   5   7
BRANCH   6  20
HETATM   20  N   UNK N   1      33.450  16.812   8.463  0.00  0.00    -0.378 N 
HETATM   21  C   UNK N   1      34.100  17.674   7.497  0.00  0.00     0.143 C 
HETATM   22  C   UNK N   1      33.830  17.115   6.104  0.00  0.00     0.145 C 
HETATM   23  N   UNK N   1      32.404  16.905   5.957  0.00  0.00    -0.356 N 
HETATM   24  C   UNK N   1      31.706  16.099   6.934  0.00  0.00     0.145 C 
HETATM   25  C   UNK N   1      32.020  16.611   8.341  0.00  0.00     0.143 C 
BRANCH  23  26
HETATM   26  C   UNK N   1      31.714  17.475   4.941  0.00  0.00     0.350 C 
HETATM   27  O   UNK N   1      32.251  17.705   3.869  0.00  0.00    -0.284 OA
ENDBRANCH  23  26
ENDBRANCH   6  20
TORSDOF 5
ENDMDL
MODEL 4
REMARK VINA RESULT:      -7.0      8.803     13.245
REMARK  5 active torsions:
REMARK  status: ('A' for Active; 'I' for Inactive)
REMARK    1  A    between atoms: C_15  and  C_13 
REMARK    2  A    between atoms: C_18  and  C_13 
REMARK    3  A    between atoms: N_23  and  C_14 
REMARK    4  A    between atoms: N_24  and  C_16 
REMARK    5  A    between atoms: O_26  and  C_20 
ROOT
HETATM    1  C   UNK N   1      37.295  11.806  12.105  0.00  0.00     0.009 A 
HETATM    2  C   UNK N   1      34.966  12.247  12.583  0.00  0.00     0.009 A 
HETATM    3  C   UNK N   1      37.307  12.873  11.197  0.00  0.00     0.030 A 
HETATM    4  C   UNK N   1      34.980  13.319  11.697  0.00  0.00     0.030 A 
HETATM    5  C   UNK N   1      36.128  11.511  12.818  0.00  0.00    -0.057 A 
HETATM    6  C   UNK N   1      36.153  13.654  11.005  0.00  0.00     0.030 A 
ENDROOT
BRANCH   5   7
HETATM    7  C   UNK N   1      36.109  10.422  13.839  0.00  0.00     0.056 C 
BRANCH   7   8
HETATM    8  C   UNK N   1      36.963  10.712  15.090  0.00  0.00     0.100 A 
HETATM    9  C   UNK N   1      36.284  11.549  16.151  0.00  0.00    -0.019 A 
HETATM   10  C   UNK N   1      35.912  12.897  16.122  0.00  0.00     0.010 A 
HETATM   11  C   UNK N   1      36.076  10.794  17.267  0.00  0.00     0.041 A 
HETATM   12  C   UNK N   1      35.286  13.446  17.255  0.00  0.00     0.001 A 
HETATM   13  C   UNK N   1      35.057  12.648  18.394  0.00  0.00     0.002 A 
HETATM   14  C   UNK N   1      35.464  11.303  18.410  0.00  0.00     0.030 A 
HETATM   15  N   UNK N   1      36.570   9.507  17.086  0.00  0.00    -0.340 N 
HETATM   16  C   UNK N   1      37.072   9.429  15.909  0.00  0.00     0.125 A 
ATOM     17  HN  UNK N   1      36.539   8.753  17.772  1.00  0.00     0.167 HD
BRANCH  16  18
HETATM   18  O   UNK N   1      37.641   8.298  15.449  0.00  0.00    -0.349 OA
HETATM   19  H   UNK N   1      38.302   8.342  14.786  0.00  0.00     0.219 HD
ENDBRANCH  16  18
ENDBRANCH   7   8
ENDBRANCH   5   7
BRANCH   6  20
HETATM   20  N   UNK N   1      36.178  14.808  10.166  0.00  0.00    -0.378 N 
HETATM   21  C   UNK N   1      35.818  14.700   8.767  0.00  0.00     0.143 C 
HETATM   22  C   UNK N   1      34.534  15.493   8.545  0.00  0.00     0.145 C 
HETATM   23  N   UNK N   1      34.711  16.825   9.087  0.00  0.00    -0.356 N 
HETATM   24  C   UNK N   1      35.127  16.975  10.464  0.00  0.00     0.145 C 
HETATM   25  C   UNK N   1      36.380  16.134  10.716  0.00  0.00     0.143 C 
BRANCH  23  26
HETATM   26  C   UNK N   1      34.523  17.924   8.319  0.00  0.00     0.350 C 
HETATM   27  O   UNK N   1      35.183  18.936   8.499  0.00  0.00    -0.284 OA
ENDBRANCH  23  26
ENDBRANCH   6  20
TORSDOF 5
ENDMDL
MODEL 5
REMARK VINA RESULT:      -7.0      3.908     10.136
REMARK  5 active torsions:
REMARK  status: ('A' for Active; 'I' for Inactive)
REMARK    1  A    between atoms: C_15  and  C_13 
REMARK    2  A    between atoms: C_18  and  C_13 
REMARK    3  A    between atoms: N_23  and  C_14 
REMARK    4  A    between atoms: N_24  and  C_16 
REMARK    5  A    between atoms: O_26  and  C_20 
ROOT
HETATM    1  C   UNK N   1      32.819  15.301   6.203  0.00  0.00     0.009 A 
HETATM    2  C   UNK N   1      33.615  17.566   6.496  0.00  0.00     0.009 A 
HETATM    3  C   UNK N   1      33.652  14.878   7.247  0.00  0.00     0.030 A 
HETATM    4  C   UNK N   1      34.427  17.152   7.545  0.00  0.00     0.030 A 
HETATM    5  C   UNK N   1      32.782  16.654   5.846  0.00  0.00    -0.057 A 
HETATM    6  C   UNK N   1      34.446  15.807   7.942  0.00  0.00     0.030 A 
ENDROOT
BRANCH   5   7
HETATM    7  C   UNK N   1      31.854  17.139   4.782  0.00  0.00     0.056 C 
BRANCH   7   8
HETATM    8  C   UNK N   1      30.382  16.729   4.991  0.00  0.00     0.100 A 
HETATM    9  C   UNK N   1      29.625  17.551   6.010  0.00  0.00    -0.019 A 
HETATM   10  C   UNK N   1      29.778  17.613   7.399  0.00  0.00     0.010 A 
HETATM   11  C   UNK N   1      28.654  18.276   5.385  0.00  0.00     0.041 A 
HETATM   12  C   UNK N   1      28.936  18.467   8.131  0.00  0.00     0.001 A 
HETATM   13  C   UNK N   1      27.952  19.229   7.469  0.00  0.00     0.002 A 
HETATM   14  C   UNK N   1      27.797  19.129   6.076  0.00  0.00     0.030 A 
HETATM   15  N   UNK N   1      28.654  18.018   4.019  0.00  0.00    -0.340 N 
HETATM   16  C   UNK N   1      29.580  17.167   3.768  0.00  0.00     0.125 A 
ATOM     17  HN  UNK N   1      28.024  18.433   3.332  1.00  0.00     0.167 HD
BRANCH  16  18
HETATM   18  O   UNK N   1      29.815  16.713   2.522  0.00  0.00    -0.349 OA
HETATM   19  H   UNK N   1      29.525  15.857   2.274  0.00  0.00     0.219 HD
ENDBRANCH  16  18
ENDBRANCH   7   8
ENDBRANCH   5   7
BRANCH   6  20
HETATM   20  N   UNK N   1      35.218  15.412   9.075  0.00  0.00    -0.378 N 
HETATM   21  C   UNK N   1      35.124  16.154  10.316  0.00  0.00     0.143 C 
HETATM   22  C   UNK N   1      34.499  15.243  11.368  0.00  0.00     0.145 C 
HETATM   23  N   UNK N   1      35.230  13.993  11.392  0.00  0.00    -0.356 N 
HETATM   24  C   UNK N   1      35.397  13.250  10.162  0.00  0.00     0.145 C 
HETATM   25  C   UNK N   1      35.965  14.170   9.081  0.00  0.00     0.143 C 
BRANCH  23  26
HETATM   26  C   UNK N   1      35.782  13.527  12.538  0.00  0.00     0.350 C 
HETATM   27  O   UNK N   1      35.200  13.640  13.606  0.00  0.00    -0.284 OA
ENDBRANCH  23  26
ENDBRANCH   6  20
TORSDOF 5
ENDMDL
MODEL 6
REMARK VINA RESULT:      -7.0      2.657      8.970
REMARK  5 active torsions:
REMARK  status: ('A' for Active; 'I' for Inactive)
REMARK    1  A    between atoms: C_15  and  C_13 
REMARK    2  A    between atoms: C_18  and  C_13 
REMARK    3  A    between atoms: N_23  and  C_14 
REMARK    4  A    between atoms: N_24  and  C_16 
REMARK    5  A    between atoms: O_26  and  C_20 
ROOT
HETATM    1  C   UNK N   1      29.883  15.446   5.224  0.00  0.00     0.009 A 
HETATM    2  C   UNK N   1      30.955  17.428   4.347  0.00  0.00     0.009 A 
HETATM    3  C   UNK N   1      30.999  15.206   6.036  0.00  0.00     0.030 A 
HETATM    4  C   UNK N   1      32.056  17.203   5.167  0.00  0.00     0.030 A 
HETATM    5  C   UNK N   1      29.852  16.576   4.398  0.00  0.00    -0.057 A 
HETATM    6  C   UNK N   1      32.086  16.099   6.030  0.00  0.00     0.030 A 
ENDROOT
BRANCH   5   7
HETATM    7  C   UNK N   1      28.647  16.888   3.574  0.00  0.00     0.056 C 
BRANCH   7   8
HETATM    8  C   UNK N   1      27.360  17.114   4.394  0.00  0.00     0.100 A 
HETATM    9  C   UNK N   1      27.229  18.485   5.018  0.00  0.00    -0.019 A 
HETATM   10  C   UNK N   1      27.963  19.067   6.056  0.00  0.00     0.010 A 
HETATM   11  C   UNK N   1      26.196  19.157   4.434  0.00  0.00     0.041 A 
HETATM   12  C   UNK N   1      27.638  20.374   6.457  0.00  0.00     0.001 A 
HETATM   13  C   UNK N   1      26.583  21.067   5.830  0.00  0.00     0.002 A 
HETATM   14  C   UNK N   1      25.841  20.451   4.807  0.00  0.00     0.030 A 
HETATM   15  N   UNK N   1      25.582  18.367   3.469  0.00  0.00    -0.340 N 
HETATM   16  C   UNK N   1      26.187  17.237   3.426  0.00  0.00     0.125 A 
ATOM     17  HN  UNK N   1      24.786  18.639   2.892  1.00  0.00     0.167 HD
BRANCH  16  18
HETATM   18  O   UNK N   1      25.806  16.254   2.588  0.00  0.00    -0.349 OA
HETATM   19  H   UNK N   1      26.450  15.708   2.183  0.00  0.00     0.219 HD
ENDBRANCH  16  18
ENDBRANCH   7   8
ENDBRANCH   5   7
BRANCH   6  20
HETATM   20  N   UNK N   1      33.182  15.928   6.927  0.00  0.00    -0.378 N 
HETATM   21  C   UNK N   1      34.238  16.918   6.984  0.00  0.00     0.143 C 
HETATM   22  C   UNK N   1      34.193  17.582   8.357  0.00  0.00     0.145 C 
HETATM   23  N   UNK N   1      34.192  16.548   9.372  0.00  0.00    -0.356 N 
HETATM   24  C   UNK N   1      33.189  15.507   9.317  0.00  0.00     0.145 C 
HETATM   25  C   UNK N   1      33.182  14.876   7.924  0.00  0.00     0.143 C 
BRANCH  23  26
HETATM   26  C   UNK N   1      35.129  16.525  10.349  0.00  0.00     0.350 C 
HETATM   27  O   UNK N   1      35.903  17.459  10.499  0.00  0.00    -0.284 OA
ENDBRANCH  23  26
ENDBRANCH   6  20
TORSDOF 5
ENDMDL
MODEL 7
REMARK VINA RESULT:      -6.9     11.006     14.332
REMARK  5 active torsions:
REMARK  status: ('A' for Active; 'I' for Inactive)
REMARK    1  A    between atoms: C_15  and  C_13 
REMARK    2  A    between atoms: C_18  and  C_13 
REMARK    3  A    between atoms: N_23  and  C_14 
REMARK    4  A    between atoms: N_24  and  C_16 
REMARK    5  A    between atoms: O_26  and  C_20 
ROOT
HETATM    1  C   UNK N   1      37.177  12.258  14.340  0.00  0.00     0.009 A 
HETATM    2  C   UNK N   1      36.163  14.397  13.844  0.00  0.00     0.009 A 
HETATM    3  C   UNK N   1      37.242  11.976  12.969  0.00  0.00     0.030 A 
HETATM    4  C   UNK N   1      36.245  14.128  12.483  0.00  0.00     0.030 A 
HETATM    5  C   UNK N   1      36.660  13.483  14.775  0.00  0.00    -0.057 A 
HETATM    6  C   UNK N   1      36.798  12.922  12.028  0.00  0.00     0.030 A 
ENDROOT
BRANCH   5   7
HETATM    7  C   UNK N   1      36.641  13.834  16.226  0.00  0.00     0.056 C 
BRANCH   7   8
HETATM    8  C   UNK N   1      35.322  13.481  16.944  0.00  0.00     0.100 A 
HETATM    9  C   UNK N   1      35.228  12.061  17.453  0.00  0.00    -0.019 A 
HETATM   10  C   UNK N   1      35.131  10.861  16.740  0.00  0.00     0.010 A 
HETATM   11  C   UNK N   1      35.211  12.062  18.816  0.00  0.00     0.041 A 
HETATM   12  C   UNK N   1      35.054   9.656  17.458  0.00  0.00     0.001 A 
HETATM   13  C   UNK N   1      35.061   9.670  18.867  0.00  0.00     0.002 A 
HETATM   14  C   UNK N   1      35.131  10.889  19.563  0.00  0.00     0.030 A 
HETATM   15  N   UNK N   1      35.265  13.362  19.305  0.00  0.00    -0.340 N 
HETATM   16  C   UNK N   1      35.317  14.167  18.308  0.00  0.00     0.125 A 
ATOM     17  HN  UNK N   1      35.264  13.631  20.289  1.00  0.00     0.167 HD
BRANCH  16  18
HETATM   18  O   UNK N   1      35.366  15.503  18.470  0.00  0.00    -0.349 OA
HETATM   19  H   UNK N   1      35.530  16.058  17.733  0.00  0.00     0.219 HD
ENDBRANCH  16  18
ENDBRANCH   7   8
ENDBRANCH   5   7
BRANCH   6  20
HETATM   20  N   UNK N   1      36.955  12.696  10.628  0.00  0.00    -0.378 N 
HETATM   21  C   UNK N   1      35.797  12.679   9.757  0.00  0.00     0.143 C 
HETATM   22  C   UNK N   1      35.897  13.873   8.812  0.00  0.00     0.145 C 
HETATM   23  N   UNK N   1      37.203  13.860   8.185  0.00  0.00    -0.356 N 
HETATM   24  C   UNK N   1      38.384  13.817   9.019  0.00  0.00     0.145 C 
HETATM   25  C   UNK N   1      38.268  12.662  10.014  0.00  0.00     0.143 C 
BRANCH  23  26
HETATM   26  C   UNK N   1      37.333  13.858   6.837  0.00  0.00     0.350 C 
HETATM   27  O   UNK N   1      36.574  14.506   6.133  0.00  0.00    -0.284 OA
ENDBRANCH  23  26
ENDBRANCH   6  20
TORSDOF 5
ENDMDL
MODEL 8
REMARK VINA RESULT:      -6.9     12.544     17.315
REMARK  5 active torsions:
REMARK  status: ('A' for Active; 'I' for Inactive)
REMARK    1  A    between atoms: C_15  and  C_13 
REMARK    2  A    between atoms: C_18  and  C_13 
REMARK    3  A    between atoms: N_23  and  C_14 
REMARK    4  A    between atoms: N_24  and  C_16 
REMARK    5  A    between atoms: O_26  and  C_20 
ROOT
HETATM    1  C   UNK N   1      35.058  11.011  17.265  0.00  0.00     0.009 A 
HETATM    2  C   UNK N   1      35.323  12.592  19.076  0.00  0.00     0.009 A 
HETATM    3  C   UNK N   1      34.925   9.972  18.196  0.00  0.00     0.030 A 
HETATM    4  C   UNK N   1      35.171  11.566  20.003  0.00  0.00     0.030 A 
HETATM    5  C   UNK N   1      35.230  12.326  17.709  0.00  0.00    -0.057 A 
HETATM    6  C   UNK N   1      34.956  10.248  19.576  0.00  0.00     0.030 A 
ENDROOT
BRANCH   5   7
HETATM    7  C   UNK N   1      35.309  13.458  16.738  0.00  0.00     0.056 C 
BRANCH   7   8
HETATM    8  C   UNK N   1      36.403  13.294  15.664  0.00  0.00     0.100 A 
HETATM    9  C   UNK N   1      35.895  13.069  14.257  0.00  0.00    -0.019 A 
HETATM   10  C   UNK N   1      35.232  11.964  13.714  0.00  0.00     0.010 A 
HETATM   11  C   UNK N   1      36.207  14.145  13.480  0.00  0.00     0.041 A 
HETATM   12  C   UNK N   1      34.860  12.003  12.359  0.00  0.00     0.001 A 
HETATM   13  C   UNK N   1      35.168  13.130  11.572  0.00  0.00     0.002 A 
HETATM   14  C   UNK N   1      35.860  14.218  12.132  0.00  0.00     0.030 A 
HETATM   15  N   UNK N   1      36.906  15.094  14.215  0.00  0.00    -0.340 N 
HETATM   16  C   UNK N   1      37.042  14.658  15.413  0.00  0.00     0.125 A 
ATOM     17  HN  UNK N   1      37.254  15.986  13.863  1.00  0.00     0.167 HD
BRANCH  16  18
HETATM   18  O   UNK N   1      37.693  15.360  16.360  0.00  0.00    -0.349 OA
HETATM   19  H   UNK N   1      37.874  14.969  17.192  0.00  0.00     0.219 HD
ENDBRANCH  16  18
ENDBRANCH   7   8
ENDBRANCH   5   7
BRANCH   6  20
HETATM   20  N   UNK N   1      34.716   9.220  20.535  0.00  0.00    -0.378 N 
HETATM   21  C   UNK N   1      34.066   9.534  21.792  0.00  0.00     0.143 C 
HETATM   22  C   UNK N   1      32.712   8.832  21.815  0.00  0.00     0.145 C 
HETATM   23  N   UNK N   1      32.909   7.433  21.498  0.00  0.00    -0.356 N 
HETATM   24  C   UNK N   1      33.606   7.077  20.281  0.00  0.00     0.145 C 
HETATM   25  C   UNK N   1      34.939   7.824  20.216  0.00  0.00     0.143 C 
BRANCH  23  26
HETATM   26  C   UNK N   1      32.481   6.458  22.334  0.00  0.00     0.350 C 
HETATM   27  O   UNK N   1      31.639   6.690  23.189  0.00  0.00    -0.284 OA
ENDBRANCH  23  26
ENDBRANCH   6  20
TORSDOF 5
ENDMDL
MODEL 9
REMARK VINA RESULT:      -6.7      3.309      8.655
REMARK  5 active torsions:
REMARK  status: ('A' for Active; 'I' for Inactive)
REMARK    1  A    between atoms: C_15  and  C_13 
REMARK    2  A    between atoms: C_18  and  C_13 
REMARK    3  A    between atoms: N_23  and  C_14 
REMARK    4  A    between atoms: N_24  and  C_16 
REMARK    5  A    between atoms: O_26  and  C_20 
ROOT
HETATM    1  C   UNK N   1      29.843  15.399   5.312  0.00  0.00     0.009 A 
HETATM    2  C   UNK N   1      30.682  17.565   4.640  0.00  0.00     0.009 A 
HETATM    3  C   UNK N   1      31.026  15.166   6.025  0.00  0.00     0.030 A 
HETATM    4  C   UNK N   1      31.849  17.345   5.363  0.00  0.00     0.030 A 
HETATM    5  C   UNK N   1      29.662  16.614   4.641  0.00  0.00    -0.057 A 
HETATM    6  C   UNK N   1      32.030  16.151   6.075  0.00  0.00     0.030 A 
ENDROOT
BRANCH   5   7
HETATM    7  C   UNK N   1      28.383  16.911   3.929  0.00  0.00     0.056 C 
BRANCH   7   8
HETATM    8  C   UNK N   1      27.373  17.730   4.759  0.00  0.00     0.100 A 
HETATM    9  C   UNK N   1      27.573  17.669   6.256  0.00  0.00    -0.019 A 
HETATM   10  C   UNK N   1      27.391  16.598   7.138  0.00  0.00     0.010 A 
HETATM   11  C   UNK N   1      27.954  18.893   6.719  0.00  0.00     0.041 A 
HETATM   12  C   UNK N   1      27.648  16.802   8.505  0.00  0.00     0.001 A 
HETATM   13  C   UNK N   1      28.064  18.067   8.967  0.00  0.00     0.002 A 
HETATM   14  C   UNK N   1      28.213  19.135   8.066  0.00  0.00     0.030 A 
HETATM   15  N   UNK N   1      28.020  19.811   5.677  0.00  0.00    -0.340 N 
HETATM   16  C   UNK N   1      27.698  19.212   4.590  0.00  0.00     0.125 A 
ATOM     17  HN  UNK N   1      28.279  20.794   5.762  1.00  0.00     0.167 HD
BRANCH  16  18
HETATM   18  O   UNK N   1      27.659  19.852   3.406  0.00  0.00    -0.349 OA
HETATM   19  H   UNK N   1      28.441  20.226   3.049  0.00  0.00     0.219 HD
ENDBRANCH  16  18
ENDBRANCH   7   8
ENDBRANCH   5   7
BRANCH   6  20
HETATM   20  N   UNK N   1      33.192  15.974   6.883  0.00  0.00    -0.378 N 
HETATM   21  C   UNK N   1      34.183  17.027   6.974  0.00  0.00     0.143 C 
HETATM   22  C   UNK N   1      34.188  17.552   8.407  0.00  0.00     0.145 C 
HETATM   23  N   UNK N   1      34.323  16.428   9.312  0.00  0.00    -0.356 N 
HETATM   24  C   UNK N   1      33.389  15.328   9.214  0.00  0.00     0.145 C 
HETATM   25  C   UNK N   1      33.328  14.834   7.768  0.00  0.00     0.143 C 
BRANCH  23  26
HETATM   26  C   UNK N   1      35.323  16.380  10.223  0.00  0.00     0.350 C 
HETATM   27  O   UNK N   1      35.924  17.392  10.550  0.00  0.00    -0.284 OA
ENDBRANCH  23  26
ENDBRANCH   6  20
TORSDOF 5
ENDMDL
