REMARK  12 active torsions:
REMARK  status: ('A' for Active; 'I' for Inactive)
REMARK    1  A    between atoms: N_2  and  C_3 
REMARK    2  A    between atoms: N_2  and  C_26 
REMARK    3  A    between atoms: C_3  and  C_4 
REMARK    4  A    between atoms: C_4  and  C_5 
REMARK    5  A    between atoms: C_5  and  C_6 
REMARK    6  A    between atoms: C_6  and  C_7 
REMARK    7  A    between atoms: C_7  and  C_8 
REMARK    8  A    between atoms: C_8  and  O_9 
REMARK    9  A    between atoms: O_9  and  C_10 
REMARK   10  A    between atoms: C_13  and  C_17 
REMARK   11  A    between atoms: C_17  and  C_19 
REMARK   12  A    between atoms: C_26  and  C_27 
ROOT
HETATM    1  C   UNK N   1       2.532  -2.752  -0.067  0.00  0.00     0.071 A 
HETATM    2  C   UNK N   1       2.647  -4.147  -0.095  0.00  0.00     0.038 A 
HETATM    3  C   UNK N   1       1.498  -4.941  -0.069  0.00  0.00     0.021 A 
HETATM    4  C   UNK N   1       0.204  -4.381  -0.011  0.00  0.00     0.053 A 
HETATM    5  C   UNK N   1       0.119  -2.951   0.025  0.00  0.00     0.133 A 
HETATM    6  F   UNK N   1      -1.026  -2.259   0.105  0.00  0.00    -0.205 F 
HETATM    7  C   UNK N   1       1.275  -2.178  -0.007  0.00  0.00     0.080 A 
ENDROOT
BRANCH   1   8
HETATM    8  O   UNK N   1       3.607  -1.936  -0.080  0.00  0.00    -0.351 OA
BRANCH   8   9
HETATM    9  C   UNK N   1       4.904  -2.381  -0.053  0.00  0.00     0.175 C 
BRANCH   9  10
HETATM   10  C   UNK N   1       5.824  -1.184   0.087  0.00  0.00     0.027 C 
BRANCH  10  11
HETATM   11  C   UNK N   1       7.210  -1.610   0.540  0.00  0.00     0.002 C 
BRANCH  11  12
HETATM   12  C   UNK N   1       7.936  -2.362  -0.564  0.00  0.00     0.002 C 
BRANCH  12  13
HETATM   13  C   UNK N   1       7.703  -3.856  -0.424  0.00  0.00     0.030 C 
BRANCH  13  14
HETATM   14  C   UNK N   1       8.701  -4.459   0.549  0.00  0.00     0.272 C 
BRANCH  14  15
HETATM   15  N   UNK N   1       9.949  -4.738  -0.141  0.00  0.00     0.087 N 
HETATM   16  C   UNK N   1      10.263  -6.134   0.120  0.00  0.00     0.310 C 
BRANCH  15  17
HETATM   17  C   UNK N   1      10.984  -3.922   0.479  0.00  0.00     0.298 C 
BRANCH  17  18
HETATM   18  C   UNK N   1      12.192  -3.865  -0.399  0.00  0.00    -0.007 C 
HETATM   19  C   UNK N   1      13.271  -3.197  -0.006  0.00  0.00     0.008 C 
ENDBRANCH  17  18
ENDBRANCH  15  17
ENDBRANCH  14  15
ENDBRANCH  13  14
ENDBRANCH  12  13
ENDBRANCH  11  12
ENDBRANCH  10  11
ENDBRANCH   9  10
ENDBRANCH   8   9
ENDBRANCH   1   8
BRANCH   4  20
HETATM   20  C   UNK N   1      -0.951  -5.369   0.009  0.00  0.00     0.195 C 
HETATM   21  O   UNK N   1      -0.646  -6.563   0.017  0.00  0.00    -0.287 OA
BRANCH  20  22
HETATM   22  C   UNK N   1      -2.423  -5.071   0.007  0.00  0.00     0.015 A 
HETATM   23  C   UNK N   1      -3.345  -6.135   0.031  0.00  0.00     0.017 A 
HETATM   24  C   UNK N   1      -4.725  -5.891   0.026  0.00  0.00     0.020 A 
HETATM   25  C   UNK N   1      -5.200  -4.576  -0.005  0.00  0.00     0.011 A 
HETATM   26 Br   UNK N   1      -7.069  -4.212  -0.008  0.00  0.00    -0.051 Br
HETATM   27  C   UNK N   1      -4.300  -3.518  -0.034  0.00  0.00     0.020 A 
HETATM   28  C   UNK N   1      -2.932  -3.773  -0.031  0.00  0.00     0.017 A 
ENDBRANCH  20  22
ENDBRANCH   4  20
TORSDOF 12
