MODEL 1
REMARK VINA RESULT:      -5.1      0.000      0.000
REMARK  7 active torsions:
REMARK  status: ('A' for Active; 'I' for Inactive)
REMARK       I    between atoms: N_2  and  C_3 
REMARK       I    between atoms: C_3  and  N_4 
REMARK    1  A    between atoms: N_4  and  C_5 
REMARK    2  A    between atoms: C_5  and  C_6 
REMARK    3  A    between atoms: C_6  and  C_7 
REMARK    4  A    between atoms: C_7  and  C_8 
REMARK    5  A    between atoms: C_8  and  N_9 
REMARK    6  A    between atoms: C_8  and  C_10 
REMARK    7  A    between atoms: C_10  and  O_11 
ROOT
HETATM    1  C   UNK N   1      36.535  14.480   9.918  0.00  0.00     0.138 C 
ENDROOT
BRANCH   1   2
HETATM    2  N   UNK N   1      36.695  14.951  11.278  0.00  0.00    -0.227 N 
HETATM    3  C   UNK N   1      36.319  14.200  12.429  0.00  0.00     0.668 C 
HETATM    4  N   UNK N   1      36.717  14.705  13.710  0.00  0.00    -0.231 N 
HETATM    5  N   UNK N   1      35.627  13.113  12.280  0.00  0.00    -0.231 N 
HETATM    6  C   UNK N   1      36.522  14.048  14.977  0.00  0.00     0.165 C 
HETATM    7  H   UNK N   1      37.164  15.582  13.724  0.00  0.00     0.177 HD
HETATM    8  C   UNK N   1      35.137  12.271  13.341  0.00  0.00     0.165 C 
ATOM      9  HN  UNK N   1      35.409  12.830  11.325  1.00  0.00     0.177 HD
HETATM   10  H   UNK N   1      37.087  15.843  11.416  0.00  0.00     0.177 HD
ENDBRANCH   1   2
BRANCH   1  11
HETATM   11  C   UNK N   1      35.412  15.213   9.190  0.00  0.00     0.023 C 
BRANCH  11  12
HETATM   12  C   UNK N   1      35.058  16.547   9.832  0.00  0.00     0.037 C 
BRANCH  12  13
HETATM   13  C   UNK N   1      33.977  17.292   9.063  0.00  0.00     0.173 C 
BRANCH  13  14
HETATM   14  N   UNK N   1      33.160  16.325   8.346  0.00  0.00    -0.418 N 
HETATM   15  H   UNK N   1      33.437  16.012   7.416  0.00  0.00     0.150 HD
HETATM   16  H   UNK N   1      32.309  15.961   8.774  0.00  0.00     0.150 HD
ENDBRANCH  13  14
BRANCH  13  17
HETATM   17  C   UNK N   1      34.599  18.275   8.114  0.00  0.00     0.163 C 
HETATM   18  O   UNK N   1      34.440  18.138   6.911  0.00  0.00    -0.648 OA
BRANCH  17  19
HETATM   19  O   UNK N   1      35.345  19.298   8.574  0.00  0.00    -0.775 OA
HETATM   20  H   UNK N   1      34.946  20.041   8.985  0.00  0.00     0.167 HD
ENDBRANCH  17  19
ENDBRANCH  13  17
ENDBRANCH  12  13
ENDBRANCH  11  12
ENDBRANCH   1  11
TORSDOF 7
ENDMDL
MODEL 2
REMARK VINA RESULT:      -5.0      3.996      5.182
REMARK  7 active torsions:
REMARK  status: ('A' for Active; 'I' for Inactive)
REMARK       I    between atoms: N_2  and  C_3 
REMARK       I    between atoms: C_3  and  N_4 
REMARK    1  A    between atoms: N_4  and  C_5 
REMARK    2  A    between atoms: C_5  and  C_6 
REMARK    3  A    between atoms: C_6  and  C_7 
REMARK    4  A    between atoms: C_7  and  C_8 
REMARK    5  A    between atoms: C_8  and  N_9 
REMARK    6  A    between atoms: C_8  and  C_10 
REMARK    7  A    between atoms: C_10  and  O_11 
ROOT
HETATM    1  C   UNK N   1      32.618  17.369   7.955  0.00  0.00     0.138 C 
ENDROOT
BRANCH   1   2
HETATM    2  N   UNK N   1      33.400  17.492   9.168  0.00  0.00    -0.227 N 
HETATM    3  C   UNK N   1      34.149  16.426   9.744  0.00  0.00     0.668 C 
HETATM    4  N   UNK N   1      35.029  16.745  10.829  0.00  0.00    -0.231 N 
HETATM    5  N   UNK N   1      33.996  15.223   9.285  0.00  0.00    -0.231 N 
HETATM    6  C   UNK N   1      35.939  15.834  11.476  0.00  0.00     0.165 C 
HETATM    7  H   UNK N   1      35.009  17.671  11.163  0.00  0.00     0.177 HD
HETATM    8  C   UNK N   1      34.647  14.038   9.785  0.00  0.00     0.165 C 
ATOM      9  HN  UNK N   1      33.359  15.105   8.499  1.00  0.00     0.177 HD
HETATM   10  H   UNK N   1      33.414  18.366   9.622  0.00  0.00     0.177 HD
ENDBRANCH   1   2
BRANCH   1  11
HETATM   11  C   UNK N   1      31.132  17.193   8.251  0.00  0.00     0.023 C 
BRANCH  11  12
HETATM   12  C   UNK N   1      30.499  18.428   8.875  0.00  0.00     0.037 C 
BRANCH  12  13
HETATM   13  C   UNK N   1      29.439  18.078   9.909  0.00  0.00     0.173 C 
BRANCH  13  14
HETATM   14  N   UNK N   1      29.795  16.816  10.537  0.00  0.00    -0.418 N 
HETATM   15  H   UNK N   1      30.455  16.799  11.314  0.00  0.00     0.150 HD
HETATM   16  H   UNK N   1      29.385  15.945  10.199  0.00  0.00     0.150 HD
ENDBRANCH  13  14
BRANCH  13  17
HETATM   17  C   UNK N   1      28.089  17.988   9.257  0.00  0.00     0.163 C 
HETATM   18  O   UNK N   1      27.497  16.921   9.236  0.00  0.00    -0.648 OA
BRANCH  17  19
HETATM   19  O   UNK N   1      27.530  19.070   8.680  0.00  0.00    -0.775 OA
HETATM   20  H   UNK N   1      26.875  19.571   9.126  0.00  0.00     0.167 HD
ENDBRANCH  17  19
ENDBRANCH  13  17
ENDBRANCH  12  13
ENDBRANCH  11  12
ENDBRANCH   1  11
TORSDOF 7
ENDMDL
MODEL 3
REMARK VINA RESULT:      -5.0     12.830     14.753
REMARK  7 active torsions:
REMARK  status: ('A' for Active; 'I' for Inactive)
REMARK       I    between atoms: N_2  and  C_3 
REMARK       I    between atoms: C_3  and  N_4 
REMARK    1  A    between atoms: N_4  and  C_5 
REMARK    2  A    between atoms: C_5  and  C_6 
REMARK    3  A    between atoms: C_6  and  C_7 
REMARK    4  A    between atoms: C_7  and  C_8 
REMARK    5  A    between atoms: C_8  and  N_9 
REMARK    6  A    between atoms: C_8  and  C_10 
REMARK    7  A    between atoms: C_10  and  O_11 
ROOT
HETATM    1  C   UNK N   1      20.957  13.811   8.406  0.00  0.00     0.138 C 
ENDROOT
BRANCH   1   2
HETATM    2  N   UNK N   1      20.691  15.214   8.162  0.00  0.00    -0.227 N 
HETATM    3  C   UNK N   1      21.430  16.016   7.246  0.00  0.00     0.668 C 
HETATM    4  N   UNK N   1      20.931  17.330   6.963  0.00  0.00    -0.231 N 
HETATM    5  N   UNK N   1      22.519  15.544   6.724  0.00  0.00    -0.231 N 
HETATM    6  C   UNK N   1      21.474  18.251   5.997  0.00  0.00     0.165 C 
HETATM    7  H   UNK N   1      20.146  17.629   7.475  0.00  0.00     0.177 HD
HETATM    8  C   UNK N   1      23.395  16.243   5.818  0.00  0.00     0.165 C 
ATOM      9  HN  UNK N   1      22.778  14.591   6.977  1.00  0.00     0.177 HD
HETATM   10  H   UNK N   1      19.956  15.639   8.660  0.00  0.00     0.177 HD
ENDBRANCH   1   2
BRANCH   1  11
HETATM   11  C   UNK N   1      21.186  13.523   9.886  0.00  0.00     0.023 C 
BRANCH  11  12
HETATM   12  C   UNK N   1      22.613  13.095  10.195  0.00  0.00     0.037 C 
BRANCH  12  13
HETATM   13  C   UNK N   1      22.670  11.902  11.137  0.00  0.00     0.173 C 
BRANCH  13  14
HETATM   14  N   UNK N   1      21.389  11.778  11.815  0.00  0.00    -0.418 N 
HETATM   15  H   UNK N   1      20.949  10.863  11.913  0.00  0.00     0.150 HD
HETATM   16  H   UNK N   1      20.930  12.607  12.192  0.00  0.00     0.150 HD
ENDBRANCH  13  14
BRANCH  13  17
HETATM   17  C   UNK N   1      23.784  12.077  12.129  0.00  0.00     0.163 C 
HETATM   18  O   UNK N   1      23.544  12.025  13.325  0.00  0.00    -0.648 OA
BRANCH  17  19
HETATM   19  O   UNK N   1      25.045  12.306  11.714  0.00  0.00    -0.775 OA
HETATM   20  H   UNK N   1      25.402  11.850  10.976  0.00  0.00     0.167 HD
ENDBRANCH  17  19
ENDBRANCH  13  17
ENDBRANCH  12  13
ENDBRANCH  11  12
ENDBRANCH   1  11
TORSDOF 7
ENDMDL
MODEL 4
REMARK VINA RESULT:      -4.9      4.874      8.484
REMARK  7 active torsions:
REMARK  status: ('A' for Active; 'I' for Inactive)
REMARK       I    between atoms: N_2  and  C_3 
REMARK       I    between atoms: C_3  and  N_4 
REMARK    1  A    between atoms: N_4  and  C_5 
REMARK    2  A    between atoms: C_5  and  C_6 
REMARK    3  A    between atoms: C_6  and  C_7 
REMARK    4  A    between atoms: C_7  and  C_8 
REMARK    5  A    between atoms: C_8  and  N_9 
REMARK    6  A    between atoms: C_8  and  C_10 
REMARK    7  A    between atoms: C_10  and  O_11 
ROOT
HETATM    1  C   UNK N   1      29.669  17.267   7.984  0.00  0.00     0.138 C 
ENDROOT
BRANCH   1   2
HETATM    2  N   UNK N   1      28.911  18.499   7.910  0.00  0.00    -0.227 N 
HETATM    3  C   UNK N   1      28.106  18.872   6.796  0.00  0.00     0.668 C 
HETATM    4  N   UNK N   1      27.260  20.019   6.943  0.00  0.00    -0.231 N 
HETATM    5  N   UNK N   1      28.179  18.181   5.701  0.00  0.00    -0.231 N 
HETATM    6  C   UNK N   1      26.304  20.496   5.977  0.00  0.00     0.165 C 
HETATM    7  H   UNK N   1      27.340  20.528   7.782  0.00  0.00     0.177 HD
HETATM    8  C   UNK N   1      27.463  18.455   4.480  0.00  0.00     0.165 C 
ATOM      9  HN  UNK N   1      28.799  17.372   5.704  1.00  0.00     0.177 HD
HETATM   10  H   UNK N   1      28.956  19.117   8.676  0.00  0.00     0.177 HD
ENDBRANCH   1   2
BRANCH   1  11
HETATM   11  C   UNK N   1      31.111  17.457   7.523  0.00  0.00     0.023 C 
BRANCH  11  12
HETATM   12  C   UNK N   1      32.045  17.878   8.647  0.00  0.00     0.037 C 
BRANCH  12  13
HETATM   13  C   UNK N   1      33.422  17.243   8.526  0.00  0.00     0.173 C 
BRANCH  13  14
HETATM   14  N   UNK N   1      33.950  17.010   9.861  0.00  0.00    -0.418 N 
HETATM   15  H   UNK N   1      34.761  17.535  10.190  0.00  0.00     0.150 HD
HETATM   16  H   UNK N   1      33.510  16.320  10.469  0.00  0.00     0.150 HD
ENDBRANCH  13  14
BRANCH  13  17
HETATM   17  C   UNK N   1      34.338  18.136   7.738  0.00  0.00     0.163 C 
HETATM   18  O   UNK N   1      34.958  19.021   8.306  0.00  0.00    -0.648 OA
BRANCH  17  19
HETATM   19  O   UNK N   1      34.470  17.981   6.406  0.00  0.00    -0.775 OA
HETATM   20  H   UNK N   1      33.791  17.583   5.896  0.00  0.00     0.167 HD
ENDBRANCH  17  19
ENDBRANCH  13  17
ENDBRANCH  12  13
ENDBRANCH  11  12
ENDBRANCH   1  11
TORSDOF 7
ENDMDL
MODEL 5
REMARK VINA RESULT:      -4.8     12.798     15.391
REMARK  7 active torsions:
REMARK  status: ('A' for Active; 'I' for Inactive)
REMARK       I    between atoms: N_2  and  C_3 
REMARK       I    between atoms: C_3  and  N_4 
REMARK    1  A    between atoms: N_4  and  C_5 
REMARK    2  A    between atoms: C_5  and  C_6 
REMARK    3  A    between atoms: C_6  and  C_7 
REMARK    4  A    between atoms: C_7  and  C_8 
REMARK    5  A    between atoms: C_8  and  N_9 
REMARK    6  A    between atoms: C_8  and  C_10 
REMARK    7  A    between atoms: C_10  and  O_11 
ROOT
HETATM    1  C   UNK N   1      22.515  17.626   3.911  0.00  0.00     0.138 C 
ENDROOT
BRANCH   1   2
HETATM    2  N   UNK N   1      23.294  18.846   3.865  0.00  0.00    -0.227 N 
HETATM    3  C   UNK N   1      24.718  18.881   3.888  0.00  0.00     0.668 C 
HETATM    4  N   UNK N   1      25.354  20.141   3.637  0.00  0.00    -0.231 N 
HETATM    5  N   UNK N   1      25.376  17.794   4.149  0.00  0.00    -0.231 N 
HETATM    6  C   UNK N   1      26.772  20.364   3.519  0.00  0.00     0.165 C 
HETATM    7  H   UNK N   1      24.767  20.925   3.536  0.00  0.00     0.177 HD
HETATM    8  C   UNK N   1      26.809  17.677   4.250  0.00  0.00     0.165 C 
ATOM      9  HN  UNK N   1      24.830  16.947   4.296  1.00  0.00     0.177 HD
HETATM   10  H   UNK N   1      22.811  19.702   3.814  0.00  0.00     0.177 HD
ENDBRANCH   1   2
BRANCH   1  11
HETATM   11  C   UNK N   1      21.024  17.895   3.732  0.00  0.00     0.023 C 
BRANCH  11  12
HETATM   12  C   UNK N   1      20.706  19.368   3.520  0.00  0.00     0.037 C 
BRANCH  12  13
HETATM   13  C   UNK N   1      20.036  19.630   2.180  0.00  0.00     0.173 C 
BRANCH  13  14
HETATM   14  N   UNK N   1      19.632  18.360   1.600  0.00  0.00    -0.418 N 
HETATM   15  H   UNK N   1      18.644  18.157   1.448  0.00  0.00     0.150 HD
HETATM   16  H   UNK N   1      20.338  17.668   1.346  0.00  0.00     0.150 HD
ENDBRANCH  13  14
BRANCH  13  17
HETATM   17  C   UNK N   1      20.976  20.361   1.264  0.00  0.00     0.163 C 
HETATM   18  O   UNK N   1      22.059  20.738   1.683  0.00  0.00    -0.648 OA
BRANCH  17  19
HETATM   19  O   UNK N   1      20.629  20.620  -0.012  0.00  0.00    -0.775 OA
HETATM   20  H   UNK N   1      20.702  21.485  -0.367  0.00  0.00     0.167 HD
ENDBRANCH  17  19
ENDBRANCH  13  17
ENDBRANCH  12  13
ENDBRANCH  11  12
ENDBRANCH   1  11
TORSDOF 7
ENDMDL
MODEL 6
REMARK VINA RESULT:      -4.7      5.452      8.989
REMARK  7 active torsions:
REMARK  status: ('A' for Active; 'I' for Inactive)
REMARK       I    between atoms: N_2  and  C_3 
REMARK       I    between atoms: C_3  and  N_4 
REMARK    1  A    between atoms: N_4  and  C_5 
REMARK    2  A    between atoms: C_5  and  C_6 
REMARK    3  A    between atoms: C_6  and  C_7 
REMARK    4  A    between atoms: C_7  and  C_8 
REMARK    5  A    between atoms: C_8  and  N_9 
REMARK    6  A    between atoms: C_8  and  C_10 
REMARK    7  A    between atoms: C_10  and  O_11 
ROOT
HETATM    1  C   UNK N   1      28.267  17.664   9.024  0.00  0.00     0.138 C 
ENDROOT
BRANCH   1   2
HETATM    2  N   UNK N   1      27.654  18.923   8.655  0.00  0.00    -0.227 N 
HETATM    3  C   UNK N   1      27.545  19.391   7.314  0.00  0.00     0.668 C 
HETATM    4  N   UNK N   1      26.741  20.555   7.081  0.00  0.00    -0.231 N 
HETATM    5  N   UNK N   1      28.181  18.770   6.371  0.00  0.00    -0.231 N 
HETATM    6  C   UNK N   1      26.427  21.123   5.796  0.00  0.00     0.165 C 
HETATM    7  H   UNK N   1      26.369  21.006   7.873  0.00  0.00     0.177 HD
HETATM    8  C   UNK N   1      28.206  19.143   4.979  0.00  0.00     0.165 C 
ATOM      9  HN  UNK N   1      28.713  17.942   6.638  1.00  0.00     0.177 HD
HETATM   10  H   UNK N   1      27.289  19.488   9.374  0.00  0.00     0.177 HD
ENDBRANCH   1   2
BRANCH   1  11
HETATM   11  C   UNK N   1      29.555  17.869   9.815  0.00  0.00     0.023 C 
BRANCH  11  12
HETATM   12  C   UNK N   1      30.719  18.329   8.949  0.00  0.00     0.037 C 
BRANCH  12  13
HETATM   13  C   UNK N   1      31.573  17.169   8.461  0.00  0.00     0.173 C 
BRANCH  13  14
HETATM   14  N   UNK N   1      32.913  17.309   9.007  0.00  0.00    -0.418 N 
HETATM   15  H   UNK N   1      33.597  16.563   8.884  0.00  0.00     0.150 HD
HETATM   16  H   UNK N   1      33.170  18.156   9.516  0.00  0.00     0.150 HD
ENDBRANCH  13  14
BRANCH  13  17
HETATM   17  C   UNK N   1      31.609  17.146   6.959  0.00  0.00     0.163 C 
HETATM   18  O   UNK N   1      30.592  16.891   6.334  0.00  0.00    -0.648 OA
BRANCH  17  19
HETATM   19  O   UNK N   1      32.755  17.389   6.295  0.00  0.00    -0.775 OA
HETATM   20  H   UNK N   1      32.991  18.260   6.038  0.00  0.00     0.167 HD
ENDBRANCH  17  19
ENDBRANCH  13  17
ENDBRANCH  12  13
ENDBRANCH  11  12
ENDBRANCH   1  11
TORSDOF 7
ENDMDL
MODEL 7
REMARK VINA RESULT:      -4.5     12.974     14.991
REMARK  7 active torsions:
REMARK  status: ('A' for Active; 'I' for Inactive)
REMARK       I    between atoms: N_2  and  C_3 
REMARK       I    between atoms: C_3  and  N_4 
REMARK    1  A    between atoms: N_4  and  C_5 
REMARK    2  A    between atoms: C_5  and  C_6 
REMARK    3  A    between atoms: C_6  and  C_7 
REMARK    4  A    between atoms: C_7  and  C_8 
REMARK    5  A    between atoms: C_8  and  N_9 
REMARK    6  A    between atoms: C_8  and  C_10 
REMARK    7  A    between atoms: C_10  and  O_11 
ROOT
HETATM    1  C   UNK N   1      41.081  23.082   1.568  0.00  0.00     0.138 C 
ENDROOT
BRANCH   1   2
HETATM    2  N   UNK N   1      40.965  24.490   1.247  0.00  0.00    -0.227 N 
HETATM    3  C   UNK N   1      40.225  24.995   0.140  0.00  0.00     0.668 C 
HETATM    4  N   UNK N   1      40.035  26.414   0.061  0.00  0.00    -0.231 N 
HETATM    5  N   UNK N   1      39.772  24.169  -0.751  0.00  0.00    -0.231 N 
HETATM    6  C   UNK N   1      39.239  27.108  -0.918  0.00  0.00     0.165 C 
HETATM    7  H   UNK N   1      40.491  26.964   0.738  0.00  0.00     0.177 HD
HETATM    8  C   UNK N   1      39.046  24.526  -1.943  0.00  0.00     0.165 C 
ATOM      9  HN  UNK N   1      39.946  23.177  -0.594  1.00  0.00     0.177 HD
HETATM   10  H   UNK N   1      41.426  25.137   1.829  0.00  0.00     0.177 HD
ENDBRANCH   1   2
BRANCH   1  11
HETATM   11  C   UNK N   1      42.512  22.696   1.925  0.00  0.00     0.023 C 
BRANCH  11  12
HETATM   12  C   UNK N   1      42.596  21.755   3.118  0.00  0.00     0.037 C 
BRANCH  12  13
HETATM   13  C   UNK N   1      43.537  22.269   4.197  0.00  0.00     0.173 C 
BRANCH  13  14
HETATM   14  N   UNK N   1      43.552  23.722   4.155  0.00  0.00    -0.418 N 
HETATM   15  H   UNK N   1      44.417  24.231   4.338  0.00  0.00     0.150 HD
HETATM   16  H   UNK N   1      42.696  24.234   3.941  0.00  0.00     0.150 HD
ENDBRANCH  13  14
BRANCH  13  17
HETATM   17  C   UNK N   1      44.918  21.714   3.988  0.00  0.00     0.163 C 
HETATM   18  O   UNK N   1      45.056  20.560   3.616  0.00  0.00    -0.648 OA
BRANCH  17  19
HETATM   19  O   UNK N   1      46.006  22.472   4.223  0.00  0.00    -0.775 OA
HETATM   20  H   UNK N   1      46.318  23.082   3.583  0.00  0.00     0.167 HD
ENDBRANCH  17  19
ENDBRANCH  13  17
ENDBRANCH  12  13
ENDBRANCH  11  12
ENDBRANCH   1  11
TORSDOF 7
ENDMDL
MODEL 8
REMARK VINA RESULT:      -4.5     12.669     14.390
REMARK  7 active torsions:
REMARK  status: ('A' for Active; 'I' for Inactive)
REMARK       I    between atoms: N_2  and  C_3 
REMARK       I    between atoms: C_3  and  N_4 
REMARK    1  A    between atoms: N_4  and  C_5 
REMARK    2  A    between atoms: C_5  and  C_6 
REMARK    3  A    between atoms: C_6  and  C_7 
REMARK    4  A    between atoms: C_7  and  C_8 
REMARK    5  A    between atoms: C_8  and  N_9 
REMARK    6  A    between atoms: C_8  and  C_10 
REMARK    7  A    between atoms: C_10  and  O_11 
ROOT
HETATM    1  C   UNK N   1      41.302  21.338   2.520  0.00  0.00     0.138 C 
ENDROOT
BRANCH   1   2
HETATM    2  N   UNK N   1      41.352  22.770   2.303  0.00  0.00    -0.227 N 
HETATM    3  C   UNK N   1      40.888  23.411   1.119  0.00  0.00     0.668 C 
HETATM    4  N   UNK N   1      40.817  24.842   1.124  0.00  0.00    -0.231 N 
HETATM    5  N   UNK N   1      40.568  22.689   0.090  0.00  0.00    -0.231 N 
HETATM    6  C   UNK N   1      40.285  25.667   0.070  0.00  0.00     0.165 C 
HETATM    7  H   UNK N   1      41.164  25.303   1.921  0.00  0.00     0.177 HD
HETATM    8  C   UNK N   1      40.124  23.188  -1.187  0.00  0.00     0.165 C 
ATOM      9  HN  UNK N   1      40.637  21.678   0.194  1.00  0.00     0.177 HD
HETATM   10  H   UNK N   1      41.730  23.333   3.016  0.00  0.00     0.177 HD
ENDBRANCH   1   2
BRANCH   1  11
HETATM   11  C   UNK N   1      42.639  20.790   3.010  0.00  0.00     0.023 C 
BRANCH  11  12
HETATM   12  C   UNK N   1      43.429  21.795   3.835  0.00  0.00     0.037 C 
BRANCH  12  13
HETATM   13  C   UNK N   1      44.760  22.155   3.192  0.00  0.00     0.173 C 
BRANCH  13  14
HETATM   14  N   UNK N   1      45.760  22.305   4.237  0.00  0.00    -0.418 N 
HETATM   15  H   UNK N   1      45.514  22.125   5.211  0.00  0.00     0.150 HD
HETATM   16  H   UNK N   1      46.709  22.590   3.997  0.00  0.00     0.150 HD
ENDBRANCH  13  14
BRANCH  13  17
HETATM   17  C   UNK N   1      44.626  23.422   2.396  0.00  0.00     0.163 C 
HETATM   18  O   UNK N   1      44.374  23.363   1.203  0.00  0.00    -0.648 OA
BRANCH  17  19
HETATM   19  O   UNK N   1      44.797  24.623   2.981  0.00  0.00    -0.775 OA
HETATM   20  H   UNK N   1      44.062  25.162   3.203  0.00  0.00     0.167 HD
ENDBRANCH  17  19
ENDBRANCH  13  17
ENDBRANCH  12  13
ENDBRANCH  11  12
ENDBRANCH   1  11
TORSDOF 7
ENDMDL
MODEL 9
REMARK VINA RESULT:      -4.5      3.179      4.324
REMARK  7 active torsions:
REMARK  status: ('A' for Active; 'I' for Inactive)
REMARK       I    between atoms: N_2  and  C_3 
REMARK       I    between atoms: C_3  and  N_4 
REMARK    1  A    between atoms: N_4  and  C_5 
REMARK    2  A    between atoms: C_5  and  C_6 
REMARK    3  A    between atoms: C_6  and  C_7 
REMARK    4  A    between atoms: C_7  and  C_8 
REMARK    5  A    between atoms: C_8  and  N_9 
REMARK    6  A    between atoms: C_8  and  C_10 
REMARK    7  A    between atoms: C_10  and  O_11 
ROOT
HETATM    1  C   UNK N   1      35.733  12.394  14.160  0.00  0.00     0.138 C 
ENDROOT
BRANCH   1   2
HETATM    2  N   UNK N   1      35.231  13.034  15.359  0.00  0.00    -0.227 N 
HETATM    3  C   UNK N   1      35.368  12.489  16.668  0.00  0.00     0.668 C 
HETATM    4  N   UNK N   1      35.001  13.322  17.774  0.00  0.00    -0.231 N 
HETATM    5  N   UNK N   1      35.794  11.272  16.807  0.00  0.00    -0.231 N 
HETATM    6  C   UNK N   1      35.158  12.995  19.169  0.00  0.00     0.165 C 
HETATM    7  H   UNK N   1      34.607  14.198  17.562  0.00  0.00     0.177 HD
HETATM    8  C   UNK N   1      35.945  10.567  18.055  0.00  0.00     0.165 C 
ATOM      9  HN  UNK N   1      36.045  10.769  15.957  1.00  0.00     0.177 HD
HETATM   10  H   UNK N   1      34.769  13.898  15.263  0.00  0.00     0.177 HD
ENDBRANCH   1   2
BRANCH   1  11
HETATM   11  C   UNK N   1      35.249  13.095  12.895  0.00  0.00     0.023 C 
BRANCH  11  12
HETATM   12  C   UNK N   1      35.879  14.465  12.695  0.00  0.00     0.037 C 
BRANCH  12  13
HETATM   13  C   UNK N   1      35.030  15.373  11.818  0.00  0.00     0.173 C 
BRANCH  13  14
HETATM   14  N   UNK N   1      34.149  14.550  11.005  0.00  0.00    -0.418 N 
HETATM   15  H   UNK N   1      34.300  13.544  10.945  0.00  0.00     0.150 HD
HETATM   16  H   UNK N   1      33.379  14.981  10.494  0.00  0.00     0.150 HD
ENDBRANCH  13  14
BRANCH  13  17
HETATM   17  C   UNK N   1      35.910  16.230  10.953  0.00  0.00     0.163 C 
HETATM   18  O   UNK N   1      35.454  17.238  10.437  0.00  0.00    -0.648 OA
BRANCH  17  19
HETATM   19  O   UNK N   1      37.193  15.890  10.727  0.00  0.00    -0.775 OA
HETATM   20  H   UNK N   1      37.802  15.799  11.435  0.00  0.00     0.167 HD
ENDBRANCH  17  19
ENDBRANCH  13  17
ENDBRANCH  12  13
ENDBRANCH  11  12
ENDBRANCH   1  11
TORSDOF 7
ENDMDL
