REMARK  13 active torsions:
REMARK  status: ('A' for Active; 'I' for Inactive)
REMARK    1  A    between atoms: C_19  and  C_4 
REMARK    2  A    between atoms: C_24  and  C_19 
REMARK    3  A    between atoms: C_30  and  C_20 
REMARK    4  A    between atoms: C_32  and  C_21 
REMARK    5  A    between atoms: C_31  and  C_22 
REMARK    6  A    between atoms: O_41  and  C_23 
REMARK    7  A    between atoms: C_30  and  C_25 
REMARK    8  A    between atoms: C_26  and  N_34 
REMARK    9  A    between atoms: O_36  and  C_27 
REMARK   10  A    between atoms: O_37  and  C_28 
REMARK   11  A    between atoms: C_29  and  O_42 
REMARK   12  A    between atoms: C_31  and  O_39 
REMARK   13  A    between atoms: O_42  and  C_32 
ROOT
HETATM    1  C   UNK N   1       0.580   4.549   0.672  0.00  0.00     0.022 C 
HETATM    2  C   UNK N   1       0.553   3.157   0.072  0.00  0.00     0.036 C 
HETATM    3  C   UNK N   1       1.224   5.484  -0.344  0.00  0.00     0.114 C 
HETATM    4  C   UNK N   1       3.166   4.123  -0.800  0.00  0.00     0.141 C 
HETATM    5  C   UNK N   1       3.156   3.101   0.341  0.00  0.00     0.130 C 
HETATM    6  C   UNK N   1       1.785   2.319   0.423  0.00  0.00     0.156 C 
HETATM    7  N   UNK N   1       2.683   5.415  -0.299  0.00  0.00    -0.419 N 
HETATM    8  H   UNK N   1       3.286   6.166   0.036  0.00  0.00     0.153 HD
ENDROOT
BRANCH   6   9
HETATM    9  O   UNK N   1       1.755   1.165  -0.362  0.00  0.00    -0.310 OA
BRANCH   9  10
HETATM   10  C   UNK N   1       2.480   0.066  -0.012  0.00  0.00     0.293 C 
HETATM   11  O   UNK N   1       3.107   0.059   1.039  0.00  0.00    -0.259 OA
BRANCH  10  12
HETATM   12  C   UNK N   1       2.477  -1.181  -0.762  0.00  0.00     0.039 C 
HETATM   13  C   UNK N   1       3.735  -1.712  -1.043  0.00  0.00     0.018 C 
HETATM   14  C   UNK N   1       3.940  -3.078  -1.058  0.00  0.00     0.016 C 
HETATM   15  C   UNK N   1       2.919  -3.950  -0.709  0.00  0.00     0.015 C 
HETATM   16  C   UNK N   1       1.619  -3.433  -0.542  0.00  0.00     0.016 C 
HETATM   17  C   UNK N   1       1.403  -2.050  -0.548  0.00  0.00     0.018 C 
BRANCH  15  18
HETATM   18  C   UNK N   1       3.179  -5.387  -0.413  0.00  0.00     0.195 C 
HETATM   19  O   UNK N   1       2.198  -6.115  -0.327  0.00  0.00    -0.287 OA
BRANCH  18  20
HETATM   20  C   UNK N   1       4.534  -6.019  -0.136  0.00  0.00     0.051 A 
HETATM   21  C   UNK N   1       4.546  -7.424  -0.093  0.00  0.00     0.055 A 
HETATM   22  C   UNK N   1       5.713  -8.153   0.172  0.00  0.00     0.069 A 
HETATM   23  C   UNK N   1       6.907  -7.477   0.392  0.00  0.00     0.039 A 
HETATM   24  C   UNK N   1       6.931  -6.089   0.387  0.00  0.00     0.040 A 
HETATM   25  C   UNK N   1       5.771  -5.349   0.146  0.00  0.00     0.080 A 
BRANCH  22  26
HETATM   26  O   UNK N   1       5.704  -9.505   0.231  0.00  0.00    -0.356 OA
HETATM   27  C   UNK N   1       4.556 -10.253   0.103  0.00  0.00     0.210 C 
ENDBRANCH  22  26
BRANCH  25  28
HETATM   28  O   UNK N   1       5.875  -4.020   0.247  0.00  0.00    -0.360 OA
HETATM   29  H   UNK N   1       6.719  -3.618   0.317  0.00  0.00     0.217 HD
ENDBRANCH  25  28
ENDBRANCH  18  20
ENDBRANCH  15  18
ENDBRANCH  10  12
ENDBRANCH   9  10
ENDBRANCH   6   9
BRANCH   5  30
HETATM   30  N   UNK N   1       4.262   2.166   0.222  0.00  0.00    -0.362 N 
HETATM   31  C   UNK N   1       5.525   2.437   0.114  0.00  0.00     0.146 C 
ATOM     32  HN  UNK N   1       4.015   1.176   0.225  1.00  0.00     0.162 HD
BRANCH  31  33
HETATM   33  C   UNK N   1       6.492   1.309   0.040  0.00  0.00     0.015 A 
HETATM   34  C   UNK N   1       6.048  -0.002   0.223  0.00  0.00     0.018 A 
HETATM   35  C   UNK N   1       6.935  -1.072   0.162  0.00  0.00     0.038 A 
HETATM   36  C   UNK N   1       8.289  -0.859  -0.088  0.00  0.00     0.072 A 
HETATM   37  C   UNK N   1       8.776   0.464  -0.275  0.00  0.00    -0.020 A 
HETATM   38  C   UNK N   1       7.855   1.535  -0.208  0.00  0.00     0.026 A 
BRANCH  36  39
HETATM   39  O   UNK N   1       9.093  -1.931  -0.163  0.00  0.00    -0.360 OA
HETATM   40  H   UNK N   1       8.726  -2.792  -0.215  0.00  0.00     0.217 HD
ENDBRANCH  36  39
BRANCH  37  41
HETATM   41  C   UNK N   1      10.232   0.813  -0.582  0.00  0.00     0.017 C 
HETATM   42  C   UNK N   1      10.748   1.858   0.402  0.00  0.00     0.015 C 
BRANCH  41  43
HETATM   43  C   UNK N   1      11.240  -0.344  -0.666  0.00  0.00     0.004 C 
HETATM   44  C   UNK N   1      11.595  -0.944   0.691  0.00  0.00     0.006 C 
ENDBRANCH  41  43
ENDBRANCH  37  41
ENDBRANCH  31  33
BRANCH  31  45
HETATM   45  O   UNK N   1       5.954   3.712   0.063  0.00  0.00    -0.346 OA
HETATM   46  H   UNK N   1       6.872   3.897   0.027  0.00  0.00     0.219 HD
ENDBRANCH  31  45
ENDBRANCH   5  30
TORSDOF 13
