REMARK  8 active torsions:
REMARK  status: ('A' for Active; 'I' for Inactive)
REMARK    1  A    between atoms: C_3  and  C_4 
REMARK    2  A    between atoms: C_4  and  C_5 
REMARK    3  A    between atoms: C_5  and  O_6 
REMARK    4  A    between atoms: O_6  and  P_7 
REMARK    5  A    between atoms: N_13  and  C_14 
REMARK    6  A    between atoms: C_14  and  C_15 
REMARK    7  A    between atoms: C_19  and  C_24 
REMARK    8  A    between atoms: C_22  and  N_23 
ROOT
HETATM    1  C   UNK N   1      -1.282  -2.862   0.527  0.00  0.00     0.019 A 
HETATM    2  C   UNK N   1      -2.366  -2.951  -0.340  0.00  0.00     0.102 A 
HETATM    3  N   UNK N   1      -3.020  -1.826  -0.723  0.00  0.00    -0.348 N 
ATOM      4  HN  UNK N   1      -3.818  -1.898  -1.355  1.00  0.00     0.166 HD
HETATM    5  C   UNK N   1      -2.626  -0.602  -0.276  0.00  0.00     0.192 A 
HETATM    6  N   UNK N   1      -1.590  -0.498   0.599  0.00  0.00    -0.325 N 
ATOM      7  HN  UNK N   1      -1.317   0.421   0.947  1.00  0.00     0.169 HD
HETATM    8  C   UNK N   1      -0.914  -1.601   1.017  0.00  0.00     0.109 A 
ENDROOT
BRANCH   1   9
HETATM    9  C   UNK N   1      -0.488  -4.097   0.839  0.00  0.00     0.172 C 
BRANCH   9  10
HETATM   10  N   UNK N   1       0.818  -4.090   0.160  0.00  0.00    -0.349 N 
HETATM   11  C   UNK N   1       1.284  -3.050  -0.596  0.00  0.00     0.141 A 
HETATM   12  S   UNK N   1       2.777  -3.456  -1.173  0.00  0.00    -0.087 SA
HETATM   13  C   UNK N   1       2.892  -4.955  -0.493  0.00  0.00     0.008 A 
HETATM   14  C   UNK N   1       1.700  -5.154   0.215  0.00  0.00     0.021 A 
HETATM   15  C   UNK N   1       1.406  -6.410   0.967  0.00  0.00     0.069 C 
BRANCH  13  16
HETATM   16  C   UNK N   1       4.033  -5.908  -0.624  0.00  0.00     0.075 C 
BRANCH  16  17
HETATM   17  C   UNK N   1       5.257  -5.414   0.133  0.00  0.00     0.187 C 
BRANCH  17  18
HETATM   18  O   UNK N   1       5.961  -4.466  -0.617  0.00  0.00    -0.282 OA
BRANCH  18  19
HETATM   19  P   UNK N   1       6.235  -3.137   0.473  0.00  0.00     0.422 P 
HETATM   20  O   UNK N   1       7.470  -1.962   0.145  0.00  0.00    -0.617 OA
HETATM   21  O   UNK N   1       7.753  -3.904   0.116  0.00  0.00    -0.617 OA
HETATM   22  O   UNK N   1       5.706  -2.415  -0.794  0.00  0.00    -0.617 OA
ENDBRANCH  18  19
ENDBRANCH  17  18
ENDBRANCH  16  17
ENDBRANCH  13  16
ENDBRANCH   9  10
ENDBRANCH   1   9
BRANCH   8  23
HETATM   23  N   UNK N   1       0.176  -1.457   1.899  0.00  0.00    -0.385 N 
HETATM   24  H   UNK N   1       0.644  -2.065   2.516  0.00  0.00     0.157 HD
HETATM   25  H   UNK N   1       0.553  -0.547   1.899  0.00  0.00     0.157 HD
ENDBRANCH   8  23
BRANCH   5  26
HETATM   26  C   UNK N   1      -3.294   0.635  -0.783  0.00  0.00     0.449 C 
HETATM   27  F   UNK N   1      -3.816   1.353   0.275  0.00  0.00    -0.163 F 
HETATM   28  F   UNK N   1      -2.359   1.410  -1.444  0.00  0.00    -0.163 F 
HETATM   29  F   UNK N   1      -4.312   0.315  -1.663  0.00  0.00    -0.163 F 
ENDBRANCH   5  26
TORSDOF 8
