REMARK  7 active torsions:
REMARK  status: ('A' for Active; 'I' for Inactive)
REMARK       I    between atoms: N_2  and  C_3 
REMARK       I    between atoms: C_3  and  N_4 
REMARK    1  A    between atoms: N_4  and  C_5 
REMARK    2  A    between atoms: C_5  and  C_6 
REMARK    3  A    between atoms: C_6  and  C_7 
REMARK    4  A    between atoms: C_7  and  C_8 
REMARK    5  A    between atoms: C_8  and  N_9 
REMARK    6  A    between atoms: C_8  and  C_10 
REMARK    7  A    between atoms: C_10  and  O_11 
ROOT
HETATM    1  C   UNK N   1       2.584   2.341   0.458  0.00  0.00     0.138 C 
ENDROOT
BRANCH   1   2
HETATM    2  N   UNK N   1       1.219   2.603   0.050  0.00  0.00    -0.227 N 
HETATM    3  C   UNK N   1       0.188   1.620   0.045  0.00  0.00     0.668 C 
HETATM    4  N   UNK N   1      -1.153   2.067  -0.192  0.00  0.00    -0.231 N 
HETATM    5  N   UNK N   1       0.497   0.375   0.234  0.00  0.00    -0.231 N 
HETATM    6  C   UNK N   1      -2.339   1.251  -0.139  0.00  0.00     0.165 C 
HETATM    7  H   UNK N   1      -1.274   3.019  -0.411  0.00  0.00     0.177 HD
HETATM    8  C   UNK N   1      -0.421  -0.736   0.216  0.00  0.00     0.165 C 
ATOM      9  HN  UNK N   1       1.478   0.163   0.411  1.00  0.00     0.177 HD
HETATM   10  H   UNK N   1       0.990   3.515  -0.241  0.00  0.00     0.177 HD
ENDBRANCH   1   2
BRANCH   1  11
HETATM   11  C   UNK N   1       3.196   1.178  -0.316  0.00  0.00     0.023 C 
BRANCH  11  12
HETATM   12  C   UNK N   1       4.584   1.487  -0.857  0.00  0.00     0.037 C 
BRANCH  12  13
HETATM   13  C   UNK N   1       5.555   1.902   0.238  0.00  0.00     0.173 C 
BRANCH  13  14
HETATM   14  N   UNK N   1       5.752   3.341   0.170  0.00  0.00    -0.418 N 
HETATM   15  H   UNK N   1       6.695   3.727   0.123  0.00  0.00     0.150 HD
HETATM   16  H   UNK N   1       4.946   3.966   0.170  0.00  0.00     0.150 HD
ENDBRANCH  13  14
BRANCH  13  17
HETATM   17  C   UNK N   1       6.860   1.176   0.077  0.00  0.00     0.163 C 
HETATM   18  O   UNK N   1       6.893  -0.040   0.180  0.00  0.00    -0.648 OA
BRANCH  17  19
HETATM   19  O   UNK N   1       7.999   1.854  -0.164  0.00  0.00    -0.775 OA
HETATM   20  H   UNK N   1       8.804   1.403  -0.332  0.00  0.00     0.167 HD
ENDBRANCH  17  19
ENDBRANCH  13  17
ENDBRANCH  12  13
ENDBRANCH  11  12
ENDBRANCH   1  11
TORSDOF 7
