MODEL 1
REMARK VINA RESULT:      -7.7      0.000      0.000
REMARK  14 active torsions:
REMARK  status: ('A' for Active; 'I' for Inactive)
REMARK    1  A    between atoms: C_6  and  C_5 
REMARK    2  A    between atoms: C_9  and  C_5 
REMARK    3  A    between atoms: C_10  and  C_6 
REMARK    4  A    between atoms: C_13  and  C_7 
REMARK    5  A    between atoms: N_21  and  C_8 
REMARK    6  A    between atoms: C_15  and  C_9 
REMARK    7  A    between atoms: C_9  and  N_22 
REMARK    8  A    between atoms: O_29  and  C_10 
REMARK    9  A    between atoms: N_18  and  C_11 
REMARK   10  A    between atoms: N_24  and  C_12 
REMARK       I    between atoms: N_22  and  C_13 
REMARK   11  A    between atoms: O_31  and  C_14 
REMARK   12  A    between atoms: O_33  and  C_15 
REMARK       I    between atoms: N_19  and  C_16 
REMARK   13  A    between atoms: N_21  and  C_17 
REMARK   14  A    between atoms: O_34  and  C_17 
ROOT
HETATM    1  N   UNK N   1      27.576  16.978   3.976  0.00  0.00    -0.322 N 
HETATM    2  H   UNK N   1      27.943  16.409   3.261  0.00  0.00     0.169 HD
ENDROOT
BRANCH   1   3
HETATM    3  C   UNK N   1      26.179  17.227   4.023  0.00  0.00     0.035 A 
HETATM    4  C   UNK N   1      25.751  18.502   4.376  0.00  0.00     0.030 A 
HETATM    5  C   UNK N   1      24.421  18.719   4.726  0.00  0.00     0.019 A 
HETATM    6  C   UNK N   1      23.475  17.679   4.699  0.00  0.00     0.032 A 
HETATM    7  C   UNK N   1      23.888  16.410   4.273  0.00  0.00     0.019 A 
HETATM    8  C   UNK N   1      25.236  16.181   3.957  0.00  0.00     0.030 A 
BRANCH   6   9
HETATM    9  C   UNK N   1      22.145  17.943   5.330  0.00  0.00     0.252 C 
HETATM   10  N   UNK N   1      20.985  18.270   4.686  0.00  0.00    -0.343 N 
HETATM   11  H   UNK N   1      20.185  18.165   5.251  0.00  0.00     0.163 HD
HETATM   12  O   UNK N   1      22.084  17.824   6.544  0.00  0.00    -0.268 OA
BRANCH  10  13
HETATM   13  C   UNK N   1      20.682  18.738   3.347  0.00  0.00     0.183 C 
BRANCH  13  14
HETATM   14  C   UNK N   1      20.450  20.245   3.221  0.00  0.00     0.046 C 
BRANCH  14  15
HETATM   15  C   UNK N   1      21.482  20.889   2.283  0.00  0.00     0.112 C 
BRANCH  15  16
HETATM   16  C   UNK N   1      20.902  21.176   0.930  0.00  0.00     0.139 C 
HETATM   17  O   UNK N   1      20.893  20.308   0.074  0.00  0.00    -0.650 OA
BRANCH  16  18
HETATM   18  O   UNK N   1      20.398  22.394   0.654  0.00  0.00    -0.776 OA
HETATM   19  H   UNK N   1      20.393  23.277   0.967  0.00  0.00     0.167 HD
ENDBRANCH  16  18
ENDBRANCH  15  16
ENDBRANCH  14  15
ENDBRANCH  13  14
BRANCH  13  20
HETATM   20  C   UNK N   1      19.579  17.909   2.749  0.00  0.00     0.163 C 
HETATM   21  O   UNK N   1      19.732  16.714   2.558  0.00  0.00    -0.648 OA
BRANCH  20  22
HETATM   22  O   UNK N   1      18.418  18.498   2.397  0.00  0.00    -0.775 OA
HETATM   23  H   UNK N   1      17.842  18.127   1.759  0.00  0.00     0.167 HD
ENDBRANCH  20  22
ENDBRANCH  13  20
ENDBRANCH  10  13
ENDBRANCH   6   9
ENDBRANCH   1   3
BRANCH   1  24
HETATM   24  C   UNK N   1      28.448  17.535   4.942  0.00  0.00     0.223 C 
HETATM   25  N   UNK N   1      28.383  17.109   6.161  0.00  0.00    -0.306 N 
ATOM     26  HN  UNK N   1      27.583  16.539   6.432  1.00  0.00     0.171 HD
BRANCH  25  27
HETATM   27  C   UNK N   1      29.372  17.394   7.144  0.00  0.00     0.154 A 
HETATM   28  C   UNK N   1      29.039  18.033   8.359  0.00  0.00     0.123 A 
HETATM   29  C   UNK N   1      30.054  18.299   9.275  0.00  0.00     0.185 A 
HETATM   30  N   UNK N   1      31.336  17.960   8.980  0.00  0.00    -0.168 N 
HETATM   31  C   UNK N   1      31.647  17.374   7.794  0.00  0.00     0.679 A 
ATOM     32  HN  UNK N   1      32.074  18.149   9.657  1.00  0.00     0.186 HD
HETATM   33  N   UNK N   1      32.863  17.077   7.534  0.00  0.00    -0.234 N 
HETATM   34  N   UNK N   1      30.674  17.102   6.886  0.00  0.00    -0.174 N 
HETATM   35  H   UNK N   1      33.110  16.735   6.644  0.00  0.00     0.174 HD
ATOM     36  HN  UNK N   1      33.580  17.194   8.250  1.00  0.00     0.174 HD
HETATM   37  H   UNK N   1      30.916  16.687   6.027  0.00  0.00     0.186 HD
BRANCH  28  38
HETATM   38  N   UNK N   1      27.713  18.436   8.644  0.00  0.00    -0.393 N 
HETATM   39  H   UNK N   1      27.292  19.169   8.137  0.00  0.00     0.156 HD
HETATM   40  H   UNK N   1      27.207  17.982   9.355  0.00  0.00     0.156 HD
ENDBRANCH  28  38
BRANCH  29  41
HETATM   41  O   UNK N   1      29.774  18.899  10.445  0.00  0.00    -0.344 OA
HETATM   42  H   UNK N   1      30.301  19.602  10.768  0.00  0.00     0.219 HD
ENDBRANCH  29  41
ENDBRANCH  25  27
BRANCH  24  43
HETATM   43  O   UNK N   1      29.390  18.425   4.565  0.00  0.00    -0.332 OA
HETATM   44  H   UNK N   1      29.371  19.348   4.404  0.00  0.00     0.220 HD
ENDBRANCH  24  43
ENDBRANCH   1  24
TORSDOF 14
ENDMDL
MODEL 2
REMARK VINA RESULT:      -7.5      2.849     10.259
REMARK  14 active torsions:
REMARK  status: ('A' for Active; 'I' for Inactive)
REMARK    1  A    between atoms: C_6  and  C_5 
REMARK    2  A    between atoms: C_9  and  C_5 
REMARK    3  A    between atoms: C_10  and  C_6 
REMARK    4  A    between atoms: C_13  and  C_7 
REMARK    5  A    between atoms: N_21  and  C_8 
REMARK    6  A    between atoms: C_15  and  C_9 
REMARK    7  A    between atoms: C_9  and  N_22 
REMARK    8  A    between atoms: O_29  and  C_10 
REMARK    9  A    between atoms: N_18  and  C_11 
REMARK   10  A    between atoms: N_24  and  C_12 
REMARK       I    between atoms: N_22  and  C_13 
REMARK   11  A    between atoms: O_31  and  C_14 
REMARK   12  A    between atoms: O_33  and  C_15 
REMARK       I    between atoms: N_19  and  C_16 
REMARK   13  A    between atoms: N_21  and  C_17 
REMARK   14  A    between atoms: O_34  and  C_17 
ROOT
HETATM    1  N   UNK N   1      25.827  20.991   3.511  0.00  0.00    -0.322 N 
HETATM    2  H   UNK N   1      26.052  21.946   3.434  0.00  0.00     0.169 HD
ENDROOT
BRANCH   1   3
HETATM    3  C   UNK N   1      26.658  20.137   4.285  0.00  0.00     0.035 A 
HETATM    4  C   UNK N   1      26.898  18.852   3.813  0.00  0.00     0.030 A 
HETATM    5  C   UNK N   1      27.446  17.890   4.658  0.00  0.00     0.019 A 
HETATM    6  C   UNK N   1      27.802  18.195   5.984  0.00  0.00     0.032 A 
HETATM    7  C   UNK N   1      27.628  19.508   6.439  0.00  0.00     0.019 A 
HETATM    8  C   UNK N   1      27.041  20.469   5.601  0.00  0.00     0.030 A 
BRANCH   6   9
HETATM    9  C   UNK N   1      28.138  17.050   6.886  0.00  0.00     0.252 C 
HETATM   10  N   UNK N   1      29.338  16.816   7.498  0.00  0.00    -0.343 N 
HETATM   11  H   UNK N   1      29.280  16.157   8.226  0.00  0.00     0.163 HD
HETATM   12  O   UNK N   1      27.239  16.258   7.123  0.00  0.00    -0.268 OA
BRANCH  10  13
HETATM   13  C   UNK N   1      30.678  17.335   7.302  0.00  0.00     0.183 C 
BRANCH  13  14
HETATM   14  C   UNK N   1      31.655  16.374   6.619  0.00  0.00     0.046 C 
BRANCH  14  15
HETATM   15  C   UNK N   1      32.564  17.117   5.630  0.00  0.00     0.112 C 
BRANCH  15  16
HETATM   16  C   UNK N   1      33.983  17.174   6.113  0.00  0.00     0.139 C 
HETATM   17  O   UNK N   1      34.352  18.102   6.814  0.00  0.00    -0.650 OA
BRANCH  16  18
HETATM   18  O   UNK N   1      34.854  16.208   5.767  0.00  0.00    -0.776 OA
HETATM   19  H   UNK N   1      35.762  15.981   5.819  0.00  0.00     0.167 HD
ENDBRANCH  16  18
ENDBRANCH  15  16
ENDBRANCH  14  15
ENDBRANCH  13  14
BRANCH  13  20
HETATM   20  C   UNK N   1      31.202  17.908   8.589  0.00  0.00     0.163 C 
HETATM   21  O   UNK N   1      30.609  18.812   9.155  0.00  0.00    -0.648 OA
BRANCH  20  22
HETATM   22  O   UNK N   1      32.352  17.436   9.111  0.00  0.00    -0.775 OA
HETATM   23  H   UNK N   1      32.842  17.908   9.754  0.00  0.00     0.167 HD
ENDBRANCH  20  22
ENDBRANCH  13  20
ENDBRANCH  10  13
ENDBRANCH   6   9
ENDBRANCH   1   3
BRANCH   1  24
HETATM   24  C   UNK N   1      24.680  20.487   2.852  0.00  0.00     0.223 C 
HETATM   25  N   UNK N   1      23.654  20.143   3.559  0.00  0.00    -0.306 N 
ATOM     26  HN  UNK N   1      23.770  20.054   4.568  1.00  0.00     0.171 HD
BRANCH  25  27
HETATM   27  C   UNK N   1      22.370  19.883   3.003  0.00  0.00     0.154 A 
HETATM   28  C   UNK N   1      21.584  18.796   3.445  0.00  0.00     0.123 A 
HETATM   29  C   UNK N   1      20.342  18.583   2.849  0.00  0.00     0.185 A 
HETATM   30  N   UNK N   1      19.922  19.404   1.852  0.00  0.00    -0.168 N 
HETATM   31  C   UNK N   1      20.702  20.426   1.414  0.00  0.00     0.679 A 
ATOM     32  HN  UNK N   1      19.009  19.249   1.425  1.00  0.00     0.186 HD
HETATM   33  N   UNK N   1      20.291  21.177   0.464  0.00  0.00    -0.234 N 
HETATM   34  N   UNK N   1      21.916  20.656   1.981  0.00  0.00    -0.174 N 
HETATM   35  H   UNK N   1      20.886  21.862   0.081  0.00  0.00     0.174 HD
ATOM     36  HN  UNK N   1      19.344  21.065   0.101  1.00  0.00     0.174 HD
HETATM   37  H   UNK N   1      22.475  21.393   1.647  0.00  0.00     0.186 HD
BRANCH  28  38
HETATM   38  N   UNK N   1      22.043  17.908   4.445  0.00  0.00    -0.393 N 
HETATM   39  H   UNK N   1      21.522  17.107   4.682  0.00  0.00     0.156 HD
HETATM   40  H   UNK N   1      22.892  18.093   4.910  0.00  0.00     0.156 HD
ENDBRANCH  28  38
BRANCH  29  41
HETATM   41  O   UNK N   1      19.562  17.564   3.250  0.00  0.00    -0.344 OA
HETATM   42  H   UNK N   1      19.917  16.835   3.717  0.00  0.00     0.219 HD
ENDBRANCH  29  41
ENDBRANCH  25  27
BRANCH  24  43
HETATM   43  O   UNK N   1      24.636  20.462   1.503  0.00  0.00    -0.332 OA
HETATM   44  H   UNK N   1      23.963  20.656   0.881  0.00  0.00     0.220 HD
ENDBRANCH  24  43
ENDBRANCH   1  24
TORSDOF 14
ENDMDL
MODEL 3
REMARK VINA RESULT:      -7.5      5.702      9.632
REMARK  14 active torsions:
REMARK  status: ('A' for Active; 'I' for Inactive)
REMARK    1  A    between atoms: C_6  and  C_5 
REMARK    2  A    between atoms: C_9  and  C_5 
REMARK    3  A    between atoms: C_10  and  C_6 
REMARK    4  A    between atoms: C_13  and  C_7 
REMARK    5  A    between atoms: N_21  and  C_8 
REMARK    6  A    between atoms: C_15  and  C_9 
REMARK    7  A    between atoms: C_9  and  N_22 
REMARK    8  A    between atoms: O_29  and  C_10 
REMARK    9  A    between atoms: N_18  and  C_11 
REMARK   10  A    between atoms: N_24  and  C_12 
REMARK       I    between atoms: N_22  and  C_13 
REMARK   11  A    between atoms: O_31  and  C_14 
REMARK   12  A    between atoms: O_33  and  C_15 
REMARK       I    between atoms: N_19  and  C_16 
REMARK   13  A    between atoms: N_21  and  C_17 
REMARK   14  A    between atoms: O_34  and  C_17 
ROOT
HETATM    1  N   UNK N   1      34.194  16.793   9.931  0.00  0.00    -0.322 N 
HETATM    2  H   UNK N   1      34.217  17.692  10.335  0.00  0.00     0.169 HD
ENDROOT
BRANCH   1   3
HETATM    3  C   UNK N   1      33.789  16.647   8.577  0.00  0.00     0.035 A 
HETATM    4  C   UNK N   1      33.869  17.757   7.744  0.00  0.00     0.030 A 
HETATM    5  C   UNK N   1      33.218  17.754   6.514  0.00  0.00     0.019 A 
HETATM    6  C   UNK N   1      32.499  16.631   6.066  0.00  0.00     0.032 A 
HETATM    7  C   UNK N   1      32.478  15.486   6.871  0.00  0.00     0.019 A 
HETATM    8  C   UNK N   1      33.102  15.500   8.128  0.00  0.00     0.030 A 
BRANCH   6   9
HETATM    9  C   UNK N   1      31.627  16.808   4.863  0.00  0.00     0.252 C 
HETATM   10  N   UNK N   1      30.428  17.462   4.812  0.00  0.00    -0.343 N 
HETATM   11  H   UNK N   1      30.139  17.670   3.894  0.00  0.00     0.163 HD
HETATM   12  O   UNK N   1      32.045  16.346   3.813  0.00  0.00    -0.268 OA
BRANCH  10  13
HETATM   13  C   UNK N   1      29.492  17.914   5.823  0.00  0.00     0.183 C 
BRANCH  13  14
HETATM   14  C   UNK N   1      29.089  16.860   6.857  0.00  0.00     0.046 C 
BRANCH  14  15
HETATM   15  C   UNK N   1      29.390  17.339   8.284  0.00  0.00     0.112 C 
BRANCH  15  16
HETATM   16  C   UNK N   1      28.137  17.700   9.026  0.00  0.00     0.139 C 
HETATM   17  O   UNK N   1      27.628  16.898   9.790  0.00  0.00    -0.650 OA
BRANCH  16  18
HETATM   18  O   UNK N   1      27.567  18.906   8.843  0.00  0.00    -0.776 OA
HETATM   19  H   UNK N   1      26.814  19.315   8.465  0.00  0.00     0.167 HD
ENDBRANCH  16  18
ENDBRANCH  15  16
ENDBRANCH  14  15
ENDBRANCH  13  14
BRANCH  13  20
HETATM   20  C   UNK N   1      28.319  18.594   5.172  0.00  0.00     0.163 C 
HETATM   21  O   UNK N   1      27.318  18.861   5.816  0.00  0.00    -0.648 OA
BRANCH  20  22
HETATM   22  O   UNK N   1      28.365  18.890   3.857  0.00  0.00    -0.775 OA
HETATM   23  H   UNK N   1      27.845  19.570   3.479  0.00  0.00     0.167 HD
ENDBRANCH  20  22
ENDBRANCH  13  20
ENDBRANCH  10  13
ENDBRANCH   6   9
ENDBRANCH   1   3
BRANCH   1  24
HETATM   24  C   UNK N   1      34.565  15.669  10.705  0.00  0.00     0.223 C 
HETATM   25  N   UNK N   1      35.818  15.377  10.822  0.00  0.00    -0.306 N 
ATOM     26  HN  UNK N   1      36.482  15.836  10.199  1.00  0.00     0.171 HD
BRANCH  25  27
HETATM   27  C   UNK N   1      36.321  14.449  11.776  0.00  0.00     0.154 A 
HETATM   28  C   UNK N   1      36.719  13.147  11.397  0.00  0.00     0.123 A 
HETATM   29  C   UNK N   1      37.188  12.279  12.380  0.00  0.00     0.185 A 
HETATM   30  N   UNK N   1      37.237  12.687  13.675  0.00  0.00    -0.168 N 
HETATM   31  C   UNK N   1      36.822  13.931  14.030  0.00  0.00     0.679 A 
ATOM     32  HN  UNK N   1      37.589  12.051  14.390  1.00  0.00     0.186 HD
HETATM   33  N   UNK N   1      36.865  14.288  15.257  0.00  0.00    -0.234 N 
HETATM   34  N   UNK N   1      36.363  14.797  13.089  0.00  0.00    -0.174 N 
HETATM   35  H   UNK N   1      36.483  15.152  15.536  0.00  0.00     0.174 HD
ATOM     36  HN  UNK N   1      37.295  13.675  15.951  1.00  0.00     0.174 HD
HETATM   37  H   UNK N   1      36.055  15.691  13.363  0.00  0.00     0.186 HD
BRANCH  28  38
HETATM   38  N   UNK N   1      36.616  12.702  10.059  0.00  0.00    -0.393 N 
HETATM   39  H   UNK N   1      37.201  13.077   9.360  0.00  0.00     0.156 HD
HETATM   40  H   UNK N   1      35.955  12.012   9.823  0.00  0.00     0.156 HD
ENDBRANCH  28  38
BRANCH  29  41
HETATM   41  O   UNK N   1      37.583  11.035  12.057  0.00  0.00    -0.344 OA
HETATM   42  H   UNK N   1      37.502  10.327  12.664  0.00  0.00     0.219 HD
ENDBRANCH  29  41
ENDBRANCH  25  27
BRANCH  24  43
HETATM   43  O   UNK N   1      33.623  14.978  11.383  0.00  0.00    -0.332 OA
HETATM   44  H   UNK N   1      32.759  15.191  11.675  0.00  0.00     0.220 HD
ENDBRANCH  24  43
ENDBRANCH   1  24
TORSDOF 14
ENDMDL
MODEL 4
REMARK VINA RESULT:      -7.5      6.443     10.284
REMARK  14 active torsions:
REMARK  status: ('A' for Active; 'I' for Inactive)
REMARK    1  A    between atoms: C_6  and  C_5 
REMARK    2  A    between atoms: C_9  and  C_5 
REMARK    3  A    between atoms: C_10  and  C_6 
REMARK    4  A    between atoms: C_13  and  C_7 
REMARK    5  A    between atoms: N_21  and  C_8 
REMARK    6  A    between atoms: C_15  and  C_9 
REMARK    7  A    between atoms: C_9  and  N_22 
REMARK    8  A    between atoms: O_29  and  C_10 
REMARK    9  A    between atoms: N_18  and  C_11 
REMARK   10  A    between atoms: N_24  and  C_12 
REMARK       I    between atoms: N_22  and  C_13 
REMARK   11  A    between atoms: O_31  and  C_14 
REMARK   12  A    between atoms: O_33  and  C_15 
REMARK       I    between atoms: N_19  and  C_16 
REMARK   13  A    between atoms: N_21  and  C_17 
REMARK   14  A    between atoms: O_34  and  C_17 
ROOT
HETATM    1  N   UNK N   1      34.686  16.597  10.147  0.00  0.00    -0.322 N 
HETATM    2  H   UNK N   1      34.956  17.426  10.605  0.00  0.00     0.169 HD
ENDROOT
BRANCH   1   3
HETATM    3  C   UNK N   1      34.540  16.595   8.734  0.00  0.00     0.035 A 
HETATM    4  C   UNK N   1      34.210  17.791   8.107  0.00  0.00     0.030 A 
HETATM    5  C   UNK N   1      33.768  17.787   6.787  0.00  0.00     0.019 A 
HETATM    6  C   UNK N   1      33.676  16.595   6.046  0.00  0.00     0.032 A 
HETATM    7  C   UNK N   1      34.078  15.398   6.654  0.00  0.00     0.019 A 
HETATM    8  C   UNK N   1      34.488  15.395   7.995  0.00  0.00     0.030 A 
BRANCH   6   9
HETATM    9  C   UNK N   1      32.955  16.652   4.737  0.00  0.00     0.252 C 
HETATM   10  N   UNK N   1      31.697  17.139   4.518  0.00  0.00    -0.343 N 
HETATM   11  H   UNK N   1      31.506  17.305   3.566  0.00  0.00     0.163 HD
HETATM   12  O   UNK N   1      33.565  16.249   3.760  0.00  0.00    -0.268 OA
BRANCH  10  13
HETATM   13  C   UNK N   1      30.584  17.463   5.389  0.00  0.00     0.183 C 
BRANCH  13  14
HETATM   14  C   UNK N   1      30.258  16.409   6.450  0.00  0.00     0.046 C 
BRANCH  14  15
HETATM   15  C   UNK N   1      29.578  17.042   7.672  0.00  0.00     0.112 C 
BRANCH  15  16
HETATM   16  C   UNK N   1      30.565  17.364   8.754  0.00  0.00     0.139 C 
HETATM   17  O   UNK N   1      30.845  18.526   8.999  0.00  0.00    -0.650 OA
BRANCH  16  18
HETATM   18  O   UNK N   1      31.151  16.373   9.452  0.00  0.00    -0.776 OA
HETATM   19  H   UNK N   1      31.693  15.616   9.343  0.00  0.00     0.167 HD
ENDBRANCH  16  18
ENDBRANCH  15  16
ENDBRANCH  14  15
ENDBRANCH  13  14
BRANCH  13  20
HETATM   20  C   UNK N   1      29.393  17.878   4.571  0.00  0.00     0.163 C 
HETATM   21  O   UNK N   1      28.639  18.752   4.968  0.00  0.00    -0.648 OA
BRANCH  20  22
HETATM   22  O   UNK N   1      29.142  17.263   3.398  0.00  0.00    -0.775 OA
HETATM   23  H   UNK N   1      28.278  17.194   3.043  0.00  0.00     0.167 HD
ENDBRANCH  20  22
ENDBRANCH  13  20
ENDBRANCH  10  13
ENDBRANCH   6   9
ENDBRANCH   1   3
BRANCH   1  24
HETATM   24  C   UNK N   1      34.450  15.425  10.904  0.00  0.00     0.223 C 
HETATM   25  N   UNK N   1      35.457  14.795  11.411  0.00  0.00    -0.306 N 
ATOM     26  HN  UNK N   1      36.393  15.040  11.087  1.00  0.00     0.171 HD
BRANCH  25  27
HETATM   27  C   UNK N   1      35.331  13.778  12.398  0.00  0.00     0.154 A 
HETATM   28  C   UNK N   1      35.967  13.887  13.654  0.00  0.00     0.123 A 
HETATM   29  C   UNK N   1      35.818  12.850  14.571  0.00  0.00     0.185 A 
HETATM   30  N   UNK N   1      35.089  11.753  14.239  0.00  0.00    -0.168 N 
HETATM   31  C   UNK N   1      34.508  11.646  13.015  0.00  0.00     0.679 A 
ATOM     32  HN  UNK N   1      34.976  11.000  14.917  1.00  0.00     0.186 HD
HETATM   33  N   UNK N   1      33.838  10.598  12.720  0.00  0.00    -0.234 N 
HETATM   34  N   UNK N   1      34.637  12.646  12.105  0.00  0.00    -0.174 N 
HETATM   35  H   UNK N   1      33.491  10.473  11.807  0.00  0.00     0.174 HD
ATOM     36  HN  UNK N   1      33.662   9.889  13.433  1.00  0.00     0.174 HD
HETATM   37  H   UNK N   1      34.220  12.550  11.218  0.00  0.00     0.186 HD
BRANCH  28  38
HETATM   38  N   UNK N   1      36.772  15.003  13.981  0.00  0.00    -0.393 N 
HETATM   39  H   UNK N   1      36.728  15.406  14.879  0.00  0.00     0.156 HD
HETATM   40  H   UNK N   1      37.381  15.381  13.306  0.00  0.00     0.156 HD
ENDBRANCH  28  38
BRANCH  29  41
HETATM   41  O   UNK N   1      36.401  12.922  15.781  0.00  0.00    -0.344 OA
HETATM   42  H   UNK N   1      36.955  13.642  16.010  0.00  0.00     0.219 HD
ENDBRANCH  29  41
ENDBRANCH  25  27
BRANCH  24  43
HETATM   43  O   UNK N   1      33.183  15.037  11.166  0.00  0.00    -0.332 OA
HETATM   44  H   UNK N   1      32.401  15.507  11.380  0.00  0.00     0.220 HD
ENDBRANCH  24  43
ENDBRANCH   1  24
TORSDOF 14
ENDMDL
MODEL 5
REMARK VINA RESULT:      -7.1      5.067      8.769
REMARK  14 active torsions:
REMARK  status: ('A' for Active; 'I' for Inactive)
REMARK    1  A    between atoms: C_6  and  C_5 
REMARK    2  A    between atoms: C_9  and  C_5 
REMARK    3  A    between atoms: C_10  and  C_6 
REMARK    4  A    between atoms: C_13  and  C_7 
REMARK    5  A    between atoms: N_21  and  C_8 
REMARK    6  A    between atoms: C_15  and  C_9 
REMARK    7  A    between atoms: C_9  and  N_22 
REMARK    8  A    between atoms: O_29  and  C_10 
REMARK    9  A    between atoms: N_18  and  C_11 
REMARK   10  A    between atoms: N_24  and  C_12 
REMARK       I    between atoms: N_22  and  C_13 
REMARK   11  A    between atoms: O_31  and  C_14 
REMARK   12  A    between atoms: O_33  and  C_15 
REMARK       I    between atoms: N_19  and  C_16 
REMARK   13  A    between atoms: N_21  and  C_17 
REMARK   14  A    between atoms: O_34  and  C_17 
ROOT
HETATM    1  N   UNK N   1      34.669  17.832   8.836  0.00  0.00    -0.322 N 
HETATM    2  H   UNK N   1      35.208  18.653   8.917  0.00  0.00     0.169 HD
ENDROOT
BRANCH   1   3
HETATM    3  C   UNK N   1      33.599  17.789   7.903  0.00  0.00     0.035 A 
HETATM    4  C   UNK N   1      32.309  17.609   8.391  0.00  0.00     0.030 A 
HETATM    5  C   UNK N   1      31.278  17.263   7.523  0.00  0.00     0.019 A 
HETATM    6  C   UNK N   1      31.497  17.122   6.141  0.00  0.00     0.032 A 
HETATM    7  C   UNK N   1      32.779  17.374   5.637  0.00  0.00     0.019 A 
HETATM    8  C   UNK N   1      33.829  17.686   6.515  0.00  0.00     0.030 A 
BRANCH   6   9
HETATM    9  C   UNK N   1      30.402  16.504   5.330  0.00  0.00     0.252 C 
HETATM   10  N   UNK N   1      29.218  17.087   4.977  0.00  0.00    -0.343 N 
HETATM   11  H   UNK N   1      28.750  16.609   4.254  0.00  0.00     0.163 HD
HETATM   12  O   UNK N   1      30.600  15.372   4.918  0.00  0.00    -0.268 OA
BRANCH  10  13
HETATM   13  C   UNK N   1      28.503  18.261   5.440  0.00  0.00     0.183 C 
BRANCH  13  14
HETATM   14  C   UNK N   1      27.713  18.073   6.737  0.00  0.00     0.046 C 
BRANCH  14  15
HETATM   15  C   UNK N   1      28.205  19.032   7.831  0.00  0.00     0.112 C 
BRANCH  15  16
HETATM   16  C   UNK N   1      28.309  18.349   9.163  0.00  0.00     0.139 C 
HETATM   17  O   UNK N   1      29.198  18.660   9.939  0.00  0.00    -0.650 OA
BRANCH  16  18
HETATM   18  O   UNK N   1      27.430  17.388   9.501  0.00  0.00    -0.776 OA
HETATM   19  H   UNK N   1      27.154  16.525   9.262  0.00  0.00     0.167 HD
ENDBRANCH  16  18
ENDBRANCH  15  16
ENDBRANCH  14  15
ENDBRANCH  13  14
BRANCH  13  20
HETATM   20  C   UNK N   1      27.687  18.843   4.319  0.00  0.00     0.163 C 
HETATM   21  O   UNK N   1      27.813  20.015   4.001  0.00  0.00    -0.648 OA
BRANCH  20  22
HETATM   22  O   UNK N   1      26.791  18.070   3.675  0.00  0.00    -0.775 OA
HETATM   23  H   UNK N   1      27.048  17.390   3.085  0.00  0.00     0.167 HD
ENDBRANCH  20  22
ENDBRANCH  13  20
ENDBRANCH  10  13
ENDBRANCH   6   9
ENDBRANCH   1   3
BRANCH   1  24
HETATM   24  C   UNK N   1      34.970  16.715   9.650  0.00  0.00     0.223 C 
HETATM   25  N   UNK N   1      35.304  15.602   9.084  0.00  0.00    -0.306 N 
ATOM     26  HN  UNK N   1      35.147  15.503   8.081  1.00  0.00     0.171 HD
BRANCH  25  27
HETATM   27  C   UNK N   1      35.880  14.507   9.786  0.00  0.00     0.154 A 
HETATM   28  C   UNK N   1      35.076  13.518  10.395  0.00  0.00     0.123 A 
HETATM   29  C   UNK N   1      35.700  12.479  11.082  0.00  0.00     0.185 A 
HETATM   30  N   UNK N   1      37.055  12.445  11.170  0.00  0.00    -0.168 N 
HETATM   31  C   UNK N   1      37.815  13.419  10.607  0.00  0.00     0.679 A 
ATOM     32  HN  UNK N   1      37.507  11.677  11.667  1.00  0.00     0.186 HD
HETATM   33  N   UNK N   1      39.088  13.372  10.715  0.00  0.00    -0.234 N 
HETATM   34  N   UNK N   1      37.231  14.441   9.929  0.00  0.00    -0.174 N 
HETATM   35  H   UNK N   1      39.641  14.119  10.388  0.00  0.00     0.174 HD
ATOM     36  HN  UNK N   1      39.534  12.559  11.141  1.00  0.00     0.174 HD
HETATM   37  H   UNK N   1      37.794  15.146   9.535  0.00  0.00     0.186 HD
BRANCH  28  38
HETATM   38  N   UNK N   1      33.664  13.582  10.352  0.00  0.00    -0.393 N 
HETATM   39  H   UNK N   1      33.119  12.796  10.587  0.00  0.00     0.156 HD
HETATM   40  H   UNK N   1      33.221  14.420  10.084  0.00  0.00     0.156 HD
ENDBRANCH  28  38
BRANCH  29  41
HETATM   41  O   UNK N   1      34.968  11.515  11.668  0.00  0.00    -0.344 OA
HETATM   42  H   UNK N   1      34.186  11.189  11.268  0.00  0.00     0.219 HD
ENDBRANCH  29  41
ENDBRANCH  25  27
BRANCH  24  43
HETATM   43  O   UNK N   1      34.999  16.848  10.993  0.00  0.00    -0.332 OA
HETATM   44  H   UNK N   1      34.798  17.558  11.571  0.00  0.00     0.220 HD
ENDBRANCH  24  43
ENDBRANCH   1  24
TORSDOF 14
ENDMDL
MODEL 6
REMARK VINA RESULT:      -7.1      2.654      8.880
REMARK  14 active torsions:
REMARK  status: ('A' for Active; 'I' for Inactive)
REMARK    1  A    between atoms: C_6  and  C_5 
REMARK    2  A    between atoms: C_9  and  C_5 
REMARK    3  A    between atoms: C_10  and  C_6 
REMARK    4  A    between atoms: C_13  and  C_7 
REMARK    5  A    between atoms: N_21  and  C_8 
REMARK    6  A    between atoms: C_15  and  C_9 
REMARK    7  A    between atoms: C_9  and  N_22 
REMARK    8  A    between atoms: O_29  and  C_10 
REMARK    9  A    between atoms: N_18  and  C_11 
REMARK   10  A    between atoms: N_24  and  C_12 
REMARK       I    between atoms: N_22  and  C_13 
REMARK   11  A    between atoms: O_31  and  C_14 
REMARK   12  A    between atoms: O_33  and  C_15 
REMARK       I    between atoms: N_19  and  C_16 
REMARK   13  A    between atoms: N_21  and  C_17 
REMARK   14  A    between atoms: O_34  and  C_17 
ROOT
HETATM    1  N   UNK N   1      23.533  14.846   4.048  0.00  0.00    -0.322 N 
HETATM    2  H   UNK N   1      23.245  14.074   4.588  0.00  0.00     0.169 HD
ENDROOT
BRANCH   1   3
HETATM    3  C   UNK N   1      24.915  15.027   3.770  0.00  0.00     0.035 A 
HETATM    4  C   UNK N   1      25.817  14.899   4.820  0.00  0.00     0.030 A 
HETATM    5  C   UNK N   1      27.125  15.352   4.673  0.00  0.00     0.019 A 
HETATM    6  C   UNK N   1      27.578  15.913   3.465  0.00  0.00     0.032 A 
HETATM    7  C   UNK N   1      26.690  15.976   2.383  0.00  0.00     0.019 A 
HETATM    8  C   UNK N   1      25.361  15.554   2.541  0.00  0.00     0.030 A 
BRANCH   6   9
HETATM    9  C   UNK N   1      28.906  16.601   3.481  0.00  0.00     0.252 C 
HETATM   10  N   UNK N   1      29.294  17.609   4.317  0.00  0.00    -0.343 N 
HETATM   11  H   UNK N   1      30.268  17.753   4.326  0.00  0.00     0.163 HD
HETATM   12  O   UNK N   1      29.739  16.198   2.684  0.00  0.00    -0.268 OA
BRANCH  10  13
HETATM   13  C   UNK N   1      28.576  18.512   5.196  0.00  0.00     0.183 C 
BRANCH  13  14
HETATM   14  C   UNK N   1      28.210  17.936   6.566  0.00  0.00     0.046 C 
BRANCH  14  15
HETATM   15  C   UNK N   1      28.431  18.969   7.680  0.00  0.00     0.112 C 
BRANCH  15  16
HETATM   16  C   UNK N   1      28.427  18.332   9.038  0.00  0.00     0.139 C 
HETATM   17  O   UNK N   1      29.311  18.595   9.837  0.00  0.00    -0.650 OA
BRANCH  16  18
HETATM   18  O   UNK N   1      27.456  17.463   9.376  0.00  0.00    -0.776 OA
HETATM   19  H   UNK N   1      27.147  16.597   9.194  0.00  0.00     0.167 HD
ENDBRANCH  16  18
ENDBRANCH  15  16
ENDBRANCH  14  15
ENDBRANCH  13  14
BRANCH  13  20
HETATM   20  C   UNK N   1      27.407  19.117   4.469  0.00  0.00     0.163 C 
HETATM   21  O   UNK N   1      26.263  18.836   4.787  0.00  0.00    -0.648 OA
BRANCH  20  22
HETATM   22  O   UNK N   1      27.625  19.959   3.439  0.00  0.00    -0.775 OA
HETATM   23  H   UNK N   1      28.479  20.108   3.086  0.00  0.00     0.167 HD
ENDBRANCH  20  22
ENDBRANCH  13  20
ENDBRANCH  10  13
ENDBRANCH   6   9
ENDBRANCH   1   3
BRANCH   1  24
HETATM   24  C   UNK N   1      22.568  15.757   3.559  0.00  0.00     0.223 C 
HETATM   25  N   UNK N   1      22.471  16.921   4.110  0.00  0.00    -0.306 N 
ATOM     26  HN  UNK N   1      22.946  17.076   5.000  1.00  0.00     0.171 HD
BRANCH  25  27
HETATM   27  C   UNK N   1      21.737  18.000   3.543  0.00  0.00     0.154 A 
HETATM   28  C   UNK N   1      22.306  19.286   3.406  0.00  0.00     0.123 A 
HETATM   29  C   UNK N   1      21.531  20.305   2.857  0.00  0.00     0.185 A 
HETATM   30  N   UNK N   1      20.249  20.053   2.485  0.00  0.00    -0.168 N 
HETATM   31  C   UNK N   1      19.704  18.820   2.651  0.00  0.00     0.679 A 
ATOM     32  HN  UNK N   1      19.688  20.800   2.076  1.00  0.00     0.186 HD
HETATM   33  N   UNK N   1      18.491  18.611   2.306  0.00  0.00    -0.234 N 
HETATM   34  N   UNK N   1      20.441  17.809   3.181  0.00  0.00    -0.174 N 
HETATM   35  H   UNK N   1      18.061  17.748   2.506  0.00  0.00     0.174 HD
ATOM     36  HN  UNK N   1      17.966  19.340   1.823  1.00  0.00     0.174 HD
HETATM   37  H   UNK N   1      20.029  16.924   3.306  0.00  0.00     0.186 HD
BRANCH  28  38
HETATM   38  N   UNK N   1      23.622  19.564   3.843  0.00  0.00    -0.393 N 
HETATM   39  H   UNK N   1      23.996  20.472   3.763  0.00  0.00     0.156 HD
HETATM   40  H   UNK N   1      24.170  18.843   4.231  0.00  0.00     0.156 HD
ENDBRANCH  28  38
BRANCH  29  41
HETATM   41  O   UNK N   1      22.041  21.540   2.703  0.00  0.00    -0.344 OA
HETATM   42  H   UNK N   1      21.882  22.037   1.926  0.00  0.00     0.219 HD
ENDBRANCH  29  41
ENDBRANCH  25  27
BRANCH  24  43
HETATM   43  O   UNK N   1      21.832  15.439   2.472  0.00  0.00    -0.332 OA
HETATM   44  H   UNK N   1      21.305  15.944   1.885  0.00  0.00     0.220 HD
ENDBRANCH  24  43
ENDBRANCH   1  24
TORSDOF 14
ENDMDL
MODEL 7
REMARK VINA RESULT:      -7.1      4.559      7.676
REMARK  14 active torsions:
REMARK  status: ('A' for Active; 'I' for Inactive)
REMARK    1  A    between atoms: C_6  and  C_5 
REMARK    2  A    between atoms: C_9  and  C_5 
REMARK    3  A    between atoms: C_10  and  C_6 
REMARK    4  A    between atoms: C_13  and  C_7 
REMARK    5  A    between atoms: N_21  and  C_8 
REMARK    6  A    between atoms: C_15  and  C_9 
REMARK    7  A    between atoms: C_9  and  N_22 
REMARK    8  A    between atoms: O_29  and  C_10 
REMARK    9  A    between atoms: N_18  and  C_11 
REMARK   10  A    between atoms: N_24  and  C_12 
REMARK       I    between atoms: N_22  and  C_13 
REMARK   11  A    between atoms: O_31  and  C_14 
REMARK   12  A    between atoms: O_33  and  C_15 
REMARK       I    between atoms: N_19  and  C_16 
REMARK   13  A    between atoms: N_21  and  C_17 
REMARK   14  A    between atoms: O_34  and  C_17 
ROOT
HETATM    1  N   UNK N   1      33.570  15.946   8.442  0.00  0.00    -0.322 N 
HETATM    2  H   UNK N   1      34.380  16.076   7.896  0.00  0.00     0.169 HD
ENDROOT
BRANCH   1   3
HETATM    3  C   UNK N   1      32.349  16.548   8.035  0.00  0.00     0.035 A 
HETATM    4  C   UNK N   1      31.975  17.745   8.635  0.00  0.00     0.030 A 
HETATM    5  C   UNK N   1      30.673  18.216   8.498  0.00  0.00     0.019 A 
HETATM    6  C   UNK N   1      29.718  17.525   7.731  0.00  0.00     0.032 A 
HETATM    7  C   UNK N   1      30.113  16.357   7.066  0.00  0.00     0.019 A 
HETATM    8  C   UNK N   1      31.415  15.860   7.233  0.00  0.00     0.030 A 
BRANCH   6   9
HETATM    9  C   UNK N   1      28.292  17.962   7.850  0.00  0.00     0.252 C 
HETATM   10  N   UNK N   1      27.369  18.021   6.845  0.00  0.00    -0.343 N 
HETATM   11  H   UNK N   1      26.444  18.101   7.172  0.00  0.00     0.163 HD
HETATM   12  O   UNK N   1      27.907  18.269   8.967  0.00  0.00    -0.268 OA
BRANCH  10  13
HETATM   13  C   UNK N   1      27.463  17.990   5.398  0.00  0.00     0.183 C 
BRANCH  13  14
HETATM   14  C   UNK N   1      27.859  19.316   4.742  0.00  0.00     0.046 C 
BRANCH  14  15
HETATM   15  C   UNK N   1      26.761  20.374   4.921  0.00  0.00     0.112 C 
BRANCH  15  16
HETATM   16  C   UNK N   1      26.896  21.101   6.226  0.00  0.00     0.139 C 
HETATM   17  O   UNK N   1      27.641  22.063   6.314  0.00  0.00    -0.650 OA
BRANCH  16  18
HETATM   18  O   UNK N   1      26.205  20.689   7.305  0.00  0.00    -0.776 OA
HETATM   19  H   UNK N   1      26.322  20.390   8.185  0.00  0.00     0.167 HD
ENDBRANCH  16  18
ENDBRANCH  15  16
ENDBRANCH  14  15
ENDBRANCH  13  14
BRANCH  13  20
HETATM   20  C   UNK N   1      26.218  17.381   4.813  0.00  0.00     0.163 C 
HETATM   21  O   UNK N   1      26.190  17.020   3.648  0.00  0.00    -0.648 OA
BRANCH  20  22
HETATM   22  O   UNK N   1      25.115  17.254   5.578  0.00  0.00    -0.775 OA
HETATM   23  H   UNK N   1      25.119  16.788   6.390  0.00  0.00     0.167 HD
ENDBRANCH  20  22
ENDBRANCH  13  20
ENDBRANCH  10  13
ENDBRANCH   6   9
ENDBRANCH   1   3
BRANCH   1  24
HETATM   24  C   UNK N   1      33.638  15.163   9.619  0.00  0.00     0.223 C 
HETATM   25  N   UNK N   1      34.735  14.537   9.889  0.00  0.00    -0.306 N 
ATOM     26  HN  UNK N   1      35.441  14.460   9.158  1.00  0.00     0.171 HD
BRANCH  25  27
HETATM   27  C   UNK N   1      35.010  13.947  11.155  0.00  0.00     0.154 A 
HETATM   28  C   UNK N   1      35.911  14.544  12.065  0.00  0.00     0.123 A 
HETATM   29  C   UNK N   1      36.151  13.909  13.281  0.00  0.00     0.185 A 
HETATM   30  N   UNK N   1      35.536  12.731  13.561  0.00  0.00    -0.168 N 
HETATM   31  C   UNK N   1      34.696  12.151  12.664  0.00  0.00     0.679 A 
ATOM     32  HN  UNK N   1      35.708  12.274  14.457  1.00  0.00     0.186 HD
HETATM   33  N   UNK N   1      34.139  11.035  12.945  0.00  0.00    -0.234 N 
HETATM   34  N   UNK N   1      34.444  12.753  11.472  0.00  0.00    -0.174 N 
HETATM   35  H   UNK N   1      33.602  10.565  12.267  0.00  0.00     0.174 HD
ATOM     36  HN  UNK N   1      34.253  10.629  13.874  1.00  0.00     0.174 HD
HETATM   37  H   UNK N   1      33.842  12.316  10.828  0.00  0.00     0.186 HD
BRANCH  28  38
HETATM   38  N   UNK N   1      36.594  15.742  11.752  0.00  0.00    -0.393 N 
HETATM   39  H   UNK N   1      36.099  16.586  11.640  0.00  0.00     0.156 HD
HETATM   40  H   UNK N   1      37.573  15.732  11.644  0.00  0.00     0.156 HD
ENDBRANCH  28  38
BRANCH  29  41
HETATM   41  O   UNK N   1      36.996  14.451  14.176  0.00  0.00    -0.344 OA
HETATM   42  H   UNK N   1      37.881  14.154  14.249  0.00  0.00     0.219 HD
ENDBRANCH  29  41
ENDBRANCH  25  27
BRANCH  24  43
HETATM   43  O   UNK N   1      32.601  15.157  10.483  0.00  0.00    -0.332 OA
HETATM   44  H   UNK N   1      32.017  14.486  10.778  0.00  0.00     0.220 HD
ENDBRANCH  24  43
ENDBRANCH   1  24
TORSDOF 14
ENDMDL
MODEL 8
REMARK VINA RESULT:      -7.0      2.688     10.133
REMARK  14 active torsions:
REMARK  status: ('A' for Active; 'I' for Inactive)
REMARK    1  A    between atoms: C_6  and  C_5 
REMARK    2  A    between atoms: C_9  and  C_5 
REMARK    3  A    between atoms: C_10  and  C_6 
REMARK    4  A    between atoms: C_13  and  C_7 
REMARK    5  A    between atoms: N_21  and  C_8 
REMARK    6  A    between atoms: C_15  and  C_9 
REMARK    7  A    between atoms: C_9  and  N_22 
REMARK    8  A    between atoms: O_29  and  C_10 
REMARK    9  A    between atoms: N_18  and  C_11 
REMARK   10  A    between atoms: N_24  and  C_12 
REMARK       I    between atoms: N_22  and  C_13 
REMARK   11  A    between atoms: O_31  and  C_14 
REMARK   12  A    between atoms: O_33  and  C_15 
REMARK       I    between atoms: N_19  and  C_16 
REMARK   13  A    between atoms: N_21  and  C_17 
REMARK   14  A    between atoms: O_34  and  C_17 
ROOT
HETATM    1  N   UNK N   1      25.703  20.603   4.149  0.00  0.00    -0.322 N 
HETATM    2  H   UNK N   1      25.801  21.510   4.521  0.00  0.00     0.169 HD
ENDROOT
BRANCH   1   3
HETATM    3  C   UNK N   1      26.691  19.622   4.431  0.00  0.00     0.035 A 
HETATM    4  C   UNK N   1      26.785  18.524   3.584  0.00  0.00     0.030 A 
HETATM    5  C   UNK N   1      27.515  17.404   3.973  0.00  0.00     0.019 A 
HETATM    6  C   UNK N   1      28.200  17.364   5.201  0.00  0.00     0.032 A 
HETATM    7  C   UNK N   1      28.167  18.498   6.023  0.00  0.00     0.019 A 
HETATM    8  C   UNK N   1      27.400  19.613   5.650  0.00  0.00     0.030 A 
BRANCH   6   9
HETATM    9  C   UNK N   1      28.738  16.041   5.646  0.00  0.00     0.252 C 
HETATM   10  N   UNK N   1      30.048  15.726   5.873  0.00  0.00    -0.343 N 
HETATM   11  H   UNK N   1      30.164  14.892   6.382  0.00  0.00     0.163 HD
HETATM   12  O   UNK N   1      27.918  15.162   5.856  0.00  0.00    -0.268 OA
BRANCH  10  13
HETATM   13  C   UNK N   1      31.304  16.360   5.522  0.00  0.00     0.183 C 
BRANCH  13  14
HETATM   14  C   UNK N   1      31.793  17.427   6.505  0.00  0.00     0.046 C 
BRANCH  14  15
HETATM   15  C   UNK N   1      33.326  17.445   6.588  0.00  0.00     0.112 C 
BRANCH  15  16
HETATM   16  C   UNK N   1      33.805  17.905   7.933  0.00  0.00     0.139 C 
HETATM   17  O   UNK N   1      34.722  18.705   8.013  0.00  0.00    -0.650 OA
BRANCH  16  18
HETATM   18  O   UNK N   1      33.231  17.429   9.054  0.00  0.00    -0.776 OA
HETATM   19  H   UNK N   1      33.372  16.821   9.753  0.00  0.00     0.167 HD
ENDBRANCH  16  18
ENDBRANCH  15  16
ENDBRANCH  14  15
ENDBRANCH  13  14
BRANCH  13  20
HETATM   20  C   UNK N   1      31.262  16.834   4.095  0.00  0.00     0.163 C 
HETATM   21  O   UNK N   1      31.161  16.036   3.177  0.00  0.00    -0.648 OA
BRANCH  20  22
HETATM   22  O   UNK N   1      31.360  18.151   3.826  0.00  0.00    -0.775 OA
HETATM   23  H   UNK N   1      32.094  18.665   4.099  0.00  0.00     0.167 HD
ENDBRANCH  20  22
ENDBRANCH  13  20
ENDBRANCH  10  13
ENDBRANCH   6   9
ENDBRANCH   1   3
BRANCH   1  24
HETATM   24  C   UNK N   1      24.581  20.295   3.344  0.00  0.00     0.223 C 
HETATM   25  N   UNK N   1      23.572  19.693   3.882  0.00  0.00    -0.306 N 
ATOM     26  HN  UNK N   1      23.692  19.281   4.807  1.00  0.00     0.171 HD
BRANCH  25  27
HETATM   27  C   UNK N   1      22.302  19.574   3.252  0.00  0.00     0.154 A 
HETATM   28  C   UNK N   1      21.424  18.511   3.560  0.00  0.00     0.123 A 
HETATM   29  C   UNK N   1      20.201  18.440   2.897  0.00  0.00     0.185 A 
HETATM   30  N   UNK N   1      19.885  19.373   1.962  0.00  0.00    -0.168 N 
HETATM   31  C   UNK N   1      20.751  20.372   1.652  0.00  0.00     0.679 A 
ATOM     32  HN  UNK N   1      18.985  19.322   1.485  1.00  0.00     0.186 HD
HETATM   33  N   UNK N   1      20.437  21.231   0.758  0.00  0.00    -0.234 N 
HETATM   34  N   UNK N   1      21.949  20.464   2.287  0.00  0.00    -0.174 N 
HETATM   35  H   UNK N   1      21.094  21.903   0.464  0.00  0.00     0.174 HD
ATOM     36  HN  UNK N   1      19.503  21.219   0.348  1.00  0.00     0.174 HD
HETATM   37  H   UNK N   1      22.572  21.187   2.045  0.00  0.00     0.186 HD
BRANCH  28  38
HETATM   38  N   UNK N   1      21.775  17.508   4.493  0.00  0.00    -0.393 N 
HETATM   39  H   UNK N   1      21.924  16.580   4.199  0.00  0.00     0.156 HD
HETATM   40  H   UNK N   1      21.872  17.739   5.446  0.00  0.00     0.156 HD
ENDBRANCH  28  38
BRANCH  29  41
HETATM   41  O   UNK N   1      19.336  17.448   3.170  0.00  0.00    -0.344 OA
HETATM   42  H   UNK N   1      19.375  16.631   2.713  0.00  0.00     0.219 HD
ENDBRANCH  29  41
ENDBRANCH  25  27
BRANCH  24  43
HETATM   43  O   UNK N   1      24.538  20.714   2.061  0.00  0.00    -0.332 OA
HETATM   44  H   UNK N   1      23.891  20.647   1.387  0.00  0.00     0.220 HD
ENDBRANCH  24  43
ENDBRANCH   1  24
TORSDOF 14
ENDMDL
MODEL 9
REMARK VINA RESULT:      -7.0      6.587     14.282
REMARK  14 active torsions:
REMARK  status: ('A' for Active; 'I' for Inactive)
REMARK    1  A    between atoms: C_6  and  C_5 
REMARK    2  A    between atoms: C_9  and  C_5 
REMARK    3  A    between atoms: C_10  and  C_6 
REMARK    4  A    between atoms: C_13  and  C_7 
REMARK    5  A    between atoms: N_21  and  C_8 
REMARK    6  A    between atoms: C_15  and  C_9 
REMARK    7  A    between atoms: C_9  and  N_22 
REMARK    8  A    between atoms: O_29  and  C_10 
REMARK    9  A    between atoms: N_18  and  C_11 
REMARK   10  A    between atoms: N_24  and  C_12 
REMARK       I    between atoms: N_22  and  C_13 
REMARK   11  A    between atoms: O_31  and  C_14 
REMARK   12  A    between atoms: O_33  and  C_15 
REMARK       I    between atoms: N_19  and  C_16 
REMARK   13  A    between atoms: N_21  and  C_17 
REMARK   14  A    between atoms: O_34  and  C_17 
ROOT
HETATM    1  N   UNK N   1      34.285  17.530   9.441  0.00  0.00    -0.322 N 
HETATM    2  H   UNK N   1      34.641  18.385   9.777  0.00  0.00     0.169 HD
ENDROOT
BRANCH   1   3
HETATM    3  C   UNK N   1      34.888  16.312   9.855  0.00  0.00     0.035 A 
HETATM    4  C   UNK N   1      35.312  16.205  11.174  0.00  0.00     0.030 A 
HETATM    5  C   UNK N   1      36.163  15.170  11.551  0.00  0.00     0.019 A 
HETATM    6  C   UNK N   1      36.586  14.194  10.630  0.00  0.00     0.032 A 
HETATM    7  C   UNK N   1      36.101  14.259   9.318  0.00  0.00     0.019 A 
HETATM    8  C   UNK N   1      35.273  15.322   8.927  0.00  0.00     0.030 A 
BRANCH   6   9
HETATM    9  C   UNK N   1      37.691  13.280  11.056  0.00  0.00     0.252 C 
HETATM   10  N   UNK N   1      37.638  12.338  12.044  0.00  0.00    -0.343 N 
HETATM   11  H   UNK N   1      38.379  11.691  12.003  0.00  0.00     0.163 HD
HETATM   12  O   UNK N   1      38.739  13.366  10.435  0.00  0.00    -0.268 OA
BRANCH  10  13
HETATM   13  C   UNK N   1      36.722  12.089  13.140  0.00  0.00     0.183 C 
BRANCH  13  14
HETATM   14  C   UNK N   1      37.383  11.813  14.492  0.00  0.00     0.046 C 
BRANCH  14  15
HETATM   15  C   UNK N   1      36.337  11.708  15.611  0.00  0.00     0.112 C 
BRANCH  15  16
HETATM   16  C   UNK N   1      35.620  13.008  15.826  0.00  0.00     0.139 C 
HETATM   17  O   UNK N   1      36.232  13.982  16.232  0.00  0.00    -0.650 OA
BRANCH  16  18
HETATM   18  O   UNK N   1      34.300  13.101  15.582  0.00  0.00    -0.776 OA
HETATM   19  H   UNK N   1      33.659  12.927  14.920  0.00  0.00     0.167 HD
ENDBRANCH  16  18
ENDBRANCH  15  16
ENDBRANCH  14  15
ENDBRANCH  13  14
BRANCH  13  20
HETATM   20  C   UNK N   1      35.713  11.047  12.742  0.00  0.00     0.163 C 
HETATM   21  O   UNK N   1      34.543  11.347  12.571  0.00  0.00    -0.648 OA
BRANCH  20  22
HETATM   22  O   UNK N   1      36.101   9.764  12.596  0.00  0.00    -0.775 OA
HETATM   23  H   UNK N   1      36.420   9.427  11.783  0.00  0.00     0.167 HD
ENDBRANCH  20  22
ENDBRANCH  13  20
ENDBRANCH  10  13
ENDBRANCH   6   9
ENDBRANCH   1   3
BRANCH   1  24
HETATM   24  C   UNK N   1      33.182  17.532   8.555  0.00  0.00     0.223 C 
HETATM   25  N   UNK N   1      32.023  17.172   9.000  0.00  0.00    -0.306 N 
ATOM     26  HN  UNK N   1      31.976  16.710   9.908  1.00  0.00     0.171 HD
BRANCH  25  27
HETATM   27  C   UNK N   1      30.809  17.386   8.289  0.00  0.00     0.154 A 
HETATM   28  C   UNK N   1      29.744  18.120   8.857  0.00  0.00     0.123 A 
HETATM   29  C   UNK N   1      28.574  18.281   8.117  0.00  0.00     0.185 A 
HETATM   30  N   UNK N   1      28.472  17.721   6.884  0.00  0.00    -0.168 N 
HETATM   31  C   UNK N   1      29.492  16.991   6.363  0.00  0.00     0.679 A 
ATOM     32  HN  UNK N   1      27.617  17.849   6.343  1.00  0.00     0.186 HD
HETATM   33  N   UNK N   1      29.368  16.462   5.206  0.00  0.00    -0.234 N 
HETATM   34  N   UNK N   1      30.644  16.822   7.064  0.00  0.00    -0.174 N 
HETATM   35  H   UNK N   1      30.064  15.858   4.859  0.00  0.00     0.174 HD
ATOM     36  HN  UNK N   1      28.543  16.664   4.640  1.00  0.00     0.174 HD
HETATM   37  H   UNK N   1      31.371  16.282   6.678  0.00  0.00     0.186 HD
BRANCH  28  38
HETATM   38  N   UNK N   1      29.828  18.657  10.162  0.00  0.00    -0.393 N 
HETATM   39  H   UNK N   1      30.418  19.423  10.352  0.00  0.00     0.156 HD
HETATM   40  H   UNK N   1      29.293  18.262  10.889  0.00  0.00     0.156 HD
ENDBRANCH  28  38
BRANCH  29  41
HETATM   41  O   UNK N   1      27.542  18.980   8.621  0.00  0.00    -0.344 OA
HETATM   42  H   UNK N   1      27.004  18.628   9.302  0.00  0.00     0.219 HD
ENDBRANCH  29  41
ENDBRANCH  25  27
BRANCH  24  43
HETATM   43  O   UNK N   1      33.331  17.995   7.296  0.00  0.00    -0.332 OA
HETATM   44  H   UNK N   1      32.762  18.457   6.712  0.00  0.00     0.220 HD
ENDBRANCH  24  43
ENDBRANCH   1  24
TORSDOF 14
ENDMDL
