REMARK  7 active torsions:
REMARK  status: ('A' for Active; 'I' for Inactive)
REMARK    1  A    between atoms: O_1  and  C_2 
REMARK    2  A    between atoms: C_4  and  O_5 
REMARK    3  A    between atoms: C_9  and  O_10 
REMARK    4  A    between atoms: C_11  and  C_15 
REMARK    5  A    between atoms: C_17  and  O_18 
REMARK    6  A    between atoms: C_19  and  O_20 
REMARK    7  A    between atoms: C_21  and  O_22 
ROOT
HETATM    1  C   UNK N   1      -0.970  -1.557  -0.000  0.00  0.00     0.071 A 
HETATM    2  C   UNK N   1      -1.150  -0.172  -0.000  0.00  0.00     0.074 A 
HETATM    3  C   UNK N   1      -0.045   0.688  -0.000  0.00  0.00     0.085 A 
HETATM    4  C   UNK N   1       1.265   0.151  -0.000  0.00  0.00     0.084 A 
HETATM    5  C   UNK N   1       2.429   0.948  -0.000  0.00  0.00     0.223 A 
HETATM    6  O   UNK N   1       2.356   2.167  -0.000  0.00  0.00    -0.284 OA
HETATM    7  C   UNK N   1       3.686   0.330  -0.000  0.00  0.00     0.152 A 
HETATM    8  C   UNK N   1       3.755  -1.082   0.000  0.00  0.00     0.123 A 
HETATM    9  O   UNK N   1       2.632  -1.793   0.000  0.00  0.00    -0.306 OA
HETATM   10  C   UNK N   1       1.426  -1.252   0.000  0.00  0.00     0.096 A 
HETATM   11  C   UNK N   1       0.314  -2.092   0.000  0.00  0.00     0.075 A 
ENDROOT
BRANCH   8  12
HETATM   12  C   UNK N   1       5.026  -1.841   0.000  0.00  0.00     0.006 A 
HETATM   13  C   UNK N   1       6.282  -1.218   0.000  0.00  0.00     0.054 A 
HETATM   14  C   UNK N   1       7.450  -1.985   0.000  0.00  0.00     0.102 A 
HETATM   15  C   UNK N   1       7.371  -3.386   0.000  0.00  0.00     0.132 A 
HETATM   16  C   UNK N   1       6.119  -4.011   0.000  0.00  0.00     0.102 A 
HETATM   17  C   UNK N   1       4.960  -3.241   0.000  0.00  0.00     0.054 A 
BRANCH  14  18
HETATM   18  O   UNK N   1       8.646  -1.373   0.000  0.00  0.00    -0.358 OA
HETATM   19  H   UNK N   1       9.433  -1.882   0.000  0.00  0.00     0.217 HD
ENDBRANCH  14  18
BRANCH  15  20
HETATM   20  O   UNK N   1       8.494  -4.126  -0.000  0.00  0.00    -0.356 OA
HETATM   21  H   UNK N   1       8.438  -5.062  -0.000  0.00  0.00     0.218 HD
ENDBRANCH  15  20
BRANCH  16  22
HETATM   22  O   UNK N   1       6.025  -5.352   0.000  0.00  0.00    -0.358 OA
HETATM   23  H   UNK N   1       5.183  -5.762  -0.000  0.00  0.00     0.217 HD
ENDBRANCH  16  22
ENDBRANCH   8  12
BRANCH   7  24
HETATM   24  O   UNK N   1       4.800   1.087  -0.000  0.00  0.00    -0.355 OA
HETATM   25  H   UNK N   1       5.643   0.679  -0.000  0.00  0.00     0.218 HD
ENDBRANCH   7  24
BRANCH   3  26
HETATM   26  O   UNK N   1      -0.256   2.016  -0.000  0.00  0.00    -0.360 OA
HETATM   27  H   UNK N   1       0.472   2.606  -0.000  0.00  0.00     0.217 HD
ENDBRANCH   3  26
BRANCH   1  28
HETATM   28  O   UNK N   1      -2.034  -2.375  -0.000  0.00  0.00    -0.361 OA
HETATM   29  H   UNK N   1      -2.900  -2.017   0.000  0.00  0.00     0.217 HD
ENDBRANCH   1  28
TORSDOF 7
