MODEL 1
REMARK VINA RESULT:      -5.8      0.000      0.000
REMARK WARNING: 32 MAX_TORS EXCEEDED!!!
REMARK  44 active torsions:
REMARK  status: ('A' for Active; 'I' for Inactive)
REMARK    1  A    between atoms: C_5  and  C_4 
REMARK    2  A    between atoms: C_6  and  C_5 
REMARK    3  A    between atoms: C_7  and  C_6 
REMARK    4  A    between atoms: C_8  and  C_7 
REMARK    5  A    between atoms: C_9  and  C_8 
REMARK    6  A    between atoms: C_10  and  C_9 
REMARK    7  A    between atoms: C_11  and  C_10 
REMARK    8  A    between atoms: C_12  and  C_11 
REMARK    9  A    between atoms: C_13  and  C_12 
REMARK   10  A    between atoms: C_14  and  C_13 
REMARK   11  A    between atoms: C_15  and  C_14 
REMARK   12  A    between atoms: C_25  and  C_15 
REMARK   13  A    between atoms: C_17  and  C_16 
REMARK   14  A    between atoms: C_27  and  C_16 
REMARK   15  A    between atoms: N_40  and  C_17 
REMARK   16  A    between atoms: C_19  and  C_18 
REMARK   17  A    between atoms: N_38  and  C_18 
REMARK   18  A    between atoms: S_69  and  C_19 
REMARK   19  A    between atoms: C_26  and  C_20 
REMARK   20  A    between atoms: O_61  and  C_20 
REMARK   21  A    between atoms: C_25  and  C_21 
REMARK   22  A    between atoms: S_69  and  C_21 
REMARK   23  A    between atoms: C_36  and  C_22 
REMARK   24  A    between atoms: O_62  and  C_22 
REMARK   25  A    between atoms: N_38  and  C_27 
REMARK   26  A    between atoms: O_50  and  C_27 
REMARK   27  A    between atoms: C_29  and  O_51 
REMARK   28  A    between atoms: C_30  and  O_64 
REMARK   29  A    between atoms: C_34  and  C_31 
REMARK   30  A    between atoms: C_36  and  C_31 
REMARK   31  A    between atoms: C_31  and  O_52 
REMARK   32  A    between atoms: N_37  and  C_32 
REMARK   33  A    between atoms: N_40  and  C_34 
REMARK   34  A    between atoms: O_53  and  C_34 
REMARK   35  A    between atoms: C_35  and  N_48 
REMARK   36  A    between atoms: P_66  and  O_54 
REMARK   37  A    between atoms: P_66  and  O_55 
REMARK   38  A    between atoms: P_67  and  O_57 
REMARK   39  A    between atoms: P_68  and  O_59 
REMARK   40  A    between atoms: P_67  and  O_61 
REMARK   41  A    between atoms: P_68  and  O_62 
REMARK   42  A    between atoms: P_66  and  O_64 
REMARK   43  A    between atoms: P_67  and  O_65 
REMARK   44  A    between atoms: P_68  and  O_65 
ROOT
HETATM    1  O   UNK N   1      29.876  16.598   7.187  0.00  0.00    -0.631 OA
HETATM    2  P   UNK N   1      29.715  16.682   5.645  0.00  0.00     0.401 P 
ENDROOT
BRANCH   2   3
HETATM    3  O   UNK N   1      31.263  16.240   4.990  0.00  0.00    -0.307 OA
HETATM    4  H   UNK N   1      32.172  16.570   4.914  0.00  0.00     0.222 HD
ENDBRANCH   2   3
BRANCH   2   5
HETATM    5  O   UNK N   1      29.328  18.337   5.222  0.00  0.00    -0.296 OA
BRANCH   5   6
HETATM    6  C   UNK N   1      28.169  18.591   5.968  0.00  0.00     0.192 C 
BRANCH   6   7
HETATM    7  C   UNK N   1      27.112  19.471   5.287  0.00  0.00     0.008 C 
HETATM    8  C   UNK N   1      26.788  20.646   6.196  0.00  0.00     0.020 C 
HETATM    9  C   UNK N   1      27.638  20.022   3.967  0.00  0.00     0.020 C 
BRANCH   7  10
HETATM   10  C   UNK N   1      25.828  18.623   5.039  0.00  0.00     0.202 C 
BRANCH  10  11
HETATM   11  C   UNK N   1      25.483  18.537   3.568  0.00  0.00     0.141 C 
BRANCH  11  12
HETATM   12  N   UNK N   1      25.105  19.596   2.940  0.00  0.00    -0.372 N 
ATOM     13  HN  UNK N   1      25.615  19.871   2.100  1.00  0.00     0.161 HD
BRANCH  12  14
HETATM   14  C   UNK N   1      23.999  20.410   3.368  0.00  0.00     0.129 C 
BRANCH  14  15
HETATM   15  C   UNK N   1      22.755  19.534   3.368  0.00  0.00     0.103 C 
BRANCH  15  16
HETATM   16  C   UNK N   1      21.494  20.305   3.122  0.00  0.00     0.112 C 
BRANCH  16  17
HETATM   17  N   UNK N   1      20.363  19.752   3.402  0.00  0.00    -0.374 N 
ATOM     18  HN  UNK N   1      19.819  20.140   4.173  1.00  0.00     0.161 HD
BRANCH  17  19
HETATM   19  C   UNK N   1      19.819  18.616   2.691  0.00  0.00     0.131 C 
BRANCH  19  20
HETATM   20  C   UNK N   1      19.870  17.311   3.482  0.00  0.00     0.094 C 
BRANCH  20  21
HETATM   21  S   UNK N   1      21.084  16.121   2.802  0.00  0.00    -0.160 SA
BRANCH  21  22
HETATM   22  C   UNK N   1      21.351  15.225   4.368  0.00  0.00     0.152 C 
BRANCH  22  23
HETATM   23  C   UNK N   1      22.621  15.698   5.011  0.00  0.00     0.136 C 
HETATM   24  O   UNK N   1      23.678  15.601   4.409  0.00  0.00    -0.297 OA
BRANCH  23  25
HETATM   25  C   UNK N   1      22.622  16.200   6.424  0.00  0.00     0.079 C 
BRANCH  25  26
HETATM   26  C   UNK N   1      21.310  15.974   7.163  0.00  0.00     0.007 C 
BRANCH  26  27
HETATM   27  C   UNK N   1      21.491  15.366   8.547  0.00  0.00     0.000 C 
BRANCH  27  28
HETATM   28  C   UNK N   1      20.419  14.315   8.812  0.00  0.00     0.000 C 
BRANCH  28  29
HETATM   29  C   UNK N   1      20.963  13.102   9.559  0.00  0.00     0.000 C 
BRANCH  29  30
HETATM   30  C   UNK N   1      22.342  13.390  10.133  0.00  0.00     0.000 C 
BRANCH  30  31
HETATM   31  C   UNK N   1      23.072  12.113  10.492  0.00  0.00     0.000 C 
BRANCH  31  32
HETATM   32  C   UNK N   1      24.357  12.014   9.689  0.00  0.00     0.000 C 
BRANCH  32  33
HETATM   33  C   UNK N   1      24.556  13.273   8.861  0.00  0.00     0.000 C 
BRANCH  33  34
HETATM   34  C   UNK N   1      24.857  12.920   7.412  0.00  0.00     0.000 C 
BRANCH  34  35
HETATM   35  C   UNK N   1      23.945  11.806   6.926  0.00  0.00    -0.000 C 
BRANCH  35  36
HETATM   36  C   UNK N   1      22.683  12.386   6.318  0.00  0.00    -0.005 C 
HETATM   37  C   UNK N   1      21.547  11.389   6.421  0.00  0.00     0.005 C 
ENDBRANCH  35  36
ENDBRANCH  34  35
ENDBRANCH  33  34
ENDBRANCH  32  33
ENDBRANCH  31  32
ENDBRANCH  30  31
ENDBRANCH  29  30
ENDBRANCH  28  29
ENDBRANCH  27  28
ENDBRANCH  26  27
ENDBRANCH  25  26
ENDBRANCH  23  25
ENDBRANCH  22  23
ENDBRANCH  21  22
ENDBRANCH  20  21
ENDBRANCH  19  20
ENDBRANCH  17  19
ENDBRANCH  16  17
BRANCH  16  38
HETATM   38  O   UNK N   1      21.552  21.570   2.654  0.00  0.00    -0.350 OA
HETATM   39  H   UNK N   1      20.953  21.965   2.052  0.00  0.00     0.219 HD
ENDBRANCH  16  38
ENDBRANCH  15  16
ENDBRANCH  14  15
ENDBRANCH  12  14
ENDBRANCH  11  12
BRANCH  11  40
HETATM   40  O   UNK N   1      25.542  17.346   2.934  0.00  0.00    -0.348 OA
HETATM   41  H   UNK N   1      26.272  17.098   2.402  0.00  0.00     0.219 HD
ENDBRANCH  11  40
ENDBRANCH  10  11
BRANCH  10  42
HETATM   42  O   UNK N   1      25.996  17.330   5.546  0.00  0.00    -0.387 OA
HETATM   43  H   UNK N   1      26.251  17.026   6.431  0.00  0.00     0.210 HD
ENDBRANCH  10  42
ENDBRANCH   7  10
ENDBRANCH   6   7
ENDBRANCH   5   6
ENDBRANCH   2   5
BRANCH   2  44
HETATM   44  O   UNK N   1      28.568  15.448   5.098  0.00  0.00    -0.195 OA
BRANCH  44  45
HETATM   45  P   UNK N   1      28.968  14.894   3.480  0.00  0.00     0.401 P 
HETATM   46  O   UNK N   1      27.657  14.089   3.245  0.00  0.00    -0.631 OA
BRANCH  45  47
HETATM   47  O   UNK N   1      28.015  16.349   3.448  0.00  0.00    -0.307 OA
HETATM   48  H   UNK N   1      27.579  17.188   3.662  0.00  0.00     0.222 HD
ENDBRANCH  45  47
BRANCH  45  49
HETATM   49  O   UNK N   1      29.495  13.862   4.794  0.00  0.00    -0.294 OA
BRANCH  49  50
HETATM   50  C   UNK N   1      30.373  12.891   4.309  0.00  0.00     0.215 C 
BRANCH  50  51
HETATM   51  C   UNK N   1      31.592  12.697   5.223  0.00  0.00     0.180 C 
HETATM   52  C   UNK N   1      33.025  12.451   4.650  0.00  0.00     0.197 C 
HETATM   53  C   UNK N   1      33.891  13.201   5.668  0.00  0.00     0.199 C 
HETATM   54  C   UNK N   1      32.949  13.211   6.851  0.00  0.00     0.262 C 
HETATM   55  O   UNK N   1      31.715  13.621   6.287  0.00  0.00    -0.353 OA
BRANCH  52  56
HETATM   56  O   UNK N   1      33.270  12.990   3.351  0.00  0.00    -0.286 OA
BRANCH  56  57
HETATM   57  P   UNK N   1      33.993  14.625   3.279  0.00  0.00     0.391 P 
HETATM   58  O   UNK N   1      32.620  14.983   2.644  0.00  0.00    -0.632 OA
BRANCH  57  59
HETATM   59  O   UNK N   1      34.304  15.234   1.683  0.00  0.00    -0.307 OA
HETATM   60  H   UNK N   1      34.039  15.155   0.753  0.00  0.00     0.222 HD
ENDBRANCH  57  59
BRANCH  57  61
HETATM   61  O   UNK N   1      35.157  13.706   2.374  0.00  0.00    -0.307 OA
HETATM   62  H   UNK N   1      35.998  14.100   2.091  0.00  0.00     0.222 HD
ENDBRANCH  57  61
ENDBRANCH  56  57
ENDBRANCH  52  56
BRANCH  53  63
HETATM   63  O   UNK N   1      35.093  12.534   5.908  0.00  0.00    -0.388 OA
HETATM   64  H   UNK N   1      35.739  12.887   6.539  0.00  0.00     0.210 HD
ENDBRANCH  53  63
BRANCH  54  65
HETATM   65  N   UNK N   1      33.325  13.970   8.046  0.00  0.00    -0.297 N 
HETATM   66  C   UNK N   1      33.958  13.470   9.141  0.00  0.00     0.188 A 
HETATM   67  N   UNK N   1      34.483  14.466   9.911  0.00  0.00    -0.346 N 
HETATM   68  C   UNK N   1      34.170  15.598   9.250  0.00  0.00     0.122 A 
ATOM     69  HN  UNK N   1      34.996  14.376  10.787  1.00  0.00     0.167 HD
HETATM   70  C   UNK N   1      34.538  16.911   9.505  0.00  0.00     0.131 A 
HETATM   71  C   UNK N   1      33.456  15.300   8.149  0.00  0.00     0.142 A 
HETATM   72  N   UNK N   1      34.115  17.877   8.636  0.00  0.00    -0.337 N 
HETATM   73  C   UNK N   1      33.360  17.554   7.536  0.00  0.00     0.183 A 
ATOM     74  HN  UNK N   1      34.363  18.851   8.806  1.00  0.00     0.168 HD
HETATM   75  N   UNK N   1      33.050  16.249   7.271  0.00  0.00    -0.336 N 
ATOM     76  HN  UNK N   1      32.527  15.996   6.432  1.00  0.00     0.168 HD
BRANCH  70  77
HETATM   77  N   UNK N   1      35.379  17.240  10.587  0.00  0.00    -0.383 N 
HETATM   78  H   UNK N   1      35.154  16.950  11.499  0.00  0.00     0.157 HD
HETATM   79  H   UNK N   1      36.197  17.765  10.427  0.00  0.00     0.157 HD
ENDBRANCH  70  77
ENDBRANCH  54  65
ENDBRANCH  50  51
ENDBRANCH  49  50
ENDBRANCH  45  49
ENDBRANCH  44  45
ENDBRANCH   2  44
TORSDOF 44
ENDMDL
MODEL 2
REMARK VINA RESULT:      -5.6      7.226     13.714
REMARK WARNING: 32 MAX_TORS EXCEEDED!!!
REMARK  44 active torsions:
REMARK  status: ('A' for Active; 'I' for Inactive)
REMARK    1  A    between atoms: C_5  and  C_4 
REMARK    2  A    between atoms: C_6  and  C_5 
REMARK    3  A    between atoms: C_7  and  C_6 
REMARK    4  A    between atoms: C_8  and  C_7 
REMARK    5  A    between atoms: C_9  and  C_8 
REMARK    6  A    between atoms: C_10  and  C_9 
REMARK    7  A    between atoms: C_11  and  C_10 
REMARK    8  A    between atoms: C_12  and  C_11 
REMARK    9  A    between atoms: C_13  and  C_12 
REMARK   10  A    between atoms: C_14  and  C_13 
REMARK   11  A    between atoms: C_15  and  C_14 
REMARK   12  A    between atoms: C_25  and  C_15 
REMARK   13  A    between atoms: C_17  and  C_16 
REMARK   14  A    between atoms: C_27  and  C_16 
REMARK   15  A    between atoms: N_40  and  C_17 
REMARK   16  A    between atoms: C_19  and  C_18 
REMARK   17  A    between atoms: N_38  and  C_18 
REMARK   18  A    between atoms: S_69  and  C_19 
REMARK   19  A    between atoms: C_26  and  C_20 
REMARK   20  A    between atoms: O_61  and  C_20 
REMARK   21  A    between atoms: C_25  and  C_21 
REMARK   22  A    between atoms: S_69  and  C_21 
REMARK   23  A    between atoms: C_36  and  C_22 
REMARK   24  A    between atoms: O_62  and  C_22 
REMARK   25  A    between atoms: N_38  and  C_27 
REMARK   26  A    between atoms: O_50  and  C_27 
REMARK   27  A    between atoms: C_29  and  O_51 
REMARK   28  A    between atoms: C_30  and  O_64 
REMARK   29  A    between atoms: C_34  and  C_31 
REMARK   30  A    between atoms: C_36  and  C_31 
REMARK   31  A    between atoms: C_31  and  O_52 
REMARK   32  A    between atoms: N_37  and  C_32 
REMARK   33  A    between atoms: N_40  and  C_34 
REMARK   34  A    between atoms: O_53  and  C_34 
REMARK   35  A    between atoms: C_35  and  N_48 
REMARK   36  A    between atoms: P_66  and  O_54 
REMARK   37  A    between atoms: P_66  and  O_55 
REMARK   38  A    between atoms: P_67  and  O_57 
REMARK   39  A    between atoms: P_68  and  O_59 
REMARK   40  A    between atoms: P_67  and  O_61 
REMARK   41  A    between atoms: P_68  and  O_62 
REMARK   42  A    between atoms: P_66  and  O_64 
REMARK   43  A    between atoms: P_67  and  O_65 
REMARK   44  A    between atoms: P_68  and  O_65 
ROOT
HETATM    1  O   UNK N   1      28.405  18.251   8.357  0.00  0.00    -0.631 OA
HETATM    2  P   UNK N   1      28.153  17.642   6.951  0.00  0.00     0.401 P 
ENDROOT
BRANCH   2   3
HETATM    3  O   UNK N   1      26.826  16.537   7.153  0.00  0.00    -0.307 OA
HETATM    4  H   UNK N   1      25.864  16.486   7.044  0.00  0.00     0.222 HD
ENDBRANCH   2   3
BRANCH   2   5
HETATM    5  O   UNK N   1      29.594  16.776   6.460  0.00  0.00    -0.296 OA
BRANCH   5   6
HETATM    6  C   UNK N   1      30.416  16.865   7.591  0.00  0.00     0.192 C 
BRANCH   6   7
HETATM    7  C   UNK N   1      31.924  16.951   7.319  0.00  0.00     0.008 C 
HETATM    8  C   UNK N   1      32.143  17.318   5.860  0.00  0.00     0.020 C 
HETATM    9  C   UNK N   1      32.567  18.030   8.181  0.00  0.00     0.020 C 
BRANCH   7  10
HETATM   10  C   UNK N   1      32.575  15.568   7.620  0.00  0.00     0.202 C 
BRANCH  10  11
HETATM   11  C   UNK N   1      33.108  15.490   9.034  0.00  0.00     0.141 C 
BRANCH  11  12
HETATM   12  N   UNK N   1      34.372  15.614   9.245  0.00  0.00    -0.372 N 
ATOM     13  HN  UNK N   1      35.019  15.149   8.608  1.00  0.00     0.161 HD
BRANCH  12  14
HETATM   14  C   UNK N   1      34.915  16.377  10.337  0.00  0.00     0.129 C 
BRANCH  14  15
HETATM   15  C   UNK N   1      36.094  15.600  10.902  0.00  0.00     0.103 C 
BRANCH  15  16
HETATM   16  C   UNK N   1      35.691  14.584  11.927  0.00  0.00     0.112 C 
BRANCH  16  17
HETATM   17  N   UNK N   1      36.576  14.161  12.764  0.00  0.00    -0.374 N 
ATOM     18  HN  UNK N   1      37.135  14.854  13.261  1.00  0.00     0.161 HD
BRANCH  17  19
HETATM   19  C   UNK N   1      36.825  12.762  13.040  0.00  0.00     0.131 C 
BRANCH  19  20
HETATM   20  C   UNK N   1      36.894  12.430  14.529  0.00  0.00     0.094 C 
BRANCH  20  21
HETATM   21  S   UNK N   1      36.659  13.904  15.591  0.00  0.00    -0.160 SA
BRANCH  21  22
HETATM   22  C   UNK N   1      35.124  13.311  16.379  0.00  0.00     0.152 C 
BRANCH  22  23
HETATM   23  C   UNK N   1      35.240  13.433  17.869  0.00  0.00     0.136 C 
HETATM   24  O   UNK N   1      35.375  14.534  18.377  0.00  0.00    -0.297 OA
BRANCH  23  25
HETATM   25  C   UNK N   1      35.290  12.210  18.735  0.00  0.00     0.079 C 
BRANCH  25  26
HETATM   26  C   UNK N   1      35.278  10.900  17.959  0.00  0.00     0.007 C 
BRANCH  26  27
HETATM   27  C   UNK N   1      36.523  10.053  18.181  0.00  0.00     0.000 C 
BRANCH  27  28
HETATM   28  C   UNK N   1      36.137   8.608  18.483  0.00  0.00     0.000 C 
BRANCH  28  29
HETATM   29  C   UNK N   1      34.715   8.279  18.041  0.00  0.00     0.000 C 
BRANCH  29  30
HETATM   30  C   UNK N   1      33.895   7.740  19.204  0.00  0.00     0.000 C 
BRANCH  30  31
HETATM   31  C   UNK N   1      32.999   8.809  19.793  0.00  0.00     0.000 C 
BRANCH  31  32
HETATM   32  C   UNK N   1      33.178   8.853  21.301  0.00  0.00     0.000 C 
BRANCH  32  33
HETATM   33  C   UNK N   1      34.238   9.877  21.674  0.00  0.00     0.000 C 
BRANCH  33  34
HETATM   34  C   UNK N   1      35.490   9.188  22.193  0.00  0.00     0.000 C 
BRANCH  34  35
HETATM   35  C   UNK N   1      36.736   9.972  21.814  0.00  0.00    -0.000 C 
BRANCH  35  36
HETATM   36  C   UNK N   1      37.928   9.044  21.699  0.00  0.00    -0.005 C 
HETATM   37  C   UNK N   1      39.188   9.841  21.428  0.00  0.00     0.005 C 
ENDBRANCH  35  36
ENDBRANCH  34  35
ENDBRANCH  33  34
ENDBRANCH  32  33
ENDBRANCH  31  32
ENDBRANCH  30  31
ENDBRANCH  29  30
ENDBRANCH  28  29
ENDBRANCH  27  28
ENDBRANCH  26  27
ENDBRANCH  25  26
ENDBRANCH  23  25
ENDBRANCH  22  23
ENDBRANCH  21  22
ENDBRANCH  20  21
ENDBRANCH  19  20
ENDBRANCH  17  19
ENDBRANCH  16  17
BRANCH  16  38
HETATM   38  O   UNK N   1      34.412  14.157  11.993  0.00  0.00    -0.350 OA
HETATM   39  H   UNK N   1      33.816  14.086  11.274  0.00  0.00     0.219 HD
ENDBRANCH  16  38
ENDBRANCH  15  16
ENDBRANCH  14  15
ENDBRANCH  12  14
ENDBRANCH  11  12
BRANCH  11  40
HETATM   40  O   UNK N   1      32.260  15.257  10.059  0.00  0.00    -0.348 OA
HETATM   41  H   UNK N   1      31.381  15.582  10.064  0.00  0.00     0.219 HD
ENDBRANCH  11  40
ENDBRANCH  10  11
BRANCH  10  42
HETATM   42  O   UNK N   1      31.644  14.542   7.425  0.00  0.00    -0.387 OA
HETATM   43  H   UNK N   1      31.678  13.756   6.857  0.00  0.00     0.210 HD
ENDBRANCH  10  42
ENDBRANCH   7  10
ENDBRANCH   6   7
ENDBRANCH   5   6
ENDBRANCH   2   5
BRANCH   2  44
HETATM   44  O   UNK N   1      27.588  18.907   5.847  0.00  0.00    -0.195 OA
BRANCH  44  45
HETATM   45  P   UNK N   1      27.441  18.290   4.210  0.00  0.00     0.401 P 
HETATM   46  O   UNK N   1      27.261  19.674   3.520  0.00  0.00    -0.631 OA
BRANCH  45  47
HETATM   47  O   UNK N   1      29.077  18.751   4.582  0.00  0.00    -0.307 OA
HETATM   48  H   UNK N   1      29.888  19.241   4.789  0.00  0.00     0.222 HD
ENDBRANCH  45  47
BRANCH  45  49
HETATM   49  O   UNK N   1      25.947  18.423   5.113  0.00  0.00    -0.294 OA
BRANCH  49  50
HETATM   50  C   UNK N   1      24.903  17.846   4.388  0.00  0.00     0.215 C 
BRANCH  50  51
HETATM   51  C   UNK N   1      23.827  17.237   5.299  0.00  0.00     0.180 C 
HETATM   52  C   UNK N   1      22.307  17.293   4.936  0.00  0.00     0.197 C 
HETATM   53  C   UNK N   1      21.817  15.946   5.476  0.00  0.00     0.199 C 
HETATM   54  C   UNK N   1      22.900  15.666   6.494  0.00  0.00     0.262 C 
HETATM   55  O   UNK N   1      24.097  15.936   5.785  0.00  0.00    -0.353 OA
BRANCH  52  56
HETATM   56  O   UNK N   1      22.009  17.366   3.542  0.00  0.00    -0.286 OA
BRANCH  56  57
HETATM   57  P   UNK N   1      20.497  18.206   3.083  0.00  0.00     0.391 P 
HETATM   58  O   UNK N   1      20.508  17.162   1.931  0.00  0.00    -0.632 OA
BRANCH  57  59
HETATM   59  O   UNK N   1      20.557  19.087   1.588  0.00  0.00    -0.307 OA
HETATM   60  H   UNK N   1      21.048  19.178   0.757  0.00  0.00     0.222 HD
ENDBRANCH  57  59
BRANCH  57  61
HETATM   61  O   UNK N   1      21.627  19.526   3.072  0.00  0.00    -0.307 OA
HETATM   62  H   UNK N   1      21.339  20.435   3.251  0.00  0.00     0.222 HD
ENDBRANCH  57  61
ENDBRANCH  56  57
ENDBRANCH  52  56
BRANCH  53  63
HETATM   63  O   UNK N   1      20.538  16.049   6.026  0.00  0.00    -0.388 OA
HETATM   64  H   UNK N   1      19.939  15.287   6.034  0.00  0.00     0.210 HD
ENDBRANCH  53  63
BRANCH  54  65
HETATM   65  N   UNK N   1      22.907  14.370   7.179  0.00  0.00    -0.297 N 
HETATM   66  C   UNK N   1      23.930  13.474   7.178  0.00  0.00     0.188 A 
HETATM   67  N   UNK N   1      23.786  12.553   8.173  0.00  0.00    -0.346 N 
HETATM   68  C   UNK N   1      22.650  12.915   8.801  0.00  0.00     0.122 A 
ATOM     69  HN  UNK N   1      24.398  11.768   8.393  1.00  0.00     0.167 HD
HETATM   70  C   UNK N   1      22.067  12.410   9.954  0.00  0.00     0.131 A 
HETATM   71  C   UNK N   1      22.114  13.987   8.189  0.00  0.00     0.142 A 
HETATM   72  N   UNK N   1      20.921  13.002  10.407  0.00  0.00    -0.337 N 
HETATM   73  C   UNK N   1      20.374  14.074   9.747  0.00  0.00     0.183 A 
ATOM     74  HN  UNK N   1      20.467  12.643  11.246  1.00  0.00     0.168 HD
HETATM   75  N   UNK N   1      20.990  14.594   8.643  0.00  0.00    -0.336 N 
ATOM     76  HN  UNK N   1      20.613  15.417   8.173  1.00  0.00     0.168 HD
BRANCH  70  77
HETATM   77  N   UNK N   1      22.666  11.362  10.680  0.00  0.00    -0.383 N 
HETATM   78  H   UNK N   1      23.377  10.817  10.274  0.00  0.00     0.157 HD
HETATM   79  H   UNK N   1      22.370  11.174  11.600  0.00  0.00     0.157 HD
ENDBRANCH  70  77
ENDBRANCH  54  65
ENDBRANCH  50  51
ENDBRANCH  49  50
ENDBRANCH  45  49
ENDBRANCH  44  45
ENDBRANCH   2  44
TORSDOF 44
ENDMDL
MODEL 3
REMARK VINA RESULT:      -5.6      2.788      5.079
REMARK WARNING: 32 MAX_TORS EXCEEDED!!!
REMARK  44 active torsions:
REMARK  status: ('A' for Active; 'I' for Inactive)
REMARK    1  A    between atoms: C_5  and  C_4 
REMARK    2  A    between atoms: C_6  and  C_5 
REMARK    3  A    between atoms: C_7  and  C_6 
REMARK    4  A    between atoms: C_8  and  C_7 
REMARK    5  A    between atoms: C_9  and  C_8 
REMARK    6  A    between atoms: C_10  and  C_9 
REMARK    7  A    between atoms: C_11  and  C_10 
REMARK    8  A    between atoms: C_12  and  C_11 
REMARK    9  A    between atoms: C_13  and  C_12 
REMARK   10  A    between atoms: C_14  and  C_13 
REMARK   11  A    between atoms: C_15  and  C_14 
REMARK   12  A    between atoms: C_25  and  C_15 
REMARK   13  A    between atoms: C_17  and  C_16 
REMARK   14  A    between atoms: C_27  and  C_16 
REMARK   15  A    between atoms: N_40  and  C_17 
REMARK   16  A    between atoms: C_19  and  C_18 
REMARK   17  A    between atoms: N_38  and  C_18 
REMARK   18  A    between atoms: S_69  and  C_19 
REMARK   19  A    between atoms: C_26  and  C_20 
REMARK   20  A    between atoms: O_61  and  C_20 
REMARK   21  A    between atoms: C_25  and  C_21 
REMARK   22  A    between atoms: S_69  and  C_21 
REMARK   23  A    between atoms: C_36  and  C_22 
REMARK   24  A    between atoms: O_62  and  C_22 
REMARK   25  A    between atoms: N_38  and  C_27 
REMARK   26  A    between atoms: O_50  and  C_27 
REMARK   27  A    between atoms: C_29  and  O_51 
REMARK   28  A    between atoms: C_30  and  O_64 
REMARK   29  A    between atoms: C_34  and  C_31 
REMARK   30  A    between atoms: C_36  and  C_31 
REMARK   31  A    between atoms: C_31  and  O_52 
REMARK   32  A    between atoms: N_37  and  C_32 
REMARK   33  A    between atoms: N_40  and  C_34 
REMARK   34  A    between atoms: O_53  and  C_34 
REMARK   35  A    between atoms: C_35  and  N_48 
REMARK   36  A    between atoms: P_66  and  O_54 
REMARK   37  A    between atoms: P_66  and  O_55 
REMARK   38  A    between atoms: P_67  and  O_57 
REMARK   39  A    between atoms: P_68  and  O_59 
REMARK   40  A    between atoms: P_67  and  O_61 
REMARK   41  A    between atoms: P_68  and  O_62 
REMARK   42  A    between atoms: P_66  and  O_64 
REMARK   43  A    between atoms: P_67  and  O_65 
REMARK   44  A    between atoms: P_68  and  O_65 
ROOT
HETATM    1  O   UNK N   1      27.564  15.146   5.539  0.00  0.00    -0.631 OA
HETATM    2  P   UNK N   1      27.897  14.768   4.071  0.00  0.00     0.401 P 
ENDROOT
BRANCH   2   3
HETATM    3  O   UNK N   1      28.487  16.228   3.335  0.00  0.00    -0.307 OA
HETATM    4  H   UNK N   1      28.729  17.141   3.559  0.00  0.00     0.222 HD
ENDBRANCH   2   3
BRANCH   2   5
HETATM    5  O   UNK N   1      26.418  14.250   3.288  0.00  0.00    -0.296 OA
BRANCH   5   6
HETATM    6  C   UNK N   1      25.757  15.459   3.032  0.00  0.00     0.192 C 
BRANCH   6   7
HETATM    7  C   UNK N   1      24.477  15.707   3.842  0.00  0.00     0.008 C 
HETATM    8  C   UNK N   1      23.274  15.564   2.923  0.00  0.00     0.020 C 
HETATM    9  C   UNK N   1      24.342  14.685   4.964  0.00  0.00     0.020 C 
BRANCH   7  10
HETATM   10  C   UNK N   1      24.522  17.148   4.434  0.00  0.00     0.202 C 
BRANCH  10  11
HETATM   11  C   UNK N   1      23.139  17.671   4.756  0.00  0.00     0.141 C 
BRANCH  11  12
HETATM   12  N   UNK N   1      22.516  18.396   3.892  0.00  0.00    -0.372 N 
ATOM     13  HN  UNK N   1      22.968  18.578   2.995  1.00  0.00     0.161 HD
BRANCH  12  14
HETATM   14  C   UNK N   1      21.216  18.961   4.133  0.00  0.00     0.129 C 
BRANCH  14  15
HETATM   15  C   UNK N   1      20.192  18.074   3.440  0.00  0.00     0.103 C 
BRANCH  15  16
HETATM   16  C   UNK N   1      20.085  18.338   1.969  0.00  0.00     0.112 C 
BRANCH  16  17
HETATM   17  N   UNK N   1      19.480  17.476   1.225  0.00  0.00    -0.374 N 
ATOM     18  HN  UNK N   1      18.529  17.688   0.924  1.00  0.00     0.161 HD
BRANCH  17  19
HETATM   19  C   UNK N   1      20.068  16.227   0.792  0.00  0.00     0.131 C 
BRANCH  19  20
HETATM   20  C   UNK N   1      19.042  15.171   0.386  0.00  0.00     0.094 C 
BRANCH  20  21
HETATM   21  S   UNK N   1      19.166  13.645   1.392  0.00  0.00    -0.160 SA
BRANCH  21  22
HETATM   22  C   UNK N   1      19.360  14.502   2.991  0.00  0.00     0.152 C 
BRANCH  22  23
HETATM   23  C   UNK N   1      19.356  13.499   4.105  0.00  0.00     0.136 C 
HETATM   24  O   UNK N   1      18.309  13.224   4.669  0.00  0.00    -0.297 OA
BRANCH  23  25
HETATM   25  C   UNK N   1      20.639  12.900   4.601  0.00  0.00     0.079 C 
BRANCH  25  26
HETATM   26  C   UNK N   1      20.476  12.021   5.834  0.00  0.00     0.007 C 
BRANCH  26  27
HETATM   27  C   UNK N   1      21.439  10.842   5.868  0.00  0.00     0.000 C 
BRANCH  27  28
HETATM   28  C   UNK N   1      22.829  11.275   5.415  0.00  0.00     0.000 C 
BRANCH  28  29
HETATM   29  C   UNK N   1      23.934  10.705   6.297  0.00  0.00     0.000 C 
BRANCH  29  30
HETATM   30  C   UNK N   1      23.563  10.807   7.769  0.00  0.00     0.000 C 
BRANCH  30  31
HETATM   31  C   UNK N   1      23.908  12.169   8.334  0.00  0.00     0.000 C 
BRANCH  31  32
HETATM   32  C   UNK N   1      24.368  12.023   9.775  0.00  0.00     0.000 C 
BRANCH  32  33
HETATM   33  C   UNK N   1      23.323  12.592  10.720  0.00  0.00     0.000 C 
BRANCH  33  34
HETATM   34  C   UNK N   1      21.937  12.080  10.358  0.00  0.00     0.000 C 
BRANCH  34  35
HETATM   35  C   UNK N   1      20.917  13.207  10.394  0.00  0.00    -0.000 C 
BRANCH  35  36
HETATM   36  C   UNK N   1      20.639  13.711   8.992  0.00  0.00    -0.005 C 
HETATM   37  C   UNK N   1      21.313  15.051   8.775  0.00  0.00     0.005 C 
ENDBRANCH  35  36
ENDBRANCH  34  35
ENDBRANCH  33  34
ENDBRANCH  32  33
ENDBRANCH  31  32
ENDBRANCH  30  31
ENDBRANCH  29  30
ENDBRANCH  28  29
ENDBRANCH  27  28
ENDBRANCH  26  27
ENDBRANCH  25  26
ENDBRANCH  23  25
ENDBRANCH  22  23
ENDBRANCH  21  22
ENDBRANCH  20  21
ENDBRANCH  19  20
ENDBRANCH  17  19
ENDBRANCH  16  17
BRANCH  16  38
HETATM   38  O   UNK N   1      20.581  19.481   1.448  0.00  0.00    -0.350 OA
HETATM   39  H   UNK N   1      20.512  19.756   0.555  0.00  0.00     0.219 HD
ENDBRANCH  16  38
ENDBRANCH  15  16
ENDBRANCH  14  15
ENDBRANCH  12  14
ENDBRANCH  11  12
BRANCH  11  40
HETATM   40  O   UNK N   1      22.582  17.402   5.956  0.00  0.00    -0.348 OA
HETATM   41  H   UNK N   1      21.868  16.803   6.053  0.00  0.00     0.219 HD
ENDBRANCH  11  40
ENDBRANCH  10  11
BRANCH  10  42
HETATM   42  O   UNK N   1      25.301  17.170   5.596  0.00  0.00    -0.387 OA
HETATM   43  H   UNK N   1      25.761  17.903   6.036  0.00  0.00     0.210 HD
ENDBRANCH  10  42
ENDBRANCH   7  10
ENDBRANCH   6   7
ENDBRANCH   5   6
ENDBRANCH   2   5
BRANCH   2  44
HETATM   44  O   UNK N   1      29.240  13.614   4.043  0.00  0.00    -0.195 OA
BRANCH  44  45
HETATM   45  P   UNK N   1      30.557  14.210   3.046  0.00  0.00     0.401 P 
HETATM   46  O   UNK N   1      31.069  12.813   2.586  0.00  0.00    -0.631 OA
BRANCH  45  47
HETATM   47  O   UNK N   1      29.117  13.928   2.113  0.00  0.00    -0.307 OA
HETATM   48  H   UNK N   1      28.463  13.604   1.474  0.00  0.00     0.222 HD
ENDBRANCH  45  47
BRANCH  45  49
HETATM   49  O   UNK N   1      30.944  13.917   4.729  0.00  0.00    -0.294 OA
BRANCH  49  50
HETATM   50  C   UNK N   1      31.635  15.011   5.253  0.00  0.00     0.215 C 
BRANCH  50  51
HETATM   51  C   UNK N   1      30.931  15.615   6.477  0.00  0.00     0.180 C 
HETATM   52  C   UNK N   1      31.720  16.066   7.748  0.00  0.00     0.197 C 
HETATM   53  C   UNK N   1      30.918  17.296   8.182  0.00  0.00     0.199 C 
HETATM   54  C   UNK N   1      29.595  16.992   7.515  0.00  0.00     0.262 C 
HETATM   55  O   UNK N   1      29.968  16.615   6.201  0.00  0.00    -0.353 OA
BRANCH  52  56
HETATM   56  O   UNK N   1      33.076  16.455   7.524  0.00  0.00    -0.286 OA
BRANCH  56  57
HETATM   57  P   UNK N   1      33.521  18.128   7.978  0.00  0.00     0.391 P 
HETATM   58  O   UNK N   1      34.515  17.967   6.794  0.00  0.00    -0.632 OA
BRANCH  57  59
HETATM   59  O   UNK N   1      35.123  18.326   8.618  0.00  0.00    -0.307 OA
HETATM   60  H   UNK N   1      35.933  18.852   8.539  0.00  0.00     0.222 HD
ENDBRANCH  57  59
BRANCH  57  61
HETATM   61  O   UNK N   1      33.806  17.289   9.473  0.00  0.00    -0.307 OA
HETATM   62  H   UNK N   1      33.615  16.342   9.562  0.00  0.00     0.222 HD
ENDBRANCH  57  61
ENDBRANCH  56  57
ENDBRANCH  52  56
BRANCH  53  63
HETATM   63  O   UNK N   1      30.841  17.393   9.572  0.00  0.00    -0.388 OA
HETATM   64  H   UNK N   1      30.968  18.245  10.018  0.00  0.00     0.210 HD
ENDBRANCH  53  63
BRANCH  54  65
HETATM   65  N   UNK N   1      28.536  18.003   7.554  0.00  0.00    -0.297 N 
HETATM   66  C   UNK N   1      28.112  18.671   8.660  0.00  0.00     0.188 A 
HETATM   67  N   UNK N   1      27.386  19.776   8.326  0.00  0.00    -0.346 N 
HETATM   68  C   UNK N   1      27.387  19.781   6.978  0.00  0.00     0.122 A 
ATOM     69  HN  UNK N   1      26.943  20.447   8.953  1.00  0.00     0.167 HD
HETATM   70  C   UNK N   1      26.899  20.728   6.090  0.00  0.00     0.131 A 
HETATM   71  C   UNK N   1      28.054  18.707   6.520  0.00  0.00     0.142 A 
HETATM   72  N   UNK N   1      27.076  20.504   4.753  0.00  0.00    -0.337 N 
HETATM   73  C   UNK N   1      27.731  19.383   4.306  0.00  0.00     0.183 A 
ATOM     74  HN  UNK N   1      26.717  21.179   4.078  1.00  0.00     0.168 HD
HETATM   75  N   UNK N   1      28.253  18.488   5.197  0.00  0.00    -0.336 N 
ATOM     76  HN  UNK N   1      28.778  17.675   4.874  1.00  0.00     0.168 HD
BRANCH  70  77
HETATM   77  N   UNK N   1      26.297  21.918   6.542  0.00  0.00    -0.383 N 
HETATM   78  H   UNK N   1      25.721  22.445   5.943  0.00  0.00     0.157 HD
HETATM   79  H   UNK N   1      26.453  22.224   7.465  0.00  0.00     0.157 HD
ENDBRANCH  70  77
ENDBRANCH  54  65
ENDBRANCH  50  51
ENDBRANCH  49  50
ENDBRANCH  45  49
ENDBRANCH  44  45
ENDBRANCH   2  44
TORSDOF 44
ENDMDL
MODEL 4
REMARK VINA RESULT:      -5.6      4.665      8.996
REMARK WARNING: 32 MAX_TORS EXCEEDED!!!
REMARK  44 active torsions:
REMARK  status: ('A' for Active; 'I' for Inactive)
REMARK    1  A    between atoms: C_5  and  C_4 
REMARK    2  A    between atoms: C_6  and  C_5 
REMARK    3  A    between atoms: C_7  and  C_6 
REMARK    4  A    between atoms: C_8  and  C_7 
REMARK    5  A    between atoms: C_9  and  C_8 
REMARK    6  A    between atoms: C_10  and  C_9 
REMARK    7  A    between atoms: C_11  and  C_10 
REMARK    8  A    between atoms: C_12  and  C_11 
REMARK    9  A    between atoms: C_13  and  C_12 
REMARK   10  A    between atoms: C_14  and  C_13 
REMARK   11  A    between atoms: C_15  and  C_14 
REMARK   12  A    between atoms: C_25  and  C_15 
REMARK   13  A    between atoms: C_17  and  C_16 
REMARK   14  A    between atoms: C_27  and  C_16 
REMARK   15  A    between atoms: N_40  and  C_17 
REMARK   16  A    between atoms: C_19  and  C_18 
REMARK   17  A    between atoms: N_38  and  C_18 
REMARK   18  A    between atoms: S_69  and  C_19 
REMARK   19  A    between atoms: C_26  and  C_20 
REMARK   20  A    between atoms: O_61  and  C_20 
REMARK   21  A    between atoms: C_25  and  C_21 
REMARK   22  A    between atoms: S_69  and  C_21 
REMARK   23  A    between atoms: C_36  and  C_22 
REMARK   24  A    between atoms: O_62  and  C_22 
REMARK   25  A    between atoms: N_38  and  C_27 
REMARK   26  A    between atoms: O_50  and  C_27 
REMARK   27  A    between atoms: C_29  and  O_51 
REMARK   28  A    between atoms: C_30  and  O_64 
REMARK   29  A    between atoms: C_34  and  C_31 
REMARK   30  A    between atoms: C_36  and  C_31 
REMARK   31  A    between atoms: C_31  and  O_52 
REMARK   32  A    between atoms: N_37  and  C_32 
REMARK   33  A    between atoms: N_40  and  C_34 
REMARK   34  A    between atoms: O_53  and  C_34 
REMARK   35  A    between atoms: C_35  and  N_48 
REMARK   36  A    between atoms: P_66  and  O_54 
REMARK   37  A    between atoms: P_66  and  O_55 
REMARK   38  A    between atoms: P_67  and  O_57 
REMARK   39  A    between atoms: P_68  and  O_59 
REMARK   40  A    between atoms: P_67  and  O_61 
REMARK   41  A    between atoms: P_68  and  O_62 
REMARK   42  A    between atoms: P_66  and  O_64 
REMARK   43  A    between atoms: P_67  and  O_65 
REMARK   44  A    between atoms: P_68  and  O_65 
ROOT
HETATM    1  O   UNK N   1      27.456  21.995   5.795  0.00  0.00    -0.631 OA
HETATM    2  P   UNK N   1      26.809  20.588   5.699  0.00  0.00     0.401 P 
ENDROOT
BRANCH   2   3
HETATM    3  O   UNK N   1      26.297  20.198   7.314  0.00  0.00    -0.307 OA
HETATM    4  H   UNK N   1      26.622  20.197   8.228  0.00  0.00     0.222 HD
ENDBRANCH   2   3
BRANCH   2   5
HETATM    5  O   UNK N   1      28.032  19.455   5.161  0.00  0.00    -0.296 OA
BRANCH   5   6
HETATM    6  C   UNK N   1      27.858  18.368   6.027  0.00  0.00     0.192 C 
BRANCH   6   7
HETATM    7  C   UNK N   1      28.266  16.996   5.473  0.00  0.00     0.008 C 
HETATM    8  C   UNK N   1      28.352  17.081   3.957  0.00  0.00     0.020 C 
HETATM    9  C   UNK N   1      29.635  16.586   6.003  0.00  0.00     0.020 C 
BRANCH   7  10
HETATM   10  C   UNK N   1      27.196  15.942   5.885  0.00  0.00     0.202 C 
BRANCH  10  11
HETATM   11  C   UNK N   1      25.903  16.119   5.117  0.00  0.00     0.141 C 
BRANCH  11  12
HETATM   12  N   UNK N   1      25.732  15.490   4.007  0.00  0.00    -0.372 N 
ATOM     13  HN  UNK N   1      26.112  15.899   3.153  1.00  0.00     0.161 HD
BRANCH  12  14
HETATM   14  C   UNK N   1      25.030  14.238   3.914  0.00  0.00     0.129 C 
BRANCH  14  15
HETATM   15  C   UNK N   1      24.806  13.943   2.438  0.00  0.00     0.103 C 
BRANCH  15  16
HETATM   16  C   UNK N   1      23.444  14.344   1.960  0.00  0.00     0.112 C 
BRANCH  16  17
HETATM   17  N   UNK N   1      23.028  13.897   0.824  0.00  0.00    -0.374 N 
ATOM     18  HN  UNK N   1      23.114  14.505   0.010  1.00  0.00     0.161 HD
BRANCH  17  19
HETATM   19  C   UNK N   1      22.447  12.586   0.633  0.00  0.00     0.131 C 
BRANCH  19  20
HETATM   20  C   UNK N   1      20.921  12.588   0.595  0.00  0.00     0.094 C 
BRANCH  20  21
HETATM   21  S   UNK N   1      20.176  11.844   2.093  0.00  0.00    -0.160 SA
BRANCH  21  22
HETATM   22  C   UNK N   1      19.409  13.386   2.694  0.00  0.00     0.152 C 
BRANCH  22  23
HETATM   23  C   UNK N   1      19.284  13.340   4.188  0.00  0.00     0.136 C 
HETATM   24  O   UNK N   1      18.194  13.507   4.710  0.00  0.00    -0.297 OA
BRANCH  23  25
HETATM   25  C   UNK N   1      20.500  13.189   5.053  0.00  0.00     0.079 C 
BRANCH  25  26
HETATM   26  C   UNK N   1      20.450  11.986   5.986  0.00  0.00     0.007 C 
BRANCH  26  27
HETATM   27  C   UNK N   1      21.487  10.921   5.657  0.00  0.00     0.000 C 
BRANCH  27  28
HETATM   28  C   UNK N   1      22.698  11.548   4.976  0.00  0.00     0.000 C 
BRANCH  28  29
HETATM   29  C   UNK N   1      24.017  10.993   5.503  0.00  0.00     0.000 C 
BRANCH  29  30
HETATM   30  C   UNK N   1      24.407   9.723   4.762  0.00  0.00     0.000 C 
BRANCH  30  31
HETATM   31  C   UNK N   1      25.436  10.001   3.687  0.00  0.00     0.000 C 
BRANCH  31  32
HETATM   32  C   UNK N   1      26.581  10.810   4.271  0.00  0.00     0.000 C 
BRANCH  32  33
HETATM   33  C   UNK N   1      27.720  10.907   3.269  0.00  0.00     0.000 C 
BRANCH  33  34
HETATM   34  C   UNK N   1      28.122  12.358   3.054  0.00  0.00     0.000 C 
BRANCH  34  35
HETATM   35  C   UNK N   1      28.535  12.597   1.611  0.00  0.00    -0.000 C 
BRANCH  35  36
HETATM   36  C   UNK N   1      28.343  11.335   0.793  0.00  0.00    -0.005 C 
HETATM   37  C   UNK N   1      29.558  11.086  -0.078  0.00  0.00     0.005 C 
ENDBRANCH  35  36
ENDBRANCH  34  35
ENDBRANCH  33  34
ENDBRANCH  32  33
ENDBRANCH  31  32
ENDBRANCH  30  31
ENDBRANCH  29  30
ENDBRANCH  28  29
ENDBRANCH  27  28
ENDBRANCH  26  27
ENDBRANCH  25  26
ENDBRANCH  23  25
ENDBRANCH  22  23
ENDBRANCH  21  22
ENDBRANCH  20  21
ENDBRANCH  19  20
ENDBRANCH  17  19
ENDBRANCH  16  17
BRANCH  16  38
HETATM   38  O   UNK N   1      22.658  15.126   2.729  0.00  0.00    -0.350 OA
HETATM   39  H   UNK N   1      22.901  15.527   3.540  0.00  0.00     0.219 HD
ENDBRANCH  16  38
ENDBRANCH  15  16
ENDBRANCH  14  15
ENDBRANCH  12  14
ENDBRANCH  11  12
BRANCH  11  40
HETATM   40  O   UNK N   1      24.956  16.960   5.584  0.00  0.00    -0.348 OA
HETATM   41  H   UNK N   1      24.398  16.735   6.303  0.00  0.00     0.219 HD
ENDBRANCH  11  40
ENDBRANCH  10  11
BRANCH  10  42
HETATM   42  O   UNK N   1      27.682  14.648   5.670  0.00  0.00    -0.387 OA
HETATM   43  H   UNK N   1      27.243  13.786   5.746  0.00  0.00     0.210 HD
ENDBRANCH  10  42
ENDBRANCH   7  10
ENDBRANCH   6   7
ENDBRANCH   5   6
ENDBRANCH   2   5
BRANCH   2  44
HETATM   44  O   UNK N   1      25.339  20.674   4.714  0.00  0.00    -0.195 OA
BRANCH  44  45
HETATM   45  P   UNK N   1      25.511  19.726   3.246  0.00  0.00     0.401 P 
HETATM   46  O   UNK N   1      24.682  20.674   2.331  0.00  0.00    -0.631 OA
BRANCH  45  47
HETATM   47  O   UNK N   1      26.717  20.976   3.353  0.00  0.00    -0.307 OA
HETATM   48  H   UNK N   1      27.187  21.823   3.392  0.00  0.00     0.222 HD
ENDBRANCH  45  47
BRANCH  45  49
HETATM   49  O   UNK N   1      24.139  19.325   4.259  0.00  0.00    -0.294 OA
BRANCH  49  50
HETATM   50  C   UNK N   1      22.967  19.362   3.502  0.00  0.00     0.215 C 
BRANCH  50  51
HETATM   51  C   UNK N   1      21.768  18.765   4.254  0.00  0.00     0.180 C 
HETATM   52  C   UNK N   1      20.652  17.953   3.521  0.00  0.00     0.197 C 
HETATM   53  C   UNK N   1      20.304  16.896   4.574  0.00  0.00     0.199 C 
HETATM   54  C   UNK N   1      20.791  17.602   5.820  0.00  0.00     0.262 C 
HETATM   55  O   UNK N   1      22.075  18.074   5.451  0.00  0.00    -0.353 OA
BRANCH  52  56
HETATM   56  O   UNK N   1      21.057  17.293   2.322  0.00  0.00    -0.286 OA
BRANCH  56  57
HETATM   57  P   UNK N   1      19.833  17.154   1.024  0.00  0.00     0.391 P 
HETATM   58  O   UNK N   1      20.809  16.064   0.500  0.00  0.00    -0.632 OA
BRANCH  57  59
HETATM   59  O   UNK N   1      20.360  17.648  -0.555  0.00  0.00    -0.307 OA
HETATM   60  H   UNK N   1      20.484  18.420  -1.129  0.00  0.00     0.222 HD
ENDBRANCH  57  59
BRANCH  57  61
HETATM   61  O   UNK N   1      20.258  18.835   0.902  0.00  0.00    -0.307 OA
HETATM   62  H   UNK N   1      20.468  19.237   0.045  0.00  0.00     0.222 HD
ENDBRANCH  57  61
ENDBRANCH  56  57
ENDBRANCH  52  56
BRANCH  53  63
HETATM   63  O   UNK N   1      18.938  16.612   4.583  0.00  0.00    -0.388 OA
HETATM   64  H   UNK N   1      18.302  17.244   4.954  0.00  0.00     0.210 HD
ENDBRANCH  53  63
BRANCH  54  65
HETATM   65  N   UNK N   1      20.780  16.876   7.092  0.00  0.00    -0.297 N 
HETATM   66  C   UNK N   1      19.755  16.851   7.986  0.00  0.00     0.188 A 
HETATM   67  N   UNK N   1      19.896  15.826   8.875  0.00  0.00    -0.346 N 
HETATM   68  C   UNK N   1      21.031  15.207   8.495  0.00  0.00     0.122 A 
ATOM     69  HN  UNK N   1      19.282  15.582   9.652  1.00  0.00     0.167 HD
HETATM   70  C   UNK N   1      21.609  14.037   8.963  0.00  0.00     0.131 A 
HETATM   71  C   UNK N   1      21.570  15.852   7.444  0.00  0.00     0.142 A 
HETATM   72  N   UNK N   1      22.754  13.600   8.358  0.00  0.00    -0.337 N 
HETATM   73  C   UNK N   1      23.306  14.292   7.309  0.00  0.00     0.183 A 
ATOM     74  HN  UNK N   1      23.206  12.749   8.691  1.00  0.00     0.168 HD
HETATM   75  N   UNK N   1      22.693  15.414   6.825  0.00  0.00    -0.336 N 
ATOM     76  HN  UNK N   1      23.073  15.909   6.018  1.00  0.00     0.168 HD
BRANCH  70  77
HETATM   77  N   UNK N   1      21.007  13.279   9.987  0.00  0.00    -0.383 N 
HETATM   78  H   UNK N   1      21.499  12.546  10.419  0.00  0.00     0.157 HD
HETATM   79  H   UNK N   1      20.087  13.486  10.270  0.00  0.00     0.157 HD
ENDBRANCH  70  77
ENDBRANCH  54  65
ENDBRANCH  50  51
ENDBRANCH  49  50
ENDBRANCH  45  49
ENDBRANCH  44  45
ENDBRANCH   2  44
TORSDOF 44
ENDMDL
MODEL 5
REMARK VINA RESULT:      -5.6      4.865     11.561
REMARK WARNING: 32 MAX_TORS EXCEEDED!!!
REMARK  44 active torsions:
REMARK  status: ('A' for Active; 'I' for Inactive)
REMARK    1  A    between atoms: C_5  and  C_4 
REMARK    2  A    between atoms: C_6  and  C_5 
REMARK    3  A    between atoms: C_7  and  C_6 
REMARK    4  A    between atoms: C_8  and  C_7 
REMARK    5  A    between atoms: C_9  and  C_8 
REMARK    6  A    between atoms: C_10  and  C_9 
REMARK    7  A    between atoms: C_11  and  C_10 
REMARK    8  A    between atoms: C_12  and  C_11 
REMARK    9  A    between atoms: C_13  and  C_12 
REMARK   10  A    between atoms: C_14  and  C_13 
REMARK   11  A    between atoms: C_15  and  C_14 
REMARK   12  A    between atoms: C_25  and  C_15 
REMARK   13  A    between atoms: C_17  and  C_16 
REMARK   14  A    between atoms: C_27  and  C_16 
REMARK   15  A    between atoms: N_40  and  C_17 
REMARK   16  A    between atoms: C_19  and  C_18 
REMARK   17  A    between atoms: N_38  and  C_18 
REMARK   18  A    between atoms: S_69  and  C_19 
REMARK   19  A    between atoms: C_26  and  C_20 
REMARK   20  A    between atoms: O_61  and  C_20 
REMARK   21  A    between atoms: C_25  and  C_21 
REMARK   22  A    between atoms: S_69  and  C_21 
REMARK   23  A    between atoms: C_36  and  C_22 
REMARK   24  A    between atoms: O_62  and  C_22 
REMARK   25  A    between atoms: N_38  and  C_27 
REMARK   26  A    between atoms: O_50  and  C_27 
REMARK   27  A    between atoms: C_29  and  O_51 
REMARK   28  A    between atoms: C_30  and  O_64 
REMARK   29  A    between atoms: C_34  and  C_31 
REMARK   30  A    between atoms: C_36  and  C_31 
REMARK   31  A    between atoms: C_31  and  O_52 
REMARK   32  A    between atoms: N_37  and  C_32 
REMARK   33  A    between atoms: N_40  and  C_34 
REMARK   34  A    between atoms: O_53  and  C_34 
REMARK   35  A    between atoms: C_35  and  N_48 
REMARK   36  A    between atoms: P_66  and  O_54 
REMARK   37  A    between atoms: P_66  and  O_55 
REMARK   38  A    between atoms: P_67  and  O_57 
REMARK   39  A    between atoms: P_68  and  O_59 
REMARK   40  A    between atoms: P_67  and  O_61 
REMARK   41  A    between atoms: P_68  and  O_62 
REMARK   42  A    between atoms: P_66  and  O_64 
REMARK   43  A    between atoms: P_67  and  O_65 
REMARK   44  A    between atoms: P_68  and  O_65 
ROOT
HETATM    1  O   UNK N   1      21.825  15.335   8.969  0.00  0.00    -0.631 OA
HETATM    2  P   UNK N   1      21.086  14.135   8.319  0.00  0.00     0.401 P 
ENDROOT
BRANCH   2   3
HETATM    3  O   UNK N   1      20.226  13.359   9.616  0.00  0.00    -0.307 OA
HETATM    4  H   UNK N   1      19.849  12.500   9.863  0.00  0.00     0.222 HD
ENDBRANCH   2   3
BRANCH   2   5
HETATM    5  O   UNK N   1      22.285  13.047   7.650  0.00  0.00    -0.296 OA
BRANCH   5   6
HETATM    6  C   UNK N   1      22.623  13.659   6.436  0.00  0.00     0.192 C 
BRANCH   6   7
HETATM    7  C   UNK N   1      24.107  14.003   6.249  0.00  0.00     0.008 C 
HETATM    8  C   UNK N   1      24.826  13.826   7.576  0.00  0.00     0.020 C 
HETATM    9  C   UNK N   1      24.752  13.070   5.232  0.00  0.00     0.020 C 
BRANCH   7  10
HETATM   10  C   UNK N   1      24.230  15.481   5.772  0.00  0.00     0.202 C 
BRANCH  10  11
HETATM   11  C   UNK N   1      24.042  15.610   4.275  0.00  0.00     0.141 C 
BRANCH  11  12
HETATM   12  N   UNK N   1      24.947  16.193   3.569  0.00  0.00    -0.372 N 
ATOM     13  HN  UNK N   1      25.276  15.729   2.722  1.00  0.00     0.161 HD
BRANCH  12  14
HETATM   14  C   UNK N   1      25.516  17.467   3.918  0.00  0.00     0.129 C 
BRANCH  14  15
HETATM   15  C   UNK N   1      24.409  18.507   3.828  0.00  0.00     0.103 C 
BRANCH  15  16
HETATM   16  C   UNK N   1      24.917  19.914   3.919  0.00  0.00     0.112 C 
BRANCH  16  17
HETATM   17  N   UNK N   1      26.096  20.119   4.400  0.00  0.00    -0.374 N 
ATOM     18  HN  UNK N   1      26.898  19.891   3.813  1.00  0.00     0.161 HD
BRANCH  17  19
HETATM   19  C   UNK N   1      26.351  20.651   5.721  0.00  0.00     0.131 C 
BRANCH  19  20
HETATM   20  C   UNK N   1      27.454  19.917   6.479  0.00  0.00     0.094 C 
BRANCH  20  21
HETATM   21  S   UNK N   1      28.382  18.750   5.417  0.00  0.00    -0.160 SA
BRANCH  21  22
HETATM   22  C   UNK N   1      28.258  17.333   6.560  0.00  0.00     0.152 C 
BRANCH  22  23
HETATM   23  C   UNK N   1      28.617  16.068   5.839  0.00  0.00     0.136 C 
HETATM   24  O   UNK N   1      27.755  15.236   5.609  0.00  0.00    -0.297 OA
BRANCH  23  25
HETATM   25  C   UNK N   1      30.043  15.769   5.482  0.00  0.00     0.079 C 
BRANCH  25  26
HETATM   26  C   UNK N   1      30.290  15.624   3.987  0.00  0.00     0.007 C 
BRANCH  26  27
HETATM   27  C   UNK N   1      31.190  16.709   3.413  0.00  0.00     0.000 C 
BRANCH  27  28
HETATM   28  C   UNK N   1      31.777  17.562   4.532  0.00  0.00     0.000 C 
BRANCH  28  29
HETATM   29  C   UNK N   1      33.301  17.585   4.511  0.00  0.00     0.000 C 
BRANCH  29  30
HETATM   30  C   UNK N   1      33.874  16.689   5.599  0.00  0.00     0.000 C 
BRANCH  30  31
HETATM   31  C   UNK N   1      34.253  15.328   5.054  0.00  0.00     0.000 C 
BRANCH  31  32
HETATM   32  C   UNK N   1      33.464  14.250   5.776  0.00  0.00     0.000 C 
BRANCH  32  33
HETATM   33  C   UNK N   1      33.713  14.331   7.273  0.00  0.00     0.000 C 
BRANCH  33  34
HETATM   34  C   UNK N   1      32.399  14.468   8.028  0.00  0.00     0.000 C 
BRANCH  34  35
HETATM   35  C   UNK N   1      32.452  15.637   8.997  0.00  0.00    -0.000 C 
BRANCH  35  36
HETATM   36  C   UNK N   1      31.255  16.545   8.792  0.00  0.00    -0.005 C 
HETATM   37  C   UNK N   1      31.708  17.902   8.292  0.00  0.00     0.005 C 
ENDBRANCH  35  36
ENDBRANCH  34  35
ENDBRANCH  33  34
ENDBRANCH  32  33
ENDBRANCH  31  32
ENDBRANCH  30  31
ENDBRANCH  29  30
ENDBRANCH  28  29
ENDBRANCH  27  28
ENDBRANCH  26  27
ENDBRANCH  25  26
ENDBRANCH  23  25
ENDBRANCH  22  23
ENDBRANCH  21  22
ENDBRANCH  20  21
ENDBRANCH  19  20
ENDBRANCH  17  19
ENDBRANCH  16  17
BRANCH  16  38
HETATM   38  O   UNK N   1      24.163  20.938   3.467  0.00  0.00    -0.350 OA
HETATM   39  H   UNK N   1      24.423  21.836   3.416  0.00  0.00     0.219 HD
ENDBRANCH  16  38
ENDBRANCH  15  16
ENDBRANCH  14  15
ENDBRANCH  12  14
ENDBRANCH  11  12
BRANCH  11  40
HETATM   40  O   UNK N   1      22.914  15.143   3.698  0.00  0.00    -0.348 OA
HETATM   41  H   UNK N   1      22.295  15.709   3.281  0.00  0.00     0.219 HD
ENDBRANCH  11  40
ENDBRANCH  10  11
BRANCH  10  42
HETATM   42  O   UNK N   1      23.283  16.280   6.422  0.00  0.00    -0.387 OA
HETATM   43  H   UNK N   1      22.594  16.861   6.065  0.00  0.00     0.210 HD
ENDBRANCH  10  42
ENDBRANCH   7  10
ENDBRANCH   6   7
ENDBRANCH   5   6
ENDBRANCH   2   5
BRANCH   2  44
HETATM   44  O   UNK N   1      19.858  14.732   7.191  0.00  0.00    -0.195 OA
BRANCH  44  45
HETATM   45  P   UNK N   1      19.560  16.445   7.438  0.00  0.00     0.401 P 
HETATM   46  O   UNK N   1      18.107  16.449   6.879  0.00  0.00    -0.631 OA
BRANCH  45  47
HETATM   47  O   UNK N   1      18.984  15.489   8.773  0.00  0.00    -0.307 OA
HETATM   48  H   UNK N   1      18.554  15.176   9.584  0.00  0.00     0.222 HD
ENDBRANCH  45  47
BRANCH  45  49
HETATM   49  O   UNK N   1      20.268  16.007   5.897  0.00  0.00    -0.294 OA
BRANCH  49  50
HETATM   50  C   UNK N   1      20.307  17.124   5.061  0.00  0.00     0.215 C 
BRANCH  50  51
HETATM   51  C   UNK N   1      19.863  16.796   3.628  0.00  0.00     0.180 C 
HETATM   52  C   UNK N   1      20.010  17.824   2.459  0.00  0.00     0.197 C 
HETATM   53  C   UNK N   1      20.343  16.901   1.284  0.00  0.00     0.199 C 
HETATM   54  C   UNK N   1      19.774  15.600   1.806  0.00  0.00     0.262 C 
HETATM   55  O   UNK N   1      20.267  15.533   3.133  0.00  0.00    -0.353 OA
BRANCH  52  56
HETATM   56  O   UNK N   1      21.060  18.779   2.609  0.00  0.00    -0.286 OA
BRANCH  56  57
HETATM   57  P   UNK N   1      20.699  20.459   2.109  0.00  0.00     0.391 P 
HETATM   58  O   UNK N   1      22.149  20.388   1.552  0.00  0.00    -0.632 OA
BRANCH  57  59
HETATM   59  O   UNK N   1      21.623  21.691   2.913  0.00  0.00    -0.307 OA
HETATM   60  H   UNK N   1      21.617  22.625   3.170  0.00  0.00     0.222 HD
ENDBRANCH  57  59
BRANCH  57  61
HETATM   61  O   UNK N   1      20.430  20.556   3.823  0.00  0.00    -0.307 OA
HETATM   62  H   UNK N   1      19.573  20.837   4.181  0.00  0.00     0.222 HD
ENDBRANCH  57  61
ENDBRANCH  56  57
ENDBRANCH  52  56
BRANCH  53  63
HETATM   63  O   UNK N   1      19.749  17.342   0.101  0.00  0.00    -0.388 OA
HETATM   64  H   UNK N   1      18.789  17.286  -0.024  0.00  0.00     0.210 HD
ENDBRANCH  53  63
BRANCH  54  65
HETATM   65  N   UNK N   1      19.997  14.373   1.038  0.00  0.00    -0.297 N 
HETATM   66  C   UNK N   1      21.159  13.670   0.980  0.00  0.00     0.188 A 
HETATM   67  N   UNK N   1      20.957  12.413   0.489  0.00  0.00    -0.346 N 
HETATM   68  C   UNK N   1      19.630  12.354   0.260  0.00  0.00     0.122 A 
ATOM     69  HN  UNK N   1      21.651  11.683   0.331  1.00  0.00     0.167 HD
HETATM   70  C   UNK N   1      18.840  11.285  -0.136  0.00  0.00     0.131 A 
HETATM   71  C   UNK N   1      19.062  13.535   0.566  0.00  0.00     0.142 A 
HETATM   72  N   UNK N   1      17.493  11.490  -0.248  0.00  0.00    -0.337 N 
HETATM   73  C   UNK N   1      16.939  12.713   0.036  0.00  0.00     0.183 A 
ATOM     74  HN  UNK N   1      16.891  10.724  -0.549  1.00  0.00     0.168 HD
HETATM   75  N   UNK N   1      17.726  13.741   0.477  0.00  0.00    -0.336 N 
ATOM     76  HN  UNK N   1      17.316  14.640   0.732  1.00  0.00     0.168 HD
BRANCH  70  77
HETATM   77  N   UNK N   1      19.390  10.007  -0.353  0.00  0.00    -0.383 N 
HETATM   78  H   UNK N   1      20.220   9.903  -0.871  0.00  0.00     0.157 HD
HETATM   79  H   UNK N   1      18.940   9.213   0.017  0.00  0.00     0.157 HD
ENDBRANCH  70  77
ENDBRANCH  54  65
ENDBRANCH  50  51
ENDBRANCH  49  50
ENDBRANCH  45  49
ENDBRANCH  44  45
ENDBRANCH   2  44
TORSDOF 44
ENDMDL
MODEL 6
REMARK VINA RESULT:      -5.6      2.339      4.891
REMARK WARNING: 32 MAX_TORS EXCEEDED!!!
REMARK  44 active torsions:
REMARK  status: ('A' for Active; 'I' for Inactive)
REMARK    1  A    between atoms: C_5  and  C_4 
REMARK    2  A    between atoms: C_6  and  C_5 
REMARK    3  A    between atoms: C_7  and  C_6 
REMARK    4  A    between atoms: C_8  and  C_7 
REMARK    5  A    between atoms: C_9  and  C_8 
REMARK    6  A    between atoms: C_10  and  C_9 
REMARK    7  A    between atoms: C_11  and  C_10 
REMARK    8  A    between atoms: C_12  and  C_11 
REMARK    9  A    between atoms: C_13  and  C_12 
REMARK   10  A    between atoms: C_14  and  C_13 
REMARK   11  A    between atoms: C_15  and  C_14 
REMARK   12  A    between atoms: C_25  and  C_15 
REMARK   13  A    between atoms: C_17  and  C_16 
REMARK   14  A    between atoms: C_27  and  C_16 
REMARK   15  A    between atoms: N_40  and  C_17 
REMARK   16  A    between atoms: C_19  and  C_18 
REMARK   17  A    between atoms: N_38  and  C_18 
REMARK   18  A    between atoms: S_69  and  C_19 
REMARK   19  A    between atoms: C_26  and  C_20 
REMARK   20  A    between atoms: O_61  and  C_20 
REMARK   21  A    between atoms: C_25  and  C_21 
REMARK   22  A    between atoms: S_69  and  C_21 
REMARK   23  A    between atoms: C_36  and  C_22 
REMARK   24  A    between atoms: O_62  and  C_22 
REMARK   25  A    between atoms: N_38  and  C_27 
REMARK   26  A    between atoms: O_50  and  C_27 
REMARK   27  A    between atoms: C_29  and  O_51 
REMARK   28  A    between atoms: C_30  and  O_64 
REMARK   29  A    between atoms: C_34  and  C_31 
REMARK   30  A    between atoms: C_36  and  C_31 
REMARK   31  A    between atoms: C_31  and  O_52 
REMARK   32  A    between atoms: N_37  and  C_32 
REMARK   33  A    between atoms: N_40  and  C_34 
REMARK   34  A    between atoms: O_53  and  C_34 
REMARK   35  A    between atoms: C_35  and  N_48 
REMARK   36  A    between atoms: P_66  and  O_54 
REMARK   37  A    between atoms: P_66  and  O_55 
REMARK   38  A    between atoms: P_67  and  O_57 
REMARK   39  A    between atoms: P_68  and  O_59 
REMARK   40  A    between atoms: P_67  and  O_61 
REMARK   41  A    between atoms: P_68  and  O_62 
REMARK   42  A    between atoms: P_66  and  O_64 
REMARK   43  A    between atoms: P_67  and  O_65 
REMARK   44  A    between atoms: P_68  and  O_65 
ROOT
HETATM    1  O   UNK N   1      28.920  16.627   3.662  0.00  0.00    -0.631 OA
HETATM    2  P   UNK N   1      30.066  16.150   4.593  0.00  0.00     0.401 P 
ENDROOT
BRANCH   2   3
HETATM    3  O   UNK N   1      29.438  14.765   5.435  0.00  0.00    -0.307 OA
HETATM    4  H   UNK N   1      29.390  14.381   6.324  0.00  0.00     0.222 HD
ENDBRANCH   2   3
BRANCH   2   5
HETATM    5  O   UNK N   1      30.426  17.436   5.726  0.00  0.00    -0.296 OA
BRANCH   5   6
HETATM    6  C   UNK N   1      29.993  16.909   6.950  0.00  0.00     0.192 C 
BRANCH   6   7
HETATM    7  C   UNK N   1      30.633  17.516   8.206  0.00  0.00     0.008 C 
HETATM    8  C   UNK N   1      30.706  16.450   9.288  0.00  0.00     0.020 C 
HETATM    9  C   UNK N   1      32.050  17.993   7.913  0.00  0.00     0.020 C 
BRANCH   7  10
HETATM   10  C   UNK N   1      29.758  18.709   8.696  0.00  0.00     0.202 C 
BRANCH  10  11
HETATM   11  C   UNK N   1      28.293  18.502   8.379  0.00  0.00     0.141 C 
BRANCH  11  12
HETATM   12  N   UNK N   1      27.818  18.925   7.259  0.00  0.00    -0.372 N 
ATOM     13  HN  UNK N   1      27.619  18.242   6.528  1.00  0.00     0.161 HD
BRANCH  12  14
HETATM   14  C   UNK N   1      27.557  20.313   6.991  0.00  0.00     0.129 C 
BRANCH  14  15
HETATM   15  C   UNK N   1      26.893  20.403   5.625  0.00  0.00     0.103 C 
BRANCH  15  16
HETATM   16  C   UNK N   1      27.585  19.580   4.581  0.00  0.00     0.112 C 
BRANCH  16  17
HETATM   17  N   UNK N   1      26.871  18.875   3.770  0.00  0.00    -0.374 N 
ATOM     18  HN  UNK N   1      27.321  18.100   3.286  1.00  0.00     0.161 HD
BRANCH  17  19
HETATM   19  C   UNK N   1      25.469  19.119   3.506  0.00  0.00     0.131 C 
BRANCH  19  20
HETATM   20  C   UNK N   1      24.550  17.990   3.965  0.00  0.00     0.094 C 
BRANCH  20  21
HETATM   21  S   UNK N   1      22.939  18.602   4.587  0.00  0.00    -0.160 SA
BRANCH  21  22
HETATM   22  C   UNK N   1      22.680  19.813   3.248  0.00  0.00     0.152 C 
BRANCH  22  23
HETATM   23  C   UNK N   1      21.214  19.947   2.964  0.00  0.00     0.136 C 
HETATM   24  O   UNK N   1      20.577  20.850   3.481  0.00  0.00    -0.297 OA
BRANCH  23  25
HETATM   25  C   UNK N   1      20.500  18.927   2.129  0.00  0.00     0.079 C 
BRANCH  25  26
HETATM   26  C   UNK N   1      19.404  18.175   2.872  0.00  0.00     0.007 C 
BRANCH  26  27
HETATM   27  C   UNK N   1      19.907  16.940   3.606  0.00  0.00     0.000 C 
BRANCH  27  28
HETATM   28  C   UNK N   1      20.760  16.080   2.680  0.00  0.00     0.000 C 
BRANCH  28  29
HETATM   29  C   UNK N   1      21.329  14.852   3.383  0.00  0.00     0.000 C 
BRANCH  29  30
HETATM   30  C   UNK N   1      21.550  15.126   4.863  0.00  0.00     0.000 C 
BRANCH  30  31
HETATM   31  C   UNK N   1      22.088  13.906   5.579  0.00  0.00     0.000 C 
BRANCH  31  32
HETATM   32  C   UNK N   1      22.648  14.312   6.931  0.00  0.00     0.000 C 
BRANCH  32  33
HETATM   33  C   UNK N   1      22.736  13.102   7.848  0.00  0.00     0.000 C 
BRANCH  33  34
HETATM   34  C   UNK N   1      21.454  12.943   8.650  0.00  0.00     0.000 C 
BRANCH  34  35
HETATM   35  C   UNK N   1      21.734  13.029  10.141  0.00  0.00    -0.000 C 
BRANCH  35  36
HETATM   36  C   UNK N   1      22.406  11.760  10.625  0.00  0.00    -0.005 C 
HETATM   37  C   UNK N   1      23.105  12.009  11.946  0.00  0.00     0.005 C 
ENDBRANCH  35  36
ENDBRANCH  34  35
ENDBRANCH  33  34
ENDBRANCH  32  33
ENDBRANCH  31  32
ENDBRANCH  30  31
ENDBRANCH  29  30
ENDBRANCH  28  29
ENDBRANCH  27  28
ENDBRANCH  26  27
ENDBRANCH  25  26
ENDBRANCH  23  25
ENDBRANCH  22  23
ENDBRANCH  21  22
ENDBRANCH  20  21
ENDBRANCH  19  20
ENDBRANCH  17  19
ENDBRANCH  16  17
BRANCH  16  38
HETATM   38  O   UNK N   1      28.930  19.613   4.472  0.00  0.00    -0.350 OA
HETATM   39  H   UNK N   1      29.439  19.240   3.779  0.00  0.00     0.219 HD
ENDBRANCH  16  38
ENDBRANCH  15  16
ENDBRANCH  14  15
ENDBRANCH  12  14
ENDBRANCH  11  12
BRANCH  11  40
HETATM   40  O   UNK N   1      27.488  17.908   9.286  0.00  0.00    -0.348 OA
HETATM   41  H   UNK N   1      26.927  17.191   9.063  0.00  0.00     0.219 HD
ENDBRANCH  11  40
ENDBRANCH  10  11
BRANCH  10  42
HETATM   42  O   UNK N   1      29.908  18.885  10.076  0.00  0.00    -0.387 OA
HETATM   43  H   UNK N   1      29.692  18.296  10.815  0.00  0.00     0.210 HD
ENDBRANCH  10  42
ENDBRANCH   7  10
ENDBRANCH   6   7
ENDBRANCH   5   6
ENDBRANCH   2   5
BRANCH   2  44
HETATM   44  O   UNK N   1      31.425  15.568   3.615  0.00  0.00    -0.195 OA
BRANCH  44  45
HETATM   45  P   UNK N   1      32.740  16.732   3.616  0.00  0.00     0.401 P 
HETATM   46  O   UNK N   1      33.397  16.248   2.290  0.00  0.00    -0.631 OA
BRANCH  45  47
HETATM   47  O   UNK N   1      31.385  17.288   2.677  0.00  0.00    -0.307 OA
HETATM   48  H   UNK N   1      30.694  17.822   2.255  0.00  0.00     0.222 HD
ENDBRANCH  45  47
BRANCH  45  49
HETATM   49  O   UNK N   1      33.054  15.223   4.448  0.00  0.00    -0.294 OA
BRANCH  49  50
HETATM   50  C   UNK N   1      34.104  15.392   5.353  0.00  0.00     0.215 C 
BRANCH  50  51
HETATM   51  C   UNK N   1      33.682  15.090   6.799  0.00  0.00     0.180 C 
HETATM   52  C   UNK N   1      32.637  13.979   7.142  0.00  0.00     0.197 C 
HETATM   53  C   UNK N   1      33.192  13.439   8.463  0.00  0.00     0.199 C 
HETATM   54  C   UNK N   1      34.016  14.628   8.904  0.00  0.00     0.262 C 
HETATM   55  O   UNK N   1      34.737  14.981   7.737  0.00  0.00    -0.353 OA
BRANCH  52  56
HETATM   56  O   UNK N   1      32.549  12.906   6.205  0.00  0.00    -0.286 OA
BRANCH  56  57
HETATM   57  P   UNK N   1      33.665  11.529   6.449  0.00  0.00     0.391 P 
HETATM   58  O   UNK N   1      34.239  12.016   5.088  0.00  0.00    -0.632 OA
BRANCH  57  59
HETATM   59  O   UNK N   1      33.496  10.222   5.318  0.00  0.00    -0.307 OA
HETATM   60  H   UNK N   1      33.298  10.014   4.392  0.00  0.00     0.222 HD
ENDBRANCH  57  59
BRANCH  57  61
HETATM   61  O   UNK N   1      32.127  10.724   6.507  0.00  0.00    -0.307 OA
HETATM   62  H   UNK N   1      31.872  10.183   7.270  0.00  0.00     0.222 HD
ENDBRANCH  57  61
ENDBRANCH  56  57
ENDBRANCH  52  56
BRANCH  53  63
HETATM   63  O   UNK N   1      32.168  13.101   9.349  0.00  0.00    -0.388 OA
HETATM   64  H   UNK N   1      31.962  13.668  10.109  0.00  0.00     0.210 HD
ENDBRANCH  53  63
BRANCH  54  65
HETATM   65  N   UNK N   1      34.860  14.500  10.095  0.00  0.00    -0.297 N 
HETATM   66  C   UNK N   1      34.478  14.759  11.374  0.00  0.00     0.188 A 
HETATM   67  N   UNK N   1      35.348  14.214  12.272  0.00  0.00    -0.346 N 
HETATM   68  C   UNK N   1      36.271  13.595  11.511  0.00  0.00     0.122 A 
ATOM     69  HN  UNK N   1      35.309  14.263  13.290  1.00  0.00     0.167 HD
HETATM   70  C   UNK N   1      37.332  12.781  11.880  0.00  0.00     0.131 A 
HETATM   71  C   UNK N   1      35.990  13.788  10.209  0.00  0.00     0.142 A 
HETATM   72  N   UNK N   1      38.097  12.234  10.887  0.00  0.00    -0.337 N 
HETATM   73  C   UNK N   1      37.812  12.472   9.566  0.00  0.00     0.183 A 
ATOM     74  HN  UNK N   1      38.890  11.642  11.132  1.00  0.00     0.168 HD
HETATM   75  N   UNK N   1      36.730  13.233   9.219  0.00  0.00    -0.336 N 
ATOM     76  HN  UNK N   1      36.487  13.378   8.239  1.00  0.00     0.168 HD
BRANCH  70  77
HETATM   77  N   UNK N   1      37.582  12.469  13.230  0.00  0.00    -0.383 N 
HETATM   78  H   UNK N   1      38.084  13.093  13.802  0.00  0.00     0.157 HD
HETATM   79  H   UNK N   1      37.252  11.620  13.604  0.00  0.00     0.157 HD
ENDBRANCH  70  77
ENDBRANCH  54  65
ENDBRANCH  50  51
ENDBRANCH  49  50
ENDBRANCH  45  49
ENDBRANCH  44  45
ENDBRANCH   2  44
TORSDOF 44
ENDMDL
MODEL 7
REMARK VINA RESULT:      -5.6      7.382     13.772
REMARK WARNING: 32 MAX_TORS EXCEEDED!!!
REMARK  44 active torsions:
REMARK  status: ('A' for Active; 'I' for Inactive)
REMARK    1  A    between atoms: C_5  and  C_4 
REMARK    2  A    between atoms: C_6  and  C_5 
REMARK    3  A    between atoms: C_7  and  C_6 
REMARK    4  A    between atoms: C_8  and  C_7 
REMARK    5  A    between atoms: C_9  and  C_8 
REMARK    6  A    between atoms: C_10  and  C_9 
REMARK    7  A    between atoms: C_11  and  C_10 
REMARK    8  A    between atoms: C_12  and  C_11 
REMARK    9  A    between atoms: C_13  and  C_12 
REMARK   10  A    between atoms: C_14  and  C_13 
REMARK   11  A    between atoms: C_15  and  C_14 
REMARK   12  A    between atoms: C_25  and  C_15 
REMARK   13  A    between atoms: C_17  and  C_16 
REMARK   14  A    between atoms: C_27  and  C_16 
REMARK   15  A    between atoms: N_40  and  C_17 
REMARK   16  A    between atoms: C_19  and  C_18 
REMARK   17  A    between atoms: N_38  and  C_18 
REMARK   18  A    between atoms: S_69  and  C_19 
REMARK   19  A    between atoms: C_26  and  C_20 
REMARK   20  A    between atoms: O_61  and  C_20 
REMARK   21  A    between atoms: C_25  and  C_21 
REMARK   22  A    between atoms: S_69  and  C_21 
REMARK   23  A    between atoms: C_36  and  C_22 
REMARK   24  A    between atoms: O_62  and  C_22 
REMARK   25  A    between atoms: N_38  and  C_27 
REMARK   26  A    between atoms: O_50  and  C_27 
REMARK   27  A    between atoms: C_29  and  O_51 
REMARK   28  A    between atoms: C_30  and  O_64 
REMARK   29  A    between atoms: C_34  and  C_31 
REMARK   30  A    between atoms: C_36  and  C_31 
REMARK   31  A    between atoms: C_31  and  O_52 
REMARK   32  A    between atoms: N_37  and  C_32 
REMARK   33  A    between atoms: N_40  and  C_34 
REMARK   34  A    between atoms: O_53  and  C_34 
REMARK   35  A    between atoms: C_35  and  N_48 
REMARK   36  A    between atoms: P_66  and  O_54 
REMARK   37  A    between atoms: P_66  and  O_55 
REMARK   38  A    between atoms: P_67  and  O_57 
REMARK   39  A    between atoms: P_68  and  O_59 
REMARK   40  A    between atoms: P_67  and  O_61 
REMARK   41  A    between atoms: P_68  and  O_62 
REMARK   42  A    between atoms: P_66  and  O_64 
REMARK   43  A    between atoms: P_67  and  O_65 
REMARK   44  A    between atoms: P_68  and  O_65 
ROOT
HETATM    1  O   UNK N   1      29.020  18.713   8.405  0.00  0.00    -0.631 OA
HETATM    2  P   UNK N   1      28.527  17.821   7.235  0.00  0.00     0.401 P 
ENDROOT
BRANCH   2   3
HETATM    3  O   UNK N   1      27.234  16.862   7.891  0.00  0.00    -0.307 OA
HETATM    4  H   UNK N   1      26.970  15.937   8.016  0.00  0.00     0.222 HD
ENDBRANCH   2   3
BRANCH   2   5
HETATM    5  O   UNK N   1      29.852  16.790   6.733  0.00  0.00    -0.296 OA
BRANCH   5   6
HETATM    6  C   UNK N   1      30.744  16.876   7.810  0.00  0.00     0.192 C 
BRANCH   6   7
HETATM    7  C   UNK N   1      32.234  16.893   7.447  0.00  0.00     0.008 C 
HETATM    8  C   UNK N   1      32.377  17.172   5.959  0.00  0.00     0.020 C 
HETATM    9  C   UNK N   1      32.963  17.994   8.208  0.00  0.00     0.020 C 
BRANCH   7  10
HETATM   10  C   UNK N   1      32.857  15.506   7.788  0.00  0.00     0.202 C 
BRANCH  10  11
HETATM   11  C   UNK N   1      33.313  15.429   9.229  0.00  0.00     0.141 C 
BRANCH  11  12
HETATM   12  N   UNK N   1      34.569  15.503   9.503  0.00  0.00    -0.372 N 
ATOM     13  HN  UNK N   1      35.221  14.950   8.947  1.00  0.00     0.161 HD
BRANCH  12  14
HETATM   14  C   UNK N   1      35.095  16.329  10.556  0.00  0.00     0.129 C 
BRANCH  14  15
HETATM   15  C   UNK N   1      36.265  15.586  11.184  0.00  0.00     0.103 C 
BRANCH  15  16
HETATM   16  C   UNK N   1      35.835  14.524  12.150  0.00  0.00     0.112 C 
BRANCH  16  17
HETATM   17  N   UNK N   1      36.704  14.043  12.972  0.00  0.00    -0.374 N 
ATOM     18  HN  UNK N   1      37.365  14.690  13.402  1.00  0.00     0.161 HD
BRANCH  17  19
HETATM   19  C   UNK N   1      36.800  12.642  13.322  0.00  0.00     0.131 C 
BRANCH  19  20
HETATM   20  C   UNK N   1      36.846  12.384  14.826  0.00  0.00     0.094 C 
BRANCH  20  21
HETATM   21  S   UNK N   1      36.295  13.829  15.807  0.00  0.00    -0.160 SA
BRANCH  21  22
HETATM   22  C   UNK N   1      35.248  12.875  16.956  0.00  0.00     0.152 C 
BRANCH  22  23
HETATM   23  C   UNK N   1      35.234  13.541  18.299  0.00  0.00     0.136 C 
HETATM   24  O   UNK N   1      35.316  14.757  18.373  0.00  0.00    -0.297 OA
BRANCH  23  25
HETATM   25  C   UNK N   1      35.218  12.726  19.558  0.00  0.00     0.079 C 
BRANCH  25  26
HETATM   26  C   UNK N   1      35.336  11.226  19.326  0.00  0.00     0.007 C 
BRANCH  26  27
HETATM   27  C   UNK N   1      34.730  10.390  20.445  0.00  0.00     0.000 C 
BRANCH  27  28
HETATM   28  C   UNK N   1      34.400   8.988  19.944  0.00  0.00     0.000 C 
BRANCH  28  29
HETATM   29  C   UNK N   1      32.967   8.872  19.437  0.00  0.00     0.000 C 
BRANCH  29  30
HETATM   30  C   UNK N   1      32.007   8.581  20.582  0.00  0.00     0.000 C 
BRANCH  30  31
HETATM   31  C   UNK N   1      30.762   7.871  20.095  0.00  0.00     0.000 C 
BRANCH  31  32
HETATM   32  C   UNK N   1      30.849   6.393  20.434  0.00  0.00     0.000 C 
BRANCH  32  33
HETATM   33  C   UNK N   1      31.563   5.641  19.323  0.00  0.00     0.000 C 
BRANCH  33  34
HETATM   34  C   UNK N   1      32.830   4.984  19.850  0.00  0.00     0.000 C 
BRANCH  34  35
HETATM   35  C   UNK N   1      32.897   5.073  21.365  0.00  0.00    -0.000 C 
BRANCH  35  36
HETATM   36  C   UNK N   1      34.205   5.705  21.799  0.00  0.00    -0.005 C 
HETATM   37  C   UNK N   1      35.266   5.490  20.739  0.00  0.00     0.005 C 
ENDBRANCH  35  36
ENDBRANCH  34  35
ENDBRANCH  33  34
ENDBRANCH  32  33
ENDBRANCH  31  32
ENDBRANCH  30  31
ENDBRANCH  29  30
ENDBRANCH  28  29
ENDBRANCH  27  28
ENDBRANCH  26  27
ENDBRANCH  25  26
ENDBRANCH  23  25
ENDBRANCH  22  23
ENDBRANCH  21  22
ENDBRANCH  20  21
ENDBRANCH  19  20
ENDBRANCH  17  19
ENDBRANCH  16  17
BRANCH  16  38
HETATM   38  O   UNK N   1      34.549  14.114  12.180  0.00  0.00    -0.350 OA
HETATM   39  H   UNK N   1      33.795  14.648  12.024  0.00  0.00     0.219 HD
ENDBRANCH  16  38
ENDBRANCH  15  16
ENDBRANCH  14  15
ENDBRANCH  12  14
ENDBRANCH  11  12
BRANCH  11  40
HETATM   40  O   UNK N   1      32.404  15.251  10.211  0.00  0.00    -0.348 OA
HETATM   41  H   UNK N   1      32.342  15.829  10.946  0.00  0.00     0.219 HD
ENDBRANCH  11  40
ENDBRANCH  10  11
BRANCH  10  42
HETATM   42  O   UNK N   1      31.929  14.487   7.546  0.00  0.00    -0.387 OA
HETATM   43  H   UNK N   1      31.236  14.409   6.872  0.00  0.00     0.210 HD
ENDBRANCH  10  42
ENDBRANCH   7  10
ENDBRANCH   6   7
ENDBRANCH   5   6
ENDBRANCH   2   5
BRANCH   2  44
HETATM   44  O   UNK N   1      27.808  18.836   5.974  0.00  0.00    -0.195 OA
BRANCH  44  45
HETATM   45  P   UNK N   1      27.605  17.933   4.482  0.00  0.00     0.401 P 
HETATM   46  O   UNK N   1      27.107  19.131   3.622  0.00  0.00    -0.631 OA
BRANCH  45  47
HETATM   47  O   UNK N   1      29.160  18.709   4.561  0.00  0.00    -0.307 OA
HETATM   48  H   UNK N   1      30.080  18.979   4.418  0.00  0.00     0.222 HD
ENDBRANCH  45  47
BRANCH  45  49
HETATM   49  O   UNK N   1      26.213  17.975   5.544  0.00  0.00    -0.294 OA
BRANCH  49  50
HETATM   50  C   UNK N   1      25.161  18.647   4.919  0.00  0.00     0.215 C 
BRANCH  50  51
HETATM   51  C   UNK N   1      23.931  17.749   4.723  0.00  0.00     0.180 C 
HETATM   52  C   UNK N   1      22.475  18.317   4.772  0.00  0.00     0.197 C 
HETATM   53  C   UNK N   1      21.778  17.455   3.716  0.00  0.00     0.199 C 
HETATM   54  C   UNK N   1      22.706  16.261   3.701  0.00  0.00     0.262 C 
HETATM   55  O   UNK N   1      23.995  16.846   3.634  0.00  0.00    -0.353 OA
BRANCH  52  56
HETATM   56  O   UNK N   1      22.338  19.691   4.410  0.00  0.00    -0.286 OA
BRANCH  56  57
HETATM   57  P   UNK N   1      21.670  20.034   2.786  0.00  0.00     0.391 P 
HETATM   58  O   UNK N   1      22.912  20.966   2.696  0.00  0.00    -0.632 OA
BRANCH  57  59
HETATM   59  O   UNK N   1      21.087  21.652   2.546  0.00  0.00    -0.307 OA
HETATM   60  H   UNK N   1      20.959  22.507   2.985  0.00  0.00     0.222 HD
ENDBRANCH  57  59
BRANCH  57  61
HETATM   61  O   UNK N   1      20.327  20.471   3.798  0.00  0.00    -0.307 OA
HETATM   62  H   UNK N   1      19.733  21.199   3.556  0.00  0.00     0.222 HD
ENDBRANCH  57  61
ENDBRANCH  56  57
ENDBRANCH  52  56
BRANCH  53  63
HETATM   63  O   UNK N   1      20.468  17.147   4.089  0.00  0.00    -0.388 OA
HETATM   64  H   UNK N   1      19.850  16.755   3.453  0.00  0.00     0.210 HD
ENDBRANCH  53  63
BRANCH  54  65
HETATM   65  N   UNK N   1      22.490  15.211   2.703  0.00  0.00    -0.297 N 
HETATM   66  C   UNK N   1      21.556  15.231   1.714  0.00  0.00     0.188 A 
HETATM   67  N   UNK N   1      21.832  14.307   0.750  0.00  0.00    -0.346 N 
HETATM   68  C   UNK N   1      22.975  13.725   1.163  0.00  0.00     0.122 A 
ATOM     69  HN  UNK N   1      21.296  14.102  -0.093  1.00  0.00     0.167 HD
HETATM   70  C   UNK N   1      23.782  12.793   0.527  0.00  0.00     0.131 A 
HETATM   71  C   UNK N   1      23.353  14.250   2.343  0.00  0.00     0.142 A 
HETATM   72  N   UNK N   1      24.929  12.400   1.158  0.00  0.00    -0.337 N 
HETATM   73  C   UNK N   1      25.278  12.924   2.378  0.00  0.00     0.183 A 
ATOM     74  HN  UNK N   1      25.534  11.707   0.718  1.00  0.00     0.168 HD
HETATM   75  N   UNK N   1      24.499  13.882   2.965  0.00  0.00    -0.336 N 
ATOM     76  HN  UNK N   1      24.774  14.308   3.851  1.00  0.00     0.168 HD
BRANCH  70  77
HETATM   77  N   UNK N   1      23.471  12.309  -0.759  0.00  0.00    -0.383 N 
HETATM   78  H   UNK N   1      24.179  11.953  -1.342  0.00  0.00     0.157 HD
HETATM   79  H   UNK N   1      22.539  12.328  -1.076  0.00  0.00     0.157 HD
ENDBRANCH  70  77
ENDBRANCH  54  65
ENDBRANCH  50  51
ENDBRANCH  49  50
ENDBRANCH  45  49
ENDBRANCH  44  45
ENDBRANCH   2  44
TORSDOF 44
ENDMDL
MODEL 8
REMARK VINA RESULT:      -5.5      3.574      5.541
REMARK WARNING: 32 MAX_TORS EXCEEDED!!!
REMARK  44 active torsions:
REMARK  status: ('A' for Active; 'I' for Inactive)
REMARK    1  A    between atoms: C_5  and  C_4 
REMARK    2  A    between atoms: C_6  and  C_5 
REMARK    3  A    between atoms: C_7  and  C_6 
REMARK    4  A    between atoms: C_8  and  C_7 
REMARK    5  A    between atoms: C_9  and  C_8 
REMARK    6  A    between atoms: C_10  and  C_9 
REMARK    7  A    between atoms: C_11  and  C_10 
REMARK    8  A    between atoms: C_12  and  C_11 
REMARK    9  A    between atoms: C_13  and  C_12 
REMARK   10  A    between atoms: C_14  and  C_13 
REMARK   11  A    between atoms: C_15  and  C_14 
REMARK   12  A    between atoms: C_25  and  C_15 
REMARK   13  A    between atoms: C_17  and  C_16 
REMARK   14  A    between atoms: C_27  and  C_16 
REMARK   15  A    between atoms: N_40  and  C_17 
REMARK   16  A    between atoms: C_19  and  C_18 
REMARK   17  A    between atoms: N_38  and  C_18 
REMARK   18  A    between atoms: S_69  and  C_19 
REMARK   19  A    between atoms: C_26  and  C_20 
REMARK   20  A    between atoms: O_61  and  C_20 
REMARK   21  A    between atoms: C_25  and  C_21 
REMARK   22  A    between atoms: S_69  and  C_21 
REMARK   23  A    between atoms: C_36  and  C_22 
REMARK   24  A    between atoms: O_62  and  C_22 
REMARK   25  A    between atoms: N_38  and  C_27 
REMARK   26  A    between atoms: O_50  and  C_27 
REMARK   27  A    between atoms: C_29  and  O_51 
REMARK   28  A    between atoms: C_30  and  O_64 
REMARK   29  A    between atoms: C_34  and  C_31 
REMARK   30  A    between atoms: C_36  and  C_31 
REMARK   31  A    between atoms: C_31  and  O_52 
REMARK   32  A    between atoms: N_37  and  C_32 
REMARK   33  A    between atoms: N_40  and  C_34 
REMARK   34  A    between atoms: O_53  and  C_34 
REMARK   35  A    between atoms: C_35  and  N_48 
REMARK   36  A    between atoms: P_66  and  O_54 
REMARK   37  A    between atoms: P_66  and  O_55 
REMARK   38  A    between atoms: P_67  and  O_57 
REMARK   39  A    between atoms: P_68  and  O_59 
REMARK   40  A    between atoms: P_67  and  O_61 
REMARK   41  A    between atoms: P_68  and  O_62 
REMARK   42  A    between atoms: P_66  and  O_64 
REMARK   43  A    between atoms: P_67  and  O_65 
REMARK   44  A    between atoms: P_68  and  O_65 
ROOT
HETATM    1  O   UNK N   1      28.956  16.468   3.755  0.00  0.00    -0.631 OA
HETATM    2  P   UNK N   1      30.161  16.026   4.627  0.00  0.00     0.401 P 
ENDROOT
BRANCH   2   3
HETATM    3  O   UNK N   1      29.611  14.633   5.511  0.00  0.00    -0.307 OA
HETATM    4  H   UNK N   1      29.488  13.676   5.409  0.00  0.00     0.222 HD
ENDBRANCH   2   3
BRANCH   2   5
HETATM    5  O   UNK N   1      30.549  17.329   5.731  0.00  0.00    -0.296 OA
BRANCH   5   6
HETATM    6  C   UNK N   1      29.983  16.899   6.939  0.00  0.00     0.192 C 
BRANCH   6   7
HETATM    7  C   UNK N   1      30.598  17.488   8.215  0.00  0.00     0.008 C 
HETATM    8  C   UNK N   1      30.628  16.414   9.291  0.00  0.00     0.020 C 
HETATM    9  C   UNK N   1      32.028  17.948   7.963  0.00  0.00     0.020 C 
BRANCH   7  10
HETATM   10  C   UNK N   1      29.726  18.689   8.692  0.00  0.00     0.202 C 
BRANCH  10  11
HETATM   11  C   UNK N   1      28.255  18.462   8.420  0.00  0.00     0.141 C 
BRANCH  11  12
HETATM   12  N   UNK N   1      27.747  18.849   7.302  0.00  0.00    -0.372 N 
ATOM     13  HN  UNK N   1      27.503  18.141   6.609  1.00  0.00     0.161 HD
BRANCH  12  14
HETATM   14  C   UNK N   1      27.510  20.231   6.983  0.00  0.00     0.129 C 
BRANCH  14  15
HETATM   15  C   UNK N   1      26.842  20.281   5.617  0.00  0.00     0.103 C 
BRANCH  15  16
HETATM   16  C   UNK N   1      27.507  19.398   4.605  0.00  0.00     0.112 C 
BRANCH  16  17
HETATM   17  N   UNK N   1      26.771  18.658   3.847  0.00  0.00    -0.374 N 
ATOM     18  HN  UNK N   1      27.211  17.865   3.381  1.00  0.00     0.161 HD
BRANCH  17  19
HETATM   19  C   UNK N   1      25.360  18.885   3.617  0.00  0.00     0.131 C 
BRANCH  19  20
HETATM   20  C   UNK N   1      24.468  17.735   4.079  0.00  0.00     0.094 C 
BRANCH  20  21
HETATM   21  S   UNK N   1      22.867  18.313   4.753  0.00  0.00    -0.160 SA
BRANCH  21  22
HETATM   22  C   UNK N   1      22.575  19.571   3.465  0.00  0.00     0.152 C 
BRANCH  22  23
HETATM   23  C   UNK N   1      21.101  19.759   3.266  0.00  0.00     0.136 C 
HETATM   24  O   UNK N   1      20.500  20.585   3.934  0.00  0.00    -0.297 OA
BRANCH  23  25
HETATM   25  C   UNK N   1      20.337  18.877   2.324  0.00  0.00     0.079 C 
BRANCH  25  26
HETATM   26  C   UNK N   1      19.676  17.681   2.995  0.00  0.00     0.007 C 
BRANCH  26  27
HETATM   27  C   UNK N   1      20.272  16.345   2.574  0.00  0.00     0.000 C 
BRANCH  27  28
HETATM   28  C   UNK N   1      19.920  16.037   1.123  0.00  0.00     0.000 C 
BRANCH  28  29
HETATM   29  C   UNK N   1      20.273  14.607   0.727  0.00  0.00     0.000 C 
BRANCH  29  30
HETATM   30  C   UNK N   1      21.745  14.320   0.981  0.00  0.00     0.000 C 
BRANCH  30  31
HETATM   31  C   UNK N   1      22.133  12.939   0.495  0.00  0.00     0.000 C 
BRANCH  31  32
HETATM   32  C   UNK N   1      23.575  12.951   0.019  0.00  0.00     0.000 C 
BRANCH  32  33
HETATM   33  C   UNK N   1      24.147  11.543   0.043  0.00  0.00     0.000 C 
BRANCH  33  34
HETATM   34  C   UNK N   1      24.940  11.308   1.319  0.00  0.00     0.000 C 
BRANCH  34  35
HETATM   35  C   UNK N   1      26.348  10.831   1.001  0.00  0.00    -0.000 C 
BRANCH  35  36
HETATM   36  C   UNK N   1      27.369  11.687   1.725  0.00  0.00    -0.005 C 
HETATM   37  C   UNK N   1      26.762  13.024   2.097  0.00  0.00     0.005 C 
ENDBRANCH  35  36
ENDBRANCH  34  35
ENDBRANCH  33  34
ENDBRANCH  32  33
ENDBRANCH  31  32
ENDBRANCH  30  31
ENDBRANCH  29  30
ENDBRANCH  28  29
ENDBRANCH  27  28
ENDBRANCH  26  27
ENDBRANCH  25  26
ENDBRANCH  23  25
ENDBRANCH  22  23
ENDBRANCH  21  22
ENDBRANCH  20  21
ENDBRANCH  19  20
ENDBRANCH  17  19
ENDBRANCH  16  17
BRANCH  16  38
HETATM   38  O   UNK N   1      28.850  19.414   4.469  0.00  0.00    -0.350 OA
HETATM   39  H   UNK N   1      29.469  19.658   5.128  0.00  0.00     0.219 HD
ENDBRANCH  16  38
ENDBRANCH  15  16
ENDBRANCH  14  15
ENDBRANCH  12  14
ENDBRANCH  11  12
BRANCH  11  40
HETATM   40  O   UNK N   1      27.479  17.888   9.365  0.00  0.00    -0.348 OA
HETATM   41  H   UNK N   1      27.605  17.003   9.645  0.00  0.00     0.219 HD
ENDBRANCH  11  40
ENDBRANCH  10  11
BRANCH  10  42
HETATM   42  O   UNK N   1      29.911  18.908  10.061  0.00  0.00    -0.387 OA
HETATM   43  H   UNK N   1      29.719  18.341  10.824  0.00  0.00     0.210 HD
ENDBRANCH  10  42
ENDBRANCH   7  10
ENDBRANCH   6   7
ENDBRANCH   5   6
ENDBRANCH   2   5
BRANCH   2  44
HETATM   44  O   UNK N   1      31.479  15.469   3.583  0.00  0.00    -0.195 OA
BRANCH  44  45
HETATM   45  P   UNK N   1      32.789  16.637   3.552  0.00  0.00     0.401 P 
HETATM   46  O   UNK N   1      33.429  16.141   2.222  0.00  0.00    -0.631 OA
BRANCH  45  47
HETATM   47  O   UNK N   1      31.419  17.177   2.626  0.00  0.00    -0.307 OA
HETATM   48  H   UNK N   1      30.720  17.703   2.208  0.00  0.00     0.222 HD
ENDBRANCH  45  47
BRANCH  45  49
HETATM   49  O   UNK N   1      33.121  15.139   4.397  0.00  0.00    -0.294 OA
BRANCH  49  50
HETATM   50  C   UNK N   1      34.169  15.328   5.300  0.00  0.00     0.215 C 
BRANCH  50  51
HETATM   51  C   UNK N   1      33.741  15.074   6.753  0.00  0.00     0.180 C 
HETATM   52  C   UNK N   1      32.672  13.995   7.124  0.00  0.00     0.197 C 
HETATM   53  C   UNK N   1      33.215  13.478   8.459  0.00  0.00     0.199 C 
HETATM   54  C   UNK N   1      34.063  14.661   8.870  0.00  0.00     0.262 C 
HETATM   55  O   UNK N   1      34.792  14.968   7.694  0.00  0.00    -0.353 OA
BRANCH  52  56
HETATM   56  O   UNK N   1      32.563  12.899   6.215  0.00  0.00    -0.286 OA
BRANCH  56  57
HETATM   57  P   UNK N   1      33.552  11.452   6.575  0.00  0.00     0.391 P 
HETATM   58  O   UNK N   1      34.360  11.950   5.343  0.00  0.00    -0.632 OA
BRANCH  57  59
HETATM   59  O   UNK N   1      33.497  10.195   5.377  0.00  0.00    -0.307 OA
HETATM   60  H   UNK N   1      33.439  10.030   4.424  0.00  0.00     0.222 HD
ENDBRANCH  57  59
BRANCH  57  61
HETATM   61  O   UNK N   1      31.984  10.737   6.354  0.00  0.00    -0.307 OA
HETATM   62  H   UNK N   1      31.861   9.775   6.395  0.00  0.00     0.222 HD
ENDBRANCH  57  61
ENDBRANCH  56  57
ENDBRANCH  52  56
BRANCH  53  63
HETATM   63  O   UNK N   1      32.183  13.185   9.353  0.00  0.00    -0.388 OA
HETATM   64  H   UNK N   1      31.682  12.359   9.279  0.00  0.00     0.210 HD
ENDBRANCH  53  63
BRANCH  54  65
HETATM   65  N   UNK N   1      34.903  14.547  10.065  0.00  0.00    -0.297 N 
HETATM   66  C   UNK N   1      34.559  14.934  11.322  0.00  0.00     0.188 A 
HETATM   67  N   UNK N   1      35.384  14.382  12.256  0.00  0.00    -0.346 N 
HETATM   68  C   UNK N   1      36.241  13.627  11.541  0.00  0.00     0.122 A 
ATOM     69  HN  UNK N   1      35.359  14.511  13.268  1.00  0.00     0.167 HD
HETATM   70  C   UNK N   1      37.228  12.752  11.967  0.00  0.00     0.131 A 
HETATM   71  C   UNK N   1      35.967  13.747  10.229  0.00  0.00     0.142 A 
HETATM   72  N   UNK N   1      37.932  12.065  11.017  0.00  0.00    -0.337 N 
HETATM   73  C   UNK N   1      37.657  12.229   9.682  0.00  0.00     0.183 A 
ATOM     74  HN  UNK N   1      38.671  11.424  11.303  1.00  0.00     0.168 HD
HETATM   75  N   UNK N   1      36.644  13.055   9.282  0.00  0.00    -0.336 N 
ATOM     76  HN  UNK N   1      36.406  13.148   8.294  1.00  0.00     0.168 HD
BRANCH  70  77
HETATM   77  N   UNK N   1      37.462  12.520  13.337  0.00  0.00    -0.383 N 
HETATM   78  H   UNK N   1      38.023  13.137  13.859  0.00  0.00     0.157 HD
HETATM   79  H   UNK N   1      37.061  11.734  13.775  0.00  0.00     0.157 HD
ENDBRANCH  70  77
ENDBRANCH  54  65
ENDBRANCH  50  51
ENDBRANCH  49  50
ENDBRANCH  45  49
ENDBRANCH  44  45
ENDBRANCH   2  44
TORSDOF 44
ENDMDL
MODEL 9
REMARK VINA RESULT:      -5.4      4.753     11.555
REMARK WARNING: 32 MAX_TORS EXCEEDED!!!
REMARK  44 active torsions:
REMARK  status: ('A' for Active; 'I' for Inactive)
REMARK    1  A    between atoms: C_5  and  C_4 
REMARK    2  A    between atoms: C_6  and  C_5 
REMARK    3  A    between atoms: C_7  and  C_6 
REMARK    4  A    between atoms: C_8  and  C_7 
REMARK    5  A    between atoms: C_9  and  C_8 
REMARK    6  A    between atoms: C_10  and  C_9 
REMARK    7  A    between atoms: C_11  and  C_10 
REMARK    8  A    between atoms: C_12  and  C_11 
REMARK    9  A    between atoms: C_13  and  C_12 
REMARK   10  A    between atoms: C_14  and  C_13 
REMARK   11  A    between atoms: C_15  and  C_14 
REMARK   12  A    between atoms: C_25  and  C_15 
REMARK   13  A    between atoms: C_17  and  C_16 
REMARK   14  A    between atoms: C_27  and  C_16 
REMARK   15  A    between atoms: N_40  and  C_17 
REMARK   16  A    between atoms: C_19  and  C_18 
REMARK   17  A    between atoms: N_38  and  C_18 
REMARK   18  A    between atoms: S_69  and  C_19 
REMARK   19  A    between atoms: C_26  and  C_20 
REMARK   20  A    between atoms: O_61  and  C_20 
REMARK   21  A    between atoms: C_25  and  C_21 
REMARK   22  A    between atoms: S_69  and  C_21 
REMARK   23  A    between atoms: C_36  and  C_22 
REMARK   24  A    between atoms: O_62  and  C_22 
REMARK   25  A    between atoms: N_38  and  C_27 
REMARK   26  A    between atoms: O_50  and  C_27 
REMARK   27  A    between atoms: C_29  and  O_51 
REMARK   28  A    between atoms: C_30  and  O_64 
REMARK   29  A    between atoms: C_34  and  C_31 
REMARK   30  A    between atoms: C_36  and  C_31 
REMARK   31  A    between atoms: C_31  and  O_52 
REMARK   32  A    between atoms: N_37  and  C_32 
REMARK   33  A    between atoms: N_40  and  C_34 
REMARK   34  A    between atoms: O_53  and  C_34 
REMARK   35  A    between atoms: C_35  and  N_48 
REMARK   36  A    between atoms: P_66  and  O_54 
REMARK   37  A    between atoms: P_66  and  O_55 
REMARK   38  A    between atoms: P_67  and  O_57 
REMARK   39  A    between atoms: P_68  and  O_59 
REMARK   40  A    between atoms: P_67  and  O_61 
REMARK   41  A    between atoms: P_68  and  O_62 
REMARK   42  A    between atoms: P_66  and  O_64 
REMARK   43  A    between atoms: P_67  and  O_65 
REMARK   44  A    between atoms: P_68  and  O_65 
ROOT
HETATM    1  O   UNK N   1      21.919  15.051   8.979  0.00  0.00    -0.631 OA
HETATM    2  P   UNK N   1      21.154  13.913   8.252  0.00  0.00     0.401 P 
ENDROOT
BRANCH   2   3
HETATM    3  O   UNK N   1      20.318  13.041   9.502  0.00  0.00    -0.307 OA
HETATM    4  H   UNK N   1      20.407  12.789  10.435  0.00  0.00     0.222 HD
ENDBRANCH   2   3
BRANCH   2   5
HETATM    5  O   UNK N   1      22.326  12.874   7.468  0.00  0.00    -0.296 OA
BRANCH   5   6
HETATM    6  C   UNK N   1      21.524  11.931   6.813  0.00  0.00     0.192 C 
BRANCH   6   7
HETATM    7  C   UNK N   1      22.189  11.172   5.657  0.00  0.00     0.008 C 
HETATM    8  C   UNK N   1      23.680  11.063   5.931  0.00  0.00     0.020 C 
HETATM    9  C   UNK N   1      21.623   9.762   5.541  0.00  0.00     0.020 C 
BRANCH   7  10
HETATM   10  C   UNK N   1      21.950  11.955   4.331  0.00  0.00     0.202 C 
BRANCH  10  11
HETATM   11  C   UNK N   1      22.939  13.086   4.155  0.00  0.00     0.141 C 
BRANCH  11  12
HETATM   12  N   UNK N   1      22.716  14.220   4.723  0.00  0.00    -0.372 N 
ATOM     13  HN  UNK N   1      21.850  14.337   5.250  1.00  0.00     0.161 HD
BRANCH  12  14
HETATM   14  C   UNK N   1      23.629  15.328   4.650  0.00  0.00     0.129 C 
BRANCH  14  15
HETATM   15  C   UNK N   1      23.843  15.845   6.065  0.00  0.00     0.103 C 
BRANCH  15  16
HETATM   16  C   UNK N   1      25.031  15.232   6.741  0.00  0.00     0.112 C 
BRANCH  16  17
HETATM   17  N   UNK N   1      26.114  15.925   6.843  0.00  0.00    -0.374 N 
ATOM     18  HN  UNK N   1      26.209  16.550   7.643  1.00  0.00     0.161 HD
BRANCH  17  19
HETATM   19  C   UNK N   1      27.203  15.870   5.891  0.00  0.00     0.131 C 
BRANCH  19  20
HETATM   20  C   UNK N   1      27.098  16.907   4.775  0.00  0.00     0.094 C 
BRANCH  20  21
HETATM   21  S   UNK N   1      26.919  16.144   3.119  0.00  0.00    -0.160 SA
BRANCH  21  22
HETATM   22  C   UNK N   1      27.436  14.473   3.637  0.00  0.00     0.152 C 
BRANCH  22  23
HETATM   23  C   UNK N   1      28.728  14.113   2.967  0.00  0.00     0.136 C 
HETATM   24  O   UNK N   1      28.777  14.032   1.750  0.00  0.00    -0.297 OA
BRANCH  23  25
HETATM   25  C   UNK N   1      29.938  13.755   3.778  0.00  0.00     0.079 C 
BRANCH  25  26
HETATM   26  C   UNK N   1      31.058  14.784   3.705  0.00  0.00     0.007 C 
BRANCH  26  27
HETATM   27  C   UNK N   1      30.727  16.092   4.409  0.00  0.00     0.000 C 
BRANCH  27  28
HETATM   28  C   UNK N   1      31.355  16.123   5.799  0.00  0.00     0.000 C 
BRANCH  28  29
HETATM   29  C   UNK N   1      32.181  17.382   6.038  0.00  0.00     0.000 C 
BRANCH  29  30
HETATM   30  C   UNK N   1      32.695  17.431   7.470  0.00  0.00     0.000 C 
BRANCH  30  31
HETATM   31  C   UNK N   1      31.653  16.937   8.451  0.00  0.00     0.000 C 
BRANCH  31  32
HETATM   32  C   UNK N   1      30.663  18.050   8.749  0.00  0.00     0.000 C 
BRANCH  32  33
HETATM   33  C   UNK N   1      29.240  17.519   8.683  0.00  0.00     0.000 C 
BRANCH  33  34
HETATM   34  C   UNK N   1      28.246  18.663   8.568  0.00  0.00     0.000 C 
BRANCH  34  35
HETATM   35  C   UNK N   1      28.307  19.298   7.189  0.00  0.00    -0.000 C 
BRANCH  35  36
HETATM   36  C   UNK N   1      27.125  20.224   6.982  0.00  0.00    -0.005 C 
HETATM   37  C   UNK N   1      27.383  21.147   5.808  0.00  0.00     0.005 C 
ENDBRANCH  35  36
ENDBRANCH  34  35
ENDBRANCH  33  34
ENDBRANCH  32  33
ENDBRANCH  31  32
ENDBRANCH  30  31
ENDBRANCH  29  30
ENDBRANCH  28  29
ENDBRANCH  27  28
ENDBRANCH  26  27
ENDBRANCH  25  26
ENDBRANCH  23  25
ENDBRANCH  22  23
ENDBRANCH  21  22
ENDBRANCH  20  21
ENDBRANCH  19  20
ENDBRANCH  17  19
ENDBRANCH  16  17
BRANCH  16  38
HETATM   38  O   UNK N   1      24.947  13.992   7.267  0.00  0.00    -0.350 OA
HETATM   39  H   UNK N   1      24.158  13.521   7.450  0.00  0.00     0.219 HD
ENDBRANCH  16  38
ENDBRANCH  15  16
ENDBRANCH  14  15
ENDBRANCH  12  14
ENDBRANCH  11  12
BRANCH  11  40
HETATM   40  O   UNK N   1      24.030  12.909   3.379  0.00  0.00    -0.348 OA
HETATM   41  H   UNK N   1      24.236  12.083   2.987  0.00  0.00     0.219 HD
ENDBRANCH  11  40
ENDBRANCH  10  11
BRANCH  10  42
HETATM   42  O   UNK N   1      22.044  11.090   3.235  0.00  0.00    -0.387 OA
HETATM   43  H   UNK N   1      21.675  11.160   2.340  0.00  0.00     0.210 HD
ENDBRANCH  10  42
ENDBRANCH   7  10
ENDBRANCH   6   7
ENDBRANCH   5   6
ENDBRANCH   2   5
BRANCH   2  44
HETATM   44  O   UNK N   1      19.905  14.609   7.206  0.00  0.00    -0.195 OA
BRANCH  44  45
HETATM   45  P   UNK N   1      19.720  16.328   7.510  0.00  0.00     0.401 P 
HETATM   46  O   UNK N   1      18.242  16.429   7.031  0.00  0.00    -0.631 OA
BRANCH  45  47
HETATM   47  O   UNK N   1      19.161  15.372   8.851  0.00  0.00    -0.307 OA
HETATM   48  H   UNK N   1      18.775  15.064   9.686  0.00  0.00     0.222 HD
ENDBRANCH  45  47
BRANCH  45  49
HETATM   49  O   UNK N   1      20.319  15.893   5.922  0.00  0.00    -0.294 OA
BRANCH  49  50
HETATM   50  C   UNK N   1      20.289  17.008   5.084  0.00  0.00     0.215 C 
BRANCH  50  51
HETATM   51  C   UNK N   1      19.937  16.640   3.635  0.00  0.00     0.180 C 
HETATM   52  C   UNK N   1      20.077  17.664   2.462  0.00  0.00     0.197 C 
HETATM   53  C   UNK N   1      20.525  16.752   1.316  0.00  0.00     0.199 C 
HETATM   54  C   UNK N   1      20.012  15.424   1.825  0.00  0.00     0.262 C 
HETATM   55  O   UNK N   1      20.443  15.400   3.175  0.00  0.00    -0.353 OA
BRANCH  52  56
HETATM   56  O   UNK N   1      21.058  18.684   2.651  0.00  0.00    -0.286 OA
BRANCH  56  57
HETATM   57  P   UNK N   1      20.600  20.343   2.159  0.00  0.00     0.391 P 
HETATM   58  O   UNK N   1      21.945  20.265   1.384  0.00  0.00    -0.632 OA
BRANCH  57  59
HETATM   59  O   UNK N   1      21.621  21.609   2.767  0.00  0.00    -0.307 OA
HETATM   60  H   UNK N   1      22.297  21.814   3.432  0.00  0.00     0.222 HD
ENDBRANCH  57  59
BRANCH  57  61
HETATM   61  O   UNK N   1      20.601  20.497   3.890  0.00  0.00    -0.307 OA
HETATM   62  H   UNK N   1      21.220  21.092   4.340  0.00  0.00     0.222 HD
ENDBRANCH  57  61
ENDBRANCH  56  57
ENDBRANCH  52  56
BRANCH  53  63
HETATM   63  O   UNK N   1      19.964  17.145   0.100  0.00  0.00    -0.388 OA
HETATM   64  H   UNK N   1      19.132  17.643   0.074  0.00  0.00     0.210 HD
ENDBRANCH  53  63
BRANCH  54  65
HETATM   65  N   UNK N   1      20.349  14.206   1.084  0.00  0.00    -0.297 N 
HETATM   66  C   UNK N   1      21.603  13.730   0.861  0.00  0.00     0.188 A 
HETATM   67  N   UNK N   1      21.578  12.425   0.466  0.00  0.00    -0.346 N 
HETATM   68  C   UNK N   1      20.270  12.101   0.468  0.00  0.00     0.122 A 
ATOM     69  HN  UNK N   1      22.368  11.828   0.225  1.00  0.00     0.167 HD
HETATM   70  C   UNK N   1      19.653  10.877   0.258  0.00  0.00     0.131 A 
HETATM   71  C   UNK N   1      19.536  13.175   0.814  0.00  0.00     0.142 A 
HETATM   72  N   UNK N   1      18.292  10.817   0.366  0.00  0.00    -0.337 N 
HETATM   73  C   UNK N   1      17.560  11.933   0.687  0.00  0.00     0.183 A 
ATOM     74  HN  UNK N   1      17.813   9.931   0.205  1.00  0.00     0.168 HD
HETATM   75  N   UNK N   1      18.188  13.120   0.944  0.00  0.00    -0.336 N 
ATOM     76  HN  UNK N   1      17.655  13.942   1.226  1.00  0.00     0.168 HD
BRANCH  70  77
HETATM   77  N   UNK N   1      20.403   9.711   0.006  0.00  0.00    -0.383 N 
HETATM   78  H   UNK N   1      21.333   9.640   0.317  0.00  0.00     0.157 HD
HETATM   79  H   UNK N   1      19.992   8.963  -0.484  0.00  0.00     0.157 HD
ENDBRANCH  70  77
ENDBRANCH  54  65
ENDBRANCH  50  51
ENDBRANCH  49  50
ENDBRANCH  45  49
ENDBRANCH  44  45
ENDBRANCH   2  44
TORSDOF 44
ENDMDL
