REMARK  6 active torsions:
REMARK  status: ('A' for Active; 'I' for Inactive)
REMARK    1  A    between atoms: C_3  and  C_2 
REMARK    2  A    between atoms: S_9  and  C_2 
REMARK    3  A    between atoms: C_4  and  C_3 
REMARK    4  A    between atoms: C_3  and  N_5 
REMARK    5  A    between atoms: O_7  and  C_4 
REMARK    6  A    between atoms: S_9  and  S_8 
ROOT
HETATM    1  C   UNK N   1      -1.056   0.800  -0.056  0.00  0.00     0.183 C 
ENDROOT
BRANCH   1   2
HETATM    2  C   UNK N   1       0.140   1.215   0.796  0.00  0.00     0.121 C 
BRANCH   2   3
HETATM    3  S   UNK N   1       1.219   2.381  -0.099  0.00  0.00    -0.096 SA
BRANCH   3   4
HETATM    4  S   UNK N   1       2.993   1.494   0.678  0.00  0.00    -0.102 SA
HETATM    5  C   UNK N   1       2.882   0.063  -0.432  0.00  0.00     0.102 C 
ENDBRANCH   3   4
ENDBRANCH   2   3
ENDBRANCH   1   2
BRANCH   1   6
HETATM    6  C   UNK N   1      -2.091   1.897  -0.076  0.00  0.00     0.163 C 
HETATM    7  O   UNK N   1      -3.229   1.683   0.329  0.00  0.00    -0.648 OA
BRANCH   6   8
HETATM    8  O   UNK N   1      -1.779   3.118  -0.542  0.00  0.00    -0.775 OA
HETATM    9  H   UNK N   1      -0.932   3.354  -0.867  0.00  0.00     0.167 HD
ENDBRANCH   6   8
ENDBRANCH   1   6
BRANCH   1  10
HETATM   10  N   UNK N   1      -1.617  -0.423   0.495  0.00  0.00    -0.417 N 
HETATM   11  H   UNK N   1      -2.557  -0.511   0.881  0.00  0.00     0.150 HD
HETATM   12  H   UNK N   1      -1.027  -1.255   0.495  0.00  0.00     0.150 HD
ENDBRANCH   1  10
TORSDOF 6
