REMARK  5 active torsions:
REMARK  status: ('A' for Active; 'I' for Inactive)
REMARK    1  A    between atoms: N_1  and  C_2 
REMARK    2  A    between atoms: C_2  and  C_3 
REMARK    3  A    between atoms: C_6  and  N_7 
REMARK       I    between atoms: N_7  and  C_8 
REMARK    4  A    between atoms: C_8  and  C_10 
REMARK    5  A    between atoms: C_10  and  O_11 
ROOT
HETATM    1  C   UNK N   1       0.972  -1.523   0.000  0.00  0.00    -0.041 A 
HETATM    2  C   UNK N   1      -0.249  -0.850   0.000  0.00  0.00     0.011 A 
HETATM    3  C   UNK N   1      -0.284   0.544   0.000  0.00  0.00     0.030 A 
HETATM    4  C   UNK N   1       0.904   1.292  -0.000  0.00  0.00     0.035 A 
HETATM    5  C   UNK N   1       2.132   0.617  -0.000  0.00  0.00     0.030 A 
HETATM    6  C   UNK N   1       2.168  -0.784  -0.000  0.00  0.00     0.011 A 
ENDROOT
BRANCH   4   7
HETATM    7  N   UNK N   1       0.892   2.720  -0.000  0.00  0.00    -0.318 N 
HETATM    8  C   UNK N   1      -0.228   3.501   0.000  0.00  0.00     0.319 C 
HETATM    9  O   UNK N   1      -1.344   3.001   0.000  0.00  0.00    -0.261 OA
HETATM   10  H   UNK N   1       1.762   3.179  -0.000  0.00  0.00     0.169 HD
BRANCH   8  11
HETATM   11  C   UNK N   1      -0.107   4.969  -0.000  0.00  0.00     0.237 C 
HETATM   12  O   UNK N   1       0.993   5.499  -0.000  0.00  0.00    -0.643 OA
BRANCH  11  13
HETATM   13  O   UNK N   1      -1.216   5.735   0.000  0.00  0.00    -0.769 OA
HETATM   14  H   UNK N   1      -1.140   6.669   0.000  0.00  0.00     0.168 HD
ENDBRANCH  11  13
ENDBRANCH   8  11
ENDBRANCH   4   7
BRANCH   1  15
HETATM   15  C   UNK N   1       0.957  -3.023   0.000  0.00  0.00     0.150 C 
BRANCH  15  16
HETATM   16  N   UNK N   1       2.297  -3.588  -0.000  0.00  0.00    -0.426 N 
HETATM   17  H   UNK N   1       2.423  -4.600  -0.000  0.00  0.00     0.150 HD
HETATM   18  H   UNK N   1       3.110  -2.973  -0.000  0.00  0.00     0.150 HD
ENDBRANCH  15  16
ENDBRANCH   1  15
TORSDOF 5
