MODEL 1
REMARK VINA RESULT:      -7.4      0.000      0.000
REMARK  13 active torsions:
REMARK  status: ('A' for Active; 'I' for Inactive)
REMARK    1  A    between atoms: N_1  and  C_2 
REMARK    2  A    between atoms: C_14  and  N_13 
REMARK    3  A    between atoms: C_17  and  C_18 
REMARK    4  A    between atoms: C_18  and  O_19 
REMARK    5  A    between atoms: P_20  and  O_19 
REMARK    6  A    between atoms: P_20  and  O_21 
REMARK    7  A    between atoms: P_20  and  O_23 
REMARK    8  A    between atoms: P_24  and  O_23 
REMARK    9  A    between atoms: P_24  and  O_25 
REMARK   10  A    between atoms: P_24  and  O_27 
REMARK   11  A    between atoms: O_27  and  P_28 
REMARK   12  A    between atoms: P_28  and  O_29 
REMARK   13  A    between atoms: P_28  and  O_30 
ROOT
HETATM    1  C   UNK N   1      28.057  18.640   6.582  0.00  0.00     0.231 C 
HETATM    2  C   UNK N   1      27.580  20.033   6.960  0.00  0.00     0.057 C 
HETATM    3  C   UNK N   1      27.632  20.793   5.665  0.00  0.00     0.038 C 
HETATM    4  C   UNK N   1      27.828  19.707   4.634  0.00  0.00     0.148 C 
HETATM    5  O   UNK N   1      28.517  18.650   5.254  0.00  0.00    -0.359 OA
ENDROOT
BRANCH   4   6
HETATM    6  C   UNK N   1      26.495  19.243   4.026  0.00  0.00     0.212 C 
BRANCH   6   7
HETATM    7  O   UNK N   1      25.998  20.166   3.092  0.00  0.00    -0.294 OA
BRANCH   7   8
HETATM    8  P   UNK N   1      24.297  19.829   2.964  0.00  0.00     0.401 P 
HETATM    9  O   UNK N   1      24.541  20.623   1.651  0.00  0.00    -0.631 OA
BRANCH   8  10
HETATM   10  O   UNK N   1      24.585  20.893   4.305  0.00  0.00    -0.307 OA
HETATM   11  H   UNK N   1      25.317  21.461   4.592  0.00  0.00     0.222 HD
ENDBRANCH   8  10
BRANCH   8  12
HETATM   12  O   UNK N   1      23.103  21.087   3.095  0.00  0.00    -0.195 OA
BRANCH  12  13
HETATM   13  P   UNK N   1      21.630  20.402   2.470  0.00  0.00     0.410 P 
HETATM   14  O   UNK N   1      20.472  21.095   3.240  0.00  0.00    -0.631 OA
BRANCH  13  15
HETATM   15  O   UNK N   1      21.452  20.750   0.777  0.00  0.00    -0.307 OA
HETATM   16  H   UNK N   1      20.981  20.464  -0.021  0.00  0.00     0.222 HD
ENDBRANCH  13  15
BRANCH  13  17
HETATM   17  O   UNK N   1      21.629  18.670   2.745  0.00  0.00    -0.195 OA
BRANCH  17  18
HETATM   18  P   UNK N   1      20.229  17.911   2.010  0.00  0.00     0.399 P 
HETATM   19  O   UNK N   1      20.123  16.411   2.396  0.00  0.00    -0.631 OA
BRANCH  18  20
HETATM   20  O   UNK N   1      20.283  18.020   0.278  0.00  0.00    -0.307 OA
HETATM   21  H   UNK N   1      20.542  17.419  -0.438  0.00  0.00     0.222 HD
ENDBRANCH  18  20
BRANCH  18  22
HETATM   22  O   UNK N   1      18.776  18.651   2.601  0.00  0.00    -0.307 OA
HETATM   23  H   UNK N   1      18.415  19.433   2.155  0.00  0.00     0.222 HD
ENDBRANCH  18  22
ENDBRANCH  17  18
ENDBRANCH  13  17
ENDBRANCH  12  13
ENDBRANCH   8  12
ENDBRANCH   7   8
ENDBRANCH   6   7
ENDBRANCH   4   6
BRANCH   1  24
HETATM   24  N   UNK N   1      29.093  18.186   7.498  0.00  0.00    -0.300 N 
HETATM   25  C   UNK N   1      29.330  18.678   8.740  0.00  0.00     0.188 A 
HETATM   26  N   UNK N   1      30.399  18.061   9.320  0.00  0.00    -0.346 N 
HETATM   27  C   UNK N   1      30.817  17.179   8.391  0.00  0.00     0.122 A 
ATOM     28  HN  UNK N   1      30.793  18.229  10.245  1.00  0.00     0.167 HD
HETATM   29  C   UNK N   1      30.027  17.251   7.305  0.00  0.00     0.142 A 
HETATM   30  C   UNK N   1      31.884  16.298   8.416  0.00  0.00     0.131 A 
HETATM   31  N   UNK N   1      30.225  16.488   6.203  0.00  0.00    -0.336 N 
HETATM   32  C   UNK N   1      31.277  15.611   6.214  0.00  0.00     0.183 A 
ATOM     33  HN  UNK N   1      29.612  16.563   5.391  1.00  0.00     0.168 HD
HETATM   34  N   UNK N   1      32.098  15.521   7.312  0.00  0.00    -0.337 N 
ATOM     35  HN  UNK N   1      32.879  14.864   7.303  1.00  0.00     0.168 HD
BRANCH  30  36
HETATM   36  N   UNK N   1      32.738  16.212   9.534  0.00  0.00    -0.383 N 
HETATM   37  H   UNK N   1      33.550  15.657   9.494  0.00  0.00     0.157 HD
HETATM   38  H   UNK N   1      32.522  16.708  10.357  0.00  0.00     0.157 HD
ENDBRANCH  30  36
ENDBRANCH   1  24
TORSDOF 13
ENDMDL
MODEL 2
REMARK VINA RESULT:      -7.3      6.536      7.500
REMARK  13 active torsions:
REMARK  status: ('A' for Active; 'I' for Inactive)
REMARK    1  A    between atoms: N_1  and  C_2 
REMARK    2  A    between atoms: C_14  and  N_13 
REMARK    3  A    between atoms: C_17  and  C_18 
REMARK    4  A    between atoms: C_18  and  O_19 
REMARK    5  A    between atoms: P_20  and  O_19 
REMARK    6  A    between atoms: P_20  and  O_21 
REMARK    7  A    between atoms: P_20  and  O_23 
REMARK    8  A    between atoms: P_24  and  O_23 
REMARK    9  A    between atoms: P_24  and  O_25 
REMARK   10  A    between atoms: P_24  and  O_27 
REMARK   11  A    between atoms: O_27  and  P_28 
REMARK   12  A    between atoms: P_28  and  O_29 
REMARK   13  A    between atoms: P_28  and  O_30 
ROOT
HETATM    1  C   UNK N   1      20.695  14.318   8.497  0.00  0.00     0.231 C 
HETATM    2  C   UNK N   1      19.787  15.432   8.992  0.00  0.00     0.057 C 
HETATM    3  C   UNK N   1      20.356  16.668   8.356  0.00  0.00     0.038 C 
HETATM    4  C   UNK N   1      21.320  16.116   7.332  0.00  0.00     0.148 C 
HETATM    5  O   UNK N   1      21.783  14.878   7.805  0.00  0.00    -0.359 OA
ENDROOT
BRANCH   4   6
HETATM    6  C   UNK N   1      20.675  15.994   5.942  0.00  0.00     0.212 C 
BRANCH   6   7
HETATM    7  O   UNK N   1      21.458  15.224   5.068  0.00  0.00    -0.294 OA
BRANCH   7   8
HETATM    8  P   UNK N   1      21.551  16.142   3.594  0.00  0.00     0.401 P 
HETATM    9  O   UNK N   1      22.701  16.785   4.417  0.00  0.00    -0.631 OA
BRANCH   8  10
HETATM   10  O   UNK N   1      20.051  16.477   4.401  0.00  0.00    -0.307 OA
HETATM   11  H   UNK N   1      19.228  16.935   4.170  0.00  0.00     0.222 HD
ENDBRANCH   8  10
BRANCH   8  12
HETATM   12  O   UNK N   1      21.116  17.825   3.537  0.00  0.00    -0.195 OA
BRANCH  12  13
HETATM   13  P   UNK N   1      20.118  18.002   2.122  0.00  0.00     0.410 P 
HETATM   14  O   UNK N   1      20.136  16.624   1.406  0.00  0.00    -0.631 OA
BRANCH  13  15
HETATM   15  O   UNK N   1      18.478  18.375   2.559  0.00  0.00    -0.307 OA
HETATM   16  H   UNK N   1      17.946  18.972   3.108  0.00  0.00     0.222 HD
ENDBRANCH  13  15
BRANCH  13  17
HETATM   17  O   UNK N   1      20.781  19.259   1.093  0.00  0.00    -0.195 OA
BRANCH  17  18
HETATM   18  P   UNK N   1      21.096  20.725   2.003  0.00  0.00     0.399 P 
HETATM   19  O   UNK N   1      22.617  20.937   2.235  0.00  0.00    -0.631 OA
BRANCH  18  20
HETATM   20  O   UNK N   1      20.313  20.693   3.553  0.00  0.00    -0.307 OA
HETATM   21  H   UNK N   1      19.477  20.335   3.890  0.00  0.00     0.222 HD
ENDBRANCH  18  20
BRANCH  18  22
HETATM   22  O   UNK N   1      20.561  22.107   1.102  0.00  0.00    -0.307 OA
HETATM   23  H   UNK N   1      21.132  22.491   0.419  0.00  0.00     0.222 HD
ENDBRANCH  18  22
ENDBRANCH  17  18
ENDBRANCH  13  17
ENDBRANCH  12  13
ENDBRANCH   8  12
ENDBRANCH   7   8
ENDBRANCH   6   7
ENDBRANCH   4   6
BRANCH   1  24
HETATM   24  N   UNK N   1      21.141  13.489   9.606  0.00  0.00    -0.300 N 
HETATM   25  C   UNK N   1      20.347  12.923  10.549  0.00  0.00     0.188 A 
HETATM   26  N   UNK N   1      21.084  12.241  11.472  0.00  0.00    -0.346 N 
HETATM   27  C   UNK N   1      22.358  12.412  11.071  0.00  0.00     0.122 A 
ATOM     28  HN  UNK N   1      20.747  11.720  12.281  1.00  0.00     0.167 HD
HETATM   29  C   UNK N   1      22.388  13.153   9.948  0.00  0.00     0.142 A 
HETATM   30  C   UNK N   1      23.538  11.969  11.642  0.00  0.00     0.131 A 
HETATM   31  N   UNK N   1      23.543  13.499   9.329  0.00  0.00    -0.336 N 
HETATM   32  C   UNK N   1      24.718  13.066   9.882  0.00  0.00     0.183 A 
ATOM     33  HN  UNK N   1      23.537  14.063   8.480  1.00  0.00     0.168 HD
HETATM   34  N   UNK N   1      24.712  12.310  11.030  0.00  0.00    -0.337 N 
ATOM     35  HN  UNK N   1      25.597  11.997  11.430  1.00  0.00     0.168 HD
BRANCH  30  36
HETATM   36  N   UNK N   1      23.539  11.205  12.826  0.00  0.00    -0.383 N 
HETATM   37  H   UNK N   1      24.387  10.870  13.197  0.00  0.00     0.157 HD
HETATM   38  H   UNK N   1      22.689  11.004  13.282  0.00  0.00     0.157 HD
ENDBRANCH  30  36
ENDBRANCH   1  24
TORSDOF 13
ENDMDL
MODEL 3
REMARK VINA RESULT:      -7.2     11.089     13.702
REMARK  13 active torsions:
REMARK  status: ('A' for Active; 'I' for Inactive)
REMARK    1  A    between atoms: N_1  and  C_2 
REMARK    2  A    between atoms: C_14  and  N_13 
REMARK    3  A    between atoms: C_17  and  C_18 
REMARK    4  A    between atoms: C_18  and  O_19 
REMARK    5  A    between atoms: P_20  and  O_19 
REMARK    6  A    between atoms: P_20  and  O_21 
REMARK    7  A    between atoms: P_20  and  O_23 
REMARK    8  A    between atoms: P_24  and  O_23 
REMARK    9  A    between atoms: P_24  and  O_25 
REMARK   10  A    between atoms: P_24  and  O_27 
REMARK   11  A    between atoms: O_27  and  P_28 
REMARK   12  A    between atoms: P_28  and  O_29 
REMARK   13  A    between atoms: P_28  and  O_30 
ROOT
HETATM    1  C   UNK N   1      35.376  13.571  15.437  0.00  0.00     0.231 C 
HETATM    2  C   UNK N   1      36.820  13.539  14.962  0.00  0.00     0.057 C 
HETATM    3  C   UNK N   1      36.763  12.727  13.699  0.00  0.00     0.038 C 
HETATM    4  C   UNK N   1      35.283  12.639  13.410  0.00  0.00     0.148 C 
HETATM    5  O   UNK N   1      34.604  12.709  14.638  0.00  0.00    -0.359 OA
ENDROOT
BRANCH   4   6
HETATM    6  C   UNK N   1      34.821  13.734  12.437  0.00  0.00     0.212 C 
BRANCH   6   7
HETATM    7  O   UNK N   1      35.907  14.412  11.859  0.00  0.00    -0.294 OA
BRANCH   7   8
HETATM    8  P   UNK N   1      35.390  14.834  10.253  0.00  0.00     0.401 P 
HETATM    9  O   UNK N   1      36.361  16.005  10.571  0.00  0.00    -0.631 OA
BRANCH   8  10
HETATM   10  O   UNK N   1      34.046  14.931  11.346  0.00  0.00    -0.307 OA
HETATM   11  H   UNK N   1      33.561  14.302  11.904  0.00  0.00     0.222 HD
ENDBRANCH   8  10
BRANCH   8  12
HETATM   12  O   UNK N   1      34.375  16.214   9.952  0.00  0.00    -0.195 OA
BRANCH  12  13
HETATM   13  P   UNK N   1      33.010  15.605   9.061  0.00  0.00     0.410 P 
HETATM   14  O   UNK N   1      33.467  14.256   8.440  0.00  0.00    -0.631 OA
BRANCH  13  15
HETATM   15  O   UNK N   1      31.664  15.298  10.117  0.00  0.00    -0.307 OA
HETATM   16  H   UNK N   1      30.834  14.800  10.179  0.00  0.00     0.222 HD
ENDBRANCH  13  15
BRANCH  13  17
HETATM   17  O   UNK N   1      32.564  16.758   7.816  0.00  0.00    -0.195 OA
BRANCH  17  18
HETATM   18  P   UNK N   1      33.970  17.300   6.920  0.00  0.00     0.399 P 
HETATM   19  O   UNK N   1      34.707  18.452   7.656  0.00  0.00    -0.631 OA
BRANCH  18  20
HETATM   20  O   UNK N   1      33.537  17.863   5.335  0.00  0.00    -0.307 OA
HETATM   21  H   UNK N   1      33.756  18.642   4.802  0.00  0.00     0.222 HD
ENDBRANCH  18  20
BRANCH  18  22
HETATM   22  O   UNK N   1      35.123  16.011   6.792  0.00  0.00    -0.307 OA
HETATM   23  H   UNK N   1      35.481  15.599   7.594  0.00  0.00     0.222 HD
ENDBRANCH  18  22
ENDBRANCH  17  18
ENDBRANCH  13  17
ENDBRANCH  12  13
ENDBRANCH   8  12
ENDBRANCH   7   8
ENDBRANCH   6   7
ENDBRANCH   4   6
BRANCH   1  24
HETATM   24  N   UNK N   1      35.291  13.208  16.844  0.00  0.00    -0.300 N 
HETATM   25  C   UNK N   1      35.331  14.067  17.893  0.00  0.00     0.188 A 
HETATM   26  N   UNK N   1      35.268  13.400  19.080  0.00  0.00    -0.346 N 
HETATM   27  C   UNK N   1      35.197  12.102  18.728  0.00  0.00     0.122 A 
ATOM     28  HN  UNK N   1      35.274  13.794  20.021  1.00  0.00     0.167 HD
HETATM   29  C   UNK N   1      35.202  11.991  17.388  0.00  0.00     0.142 A 
HETATM   30  C   UNK N   1      35.143  10.967  19.519  0.00  0.00     0.131 A 
HETATM   31  N   UNK N   1      35.158  10.796  16.751  0.00  0.00    -0.336 N 
HETATM   32  C   UNK N   1      35.103   9.664  17.521  0.00  0.00     0.183 A 
ATOM     33  HN  UNK N   1      35.165  10.740  15.733  1.00  0.00     0.168 HD
HETATM   34  N   UNK N   1      35.098   9.753  18.892  0.00  0.00    -0.337 N 
ATOM     35  HN  UNK N   1      35.059   8.900  19.451  1.00  0.00     0.168 HD
BRANCH  30  36
HETATM   36  N   UNK N   1      35.151  11.051  20.925  0.00  0.00    -0.383 N 
HETATM   37  H   UNK N   1      34.925  11.898  21.371  0.00  0.00     0.157 HD
HETATM   38  H   UNK N   1      35.385  10.259  21.463  0.00  0.00     0.157 HD
ENDBRANCH  30  36
ENDBRANCH   1  24
TORSDOF 13
ENDMDL
MODEL 4
REMARK VINA RESULT:      -7.2      6.378     10.932
REMARK  13 active torsions:
REMARK  status: ('A' for Active; 'I' for Inactive)
REMARK    1  A    between atoms: N_1  and  C_2 
REMARK    2  A    between atoms: C_14  and  N_13 
REMARK    3  A    between atoms: C_17  and  C_18 
REMARK    4  A    between atoms: C_18  and  O_19 
REMARK    5  A    between atoms: P_20  and  O_19 
REMARK    6  A    between atoms: P_20  and  O_21 
REMARK    7  A    between atoms: P_20  and  O_23 
REMARK    8  A    between atoms: P_24  and  O_23 
REMARK    9  A    between atoms: P_24  and  O_25 
REMARK   10  A    between atoms: P_24  and  O_27 
REMARK   11  A    between atoms: O_27  and  P_28 
REMARK   12  A    between atoms: P_28  and  O_29 
REMARK   13  A    between atoms: P_28  and  O_30 
ROOT
HETATM    1  C   UNK N   1      27.333  19.245   4.885  0.00  0.00     0.231 C 
HETATM    2  C   UNK N   1      27.616  20.280   5.963  0.00  0.00     0.057 C 
HETATM    3  C   UNK N   1      27.833  19.457   7.201  0.00  0.00     0.038 C 
HETATM    4  C   UNK N   1      27.961  18.051   6.664  0.00  0.00     0.148 C 
HETATM    5  O   UNK N   1      27.211  17.977   5.479  0.00  0.00    -0.359 OA
ENDROOT
BRANCH   4   6
HETATM    6  C   UNK N   1      29.429  17.654   6.439  0.00  0.00     0.212 C 
BRANCH   6   7
HETATM    7  O   UNK N   1      29.981  17.030   7.569  0.00  0.00    -0.294 OA
BRANCH   7   8
HETATM    8  P   UNK N   1      31.704  17.106   7.347  0.00  0.00     0.401 P 
HETATM    9  O   UNK N   1      31.572  15.823   8.213  0.00  0.00    -0.631 OA
BRANCH   8  10
HETATM   10  O   UNK N   1      31.174  18.459   8.296  0.00  0.00    -0.307 OA
HETATM   11  H   UNK N   1      31.205  18.700   9.235  0.00  0.00     0.222 HD
ENDBRANCH   8  10
BRANCH   8  12
HETATM   12  O   UNK N   1      32.780  17.468   8.665  0.00  0.00    -0.195 OA
BRANCH  12  13
HETATM   13  P   UNK N   1      34.360  17.617   7.951  0.00  0.00     0.410 P 
HETATM   14  O   UNK N   1      34.130  17.777   6.423  0.00  0.00    -0.631 OA
BRANCH  13  15
HETATM   15  O   UNK N   1      35.176  19.035   8.537  0.00  0.00    -0.307 OA
HETATM   16  H   UNK N   1      35.961  19.323   9.028  0.00  0.00     0.222 HD
ENDBRANCH  13  15
BRANCH  13  17
HETATM   17  O   UNK N   1      35.299  16.178   8.305  0.00  0.00    -0.195 OA
BRANCH  17  18
HETATM   18  P   UNK N   1      35.394  15.889  10.032  0.00  0.00     0.399 P 
HETATM   19  O   UNK N   1      34.485  14.706  10.464  0.00  0.00    -0.631 OA
BRANCH  18  20
HETATM   20  O   UNK N   1      34.921  17.292  10.939  0.00  0.00    -0.307 OA
HETATM   21  H   UNK N   1      35.389  17.949  11.476  0.00  0.00     0.222 HD
ENDBRANCH  18  20
BRANCH  18  22
HETATM   22  O   UNK N   1      37.008  15.424  10.466  0.00  0.00    -0.307 OA
HETATM   23  H   UNK N   1      37.457  15.866  11.203  0.00  0.00     0.222 HD
ENDBRANCH  18  22
ENDBRANCH  17  18
ENDBRANCH  13  17
ENDBRANCH  12  13
ENDBRANCH   8  12
ENDBRANCH   7   8
ENDBRANCH   6   7
ENDBRANCH   4   6
BRANCH   1  24
HETATM   24  N   UNK N   1      26.137  19.599   4.137  0.00  0.00    -0.300 N 
HETATM   25  C   UNK N   1      26.070  20.482   3.109  0.00  0.00     0.188 A 
HETATM   26  N   UNK N   1      24.792  20.614   2.653  0.00  0.00    -0.346 N 
HETATM   27  C   UNK N   1      24.073  19.790   3.439  0.00  0.00     0.122 A 
ATOM     28  HN  UNK N   1      24.457  21.203   1.890  1.00  0.00     0.167 HD
HETATM   29  C   UNK N   1      24.882  19.177   4.321  0.00  0.00     0.142 A 
HETATM   30  C   UNK N   1      22.711  19.539   3.455  0.00  0.00     0.131 A 
HETATM   31  N   UNK N   1      24.426  18.304   5.250  0.00  0.00    -0.336 N 
HETATM   32  C   UNK N   1      23.081  18.044   5.277  0.00  0.00     0.183 A 
ATOM     33  HN  UNK N   1      25.061  17.854   5.909  1.00  0.00     0.168 HD
HETATM   34  N   UNK N   1      22.234  18.660   4.387  0.00  0.00    -0.337 N 
ATOM     35  HN  UNK N   1      21.235  18.457   4.422  1.00  0.00     0.168 HD
BRANCH  30  36
HETATM   36  N   UNK N   1      21.836  20.178   2.554  0.00  0.00    -0.383 N 
HETATM   37  H   UNK N   1      21.271  19.643   1.951  0.00  0.00     0.157 HD
HETATM   38  H   UNK N   1      21.791  21.161   2.527  0.00  0.00     0.157 HD
ENDBRANCH  30  36
ENDBRANCH   1  24
TORSDOF 13
ENDMDL
MODEL 5
REMARK VINA RESULT:      -7.1      9.296     13.078
REMARK  13 active torsions:
REMARK  status: ('A' for Active; 'I' for Inactive)
REMARK    1  A    between atoms: N_1  and  C_2 
REMARK    2  A    between atoms: C_14  and  N_13 
REMARK    3  A    between atoms: C_17  and  C_18 
REMARK    4  A    between atoms: C_18  and  O_19 
REMARK    5  A    between atoms: P_20  and  O_19 
REMARK    6  A    between atoms: P_20  and  O_21 
REMARK    7  A    between atoms: P_20  and  O_23 
REMARK    8  A    between atoms: P_24  and  O_23 
REMARK    9  A    between atoms: P_24  and  O_25 
REMARK   10  A    between atoms: P_24  and  O_27 
REMARK   11  A    between atoms: O_27  and  P_28 
REMARK   12  A    between atoms: P_28  and  O_29 
REMARK   13  A    between atoms: P_28  and  O_30 
ROOT
HETATM    1  C   UNK N   1      32.267  16.562   7.379  0.00  0.00     0.231 C 
HETATM    2  C   UNK N   1      33.201  16.224   6.228  0.00  0.00     0.057 C 
HETATM    3  C   UNK N   1      34.431  17.038   6.513  0.00  0.00     0.038 C 
HETATM    4  C   UNK N   1      34.211  17.511   7.931  0.00  0.00     0.148 C 
HETATM    5  O   UNK N   1      32.825  17.604   8.140  0.00  0.00    -0.359 OA
ENDROOT
BRANCH   4   6
HETATM    6  C   UNK N   1      34.884  16.585   8.957  0.00  0.00     0.212 C 
BRANCH   6   7
HETATM    7  O   UNK N   1      35.083  17.226  10.190  0.00  0.00    -0.294 OA
BRANCH   7   8
HETATM    8  P   UNK N   1      35.382  15.952  11.335  0.00  0.00     0.401 P 
HETATM    9  O   UNK N   1      36.458  15.642  10.258  0.00  0.00    -0.631 OA
BRANCH   8  10
HETATM   10  O   UNK N   1      33.817  15.740  10.616  0.00  0.00    -0.307 OA
HETATM   11  H   UNK N   1      33.094  16.327  10.345  0.00  0.00     0.222 HD
ENDBRANCH   8  10
BRANCH   8  12
HETATM   12  O   UNK N   1      35.031  14.290  10.965  0.00  0.00    -0.195 OA
BRANCH  12  13
HETATM   13  P   UNK N   1      35.813  13.358  12.210  0.00  0.00     0.410 P 
HETATM   14  O   UNK N   1      35.340  11.891  12.012  0.00  0.00    -0.631 OA
BRANCH  13  15
HETATM   15  O   UNK N   1      37.541  13.409  12.032  0.00  0.00    -0.307 OA
HETATM   16  H   UNK N   1      38.247  13.352  11.370  0.00  0.00     0.222 HD
ENDBRANCH  13  15
BRANCH  13  17
HETATM   17  O   UNK N   1      35.339  13.971  13.784  0.00  0.00    -0.195 OA
BRANCH  17  18
HETATM   18  P   UNK N   1      36.411  13.387  15.042  0.00  0.00     0.399 P 
HETATM   19  O   UNK N   1      35.627  12.989  16.322  0.00  0.00    -0.631 OA
BRANCH  18  20
HETATM   20  O   UNK N   1      37.589  14.585  15.481  0.00  0.00    -0.307 OA
HETATM   21  H   UNK N   1      38.422  14.899  15.097  0.00  0.00     0.222 HD
ENDBRANCH  18  20
BRANCH  18  22
HETATM   22  O   UNK N   1      37.211  11.942  14.514  0.00  0.00    -0.307 OA
HETATM   23  H   UNK N   1      38.073  11.999  14.073  0.00  0.00     0.222 HD
ENDBRANCH  18  22
ENDBRANCH  17  18
ENDBRANCH  13  17
ENDBRANCH  12  13
ENDBRANCH   8  12
ENDBRANCH   7   8
ENDBRANCH   6   7
ENDBRANCH   4   6
BRANCH   1  24
HETATM   24  N   UNK N   1      30.947  16.916   6.881  0.00  0.00    -0.300 N 
HETATM   25  C   UNK N   1      30.499  16.740   5.613  0.00  0.00     0.188 A 
HETATM   26  N   UNK N   1      29.230  17.216   5.466  0.00  0.00    -0.346 N 
HETATM   27  C   UNK N   1      28.914  17.699   6.683  0.00  0.00     0.122 A 
ATOM     28  HN  UNK N   1      28.651  17.209   4.626  1.00  0.00     0.167 HD
HETATM   29  C   UNK N   1      29.942  17.510   7.530  0.00  0.00     0.142 A 
HETATM   30  C   UNK N   1      27.762  18.330   7.119  0.00  0.00     0.131 A 
HETATM   31  N   UNK N   1      29.910  17.916   8.823  0.00  0.00    -0.336 N 
HETATM   32  C   UNK N   1      28.776  18.540   9.269  0.00  0.00     0.183 A 
ATOM     33  HN  UNK N   1      30.704  17.762   9.444  1.00  0.00     0.168 HD
HETATM   34  N   UNK N   1      27.714  18.746   8.421  0.00  0.00    -0.337 N 
ATOM     35  HN  UNK N   1      26.877  19.215   8.768  1.00  0.00     0.168 HD
BRANCH  30  36
HETATM   36  N   UNK N   1      26.675  18.556   6.251  0.00  0.00    -0.383 N 
HETATM   37  H   UNK N   1      25.898  17.952   6.264  0.00  0.00     0.157 HD
HETATM   38  H   UNK N   1      26.694  19.320   5.629  0.00  0.00     0.157 HD
ENDBRANCH  30  36
ENDBRANCH   1  24
TORSDOF 13
ENDMDL
MODEL 6
REMARK VINA RESULT:      -7.1      9.671     13.068
REMARK  13 active torsions:
REMARK  status: ('A' for Active; 'I' for Inactive)
REMARK    1  A    between atoms: N_1  and  C_2 
REMARK    2  A    between atoms: C_14  and  N_13 
REMARK    3  A    between atoms: C_17  and  C_18 
REMARK    4  A    between atoms: C_18  and  O_19 
REMARK    5  A    between atoms: P_20  and  O_19 
REMARK    6  A    between atoms: P_20  and  O_21 
REMARK    7  A    between atoms: P_20  and  O_23 
REMARK    8  A    between atoms: P_24  and  O_23 
REMARK    9  A    between atoms: P_24  and  O_25 
REMARK   10  A    between atoms: P_24  and  O_27 
REMARK   11  A    between atoms: O_27  and  P_28 
REMARK   12  A    between atoms: P_28  and  O_29 
REMARK   13  A    between atoms: P_28  and  O_30 
ROOT
HETATM    1  C   UNK N   1      32.225  16.164   7.923  0.00  0.00     0.231 C 
HETATM    2  C   UNK N   1      33.265  15.776   6.885  0.00  0.00     0.057 C 
HETATM    3  C   UNK N   1      34.535  16.391   7.402  0.00  0.00     0.038 C 
HETATM    4  C   UNK N   1      34.173  16.796   8.812  0.00  0.00     0.148 C 
HETATM    5  O   UNK N   1      32.795  17.067   8.837  0.00  0.00    -0.359 OA
ENDROOT
BRANCH   4   6
HETATM    6  C   UNK N   1      34.564  15.721   9.838  0.00  0.00     0.212 C 
BRANCH   6   7
HETATM    7  O   UNK N   1      35.826  15.170   9.562  0.00  0.00    -0.294 OA
BRANCH   7   8
HETATM    8  P   UNK N   1      36.303  14.347  11.017  0.00  0.00     0.401 P 
HETATM    9  O   UNK N   1      34.756  14.273  11.128  0.00  0.00    -0.631 OA
BRANCH   8  10
HETATM   10  O   UNK N   1      36.776  16.014  11.105  0.00  0.00    -0.307 OA
HETATM   11  H   UNK N   1      36.982  16.710  10.460  0.00  0.00     0.222 HD
ENDBRANCH   8  10
BRANCH   8  12
HETATM   12  O   UNK N   1      36.038  15.041  12.589  0.00  0.00    -0.195 OA
BRANCH  12  13
HETATM   13  P   UNK N   1      36.291  13.745  13.723  0.00  0.00     0.410 P 
HETATM   14  O   UNK N   1      37.053  12.636  12.946  0.00  0.00    -0.631 OA
BRANCH  13  15
HETATM   15  O   UNK N   1      37.281  14.265  15.053  0.00  0.00    -0.307 OA
HETATM   16  H   UNK N   1      37.242  14.504  15.992  0.00  0.00     0.222 HD
ENDBRANCH  13  15
BRANCH  13  17
HETATM   17  O   UNK N   1      34.740  13.163  14.301  0.00  0.00    -0.195 OA
BRANCH  17  18
HETATM   18  P   UNK N   1      34.482  11.488  13.852  0.00  0.00     0.399 P 
HETATM   19  O   UNK N   1      33.176  10.924  14.474  0.00  0.00    -0.631 OA
BRANCH  18  20
HETATM   20  O   UNK N   1      35.802  10.481  14.363  0.00  0.00    -0.307 OA
HETATM   21  H   UNK N   1      36.717  10.641  14.641  0.00  0.00     0.222 HD
ENDBRANCH  18  20
BRANCH  18  22
HETATM   22  O   UNK N   1      34.277  11.361  12.134  0.00  0.00    -0.307 OA
HETATM   23  H   UNK N   1      35.035  11.497  11.544  0.00  0.00     0.222 HD
ENDBRANCH  18  22
ENDBRANCH  17  18
ENDBRANCH  13  17
ENDBRANCH  12  13
ENDBRANCH   8  12
ENDBRANCH   7   8
ENDBRANCH   6   7
ENDBRANCH   4   6
BRANCH   1  24
HETATM   24  N   UNK N   1      31.048  16.731   7.282  0.00  0.00    -0.300 N 
HETATM   25  C   UNK N   1      30.813  16.780   5.947  0.00  0.00     0.188 A 
HETATM   26  N   UNK N   1      29.636  17.413   5.675  0.00  0.00    -0.346 N 
HETATM   27  C   UNK N   1      29.158  17.758   6.886  0.00  0.00     0.122 A 
ATOM     28  HN  UNK N   1      29.214  17.585   4.763  1.00  0.00     0.167 HD
HETATM   29  C   UNK N   1      30.002  17.341   7.847  0.00  0.00     0.142 A 
HETATM   30  C   UNK N   1      28.008  18.451   7.225  0.00  0.00     0.131 A 
HETATM   31  N   UNK N   1      29.783  17.568   9.164  0.00  0.00    -0.336 N 
HETATM   32  C   UNK N   1      28.648  18.251   9.515  0.00  0.00     0.183 A 
ATOM     33  HN  UNK N   1      30.440  17.242   9.873  1.00  0.00     0.168 HD
HETATM   34  N   UNK N   1      27.772  18.689   8.550  0.00  0.00    -0.337 N 
ATOM     35  HN  UNK N   1      26.933  19.198   8.828  1.00  0.00     0.168 HD
BRANCH  30  36
HETATM   36  N   UNK N   1      27.113  18.914   6.240  0.00  0.00    -0.383 N 
HETATM   37  H   UNK N   1      26.936  18.372   5.439  0.00  0.00     0.157 HD
HETATM   38  H   UNK N   1      26.665  19.784   6.354  0.00  0.00     0.157 HD
ENDBRANCH  30  36
ENDBRANCH   1  24
TORSDOF 13
ENDMDL
MODEL 7
REMARK VINA RESULT:      -7.0     10.161     13.256
REMARK  13 active torsions:
REMARK  status: ('A' for Active; 'I' for Inactive)
REMARK    1  A    between atoms: N_1  and  C_2 
REMARK    2  A    between atoms: C_14  and  N_13 
REMARK    3  A    between atoms: C_17  and  C_18 
REMARK    4  A    between atoms: C_18  and  O_19 
REMARK    5  A    between atoms: P_20  and  O_19 
REMARK    6  A    between atoms: P_20  and  O_21 
REMARK    7  A    between atoms: P_20  and  O_23 
REMARK    8  A    between atoms: P_24  and  O_23 
REMARK    9  A    between atoms: P_24  and  O_25 
REMARK   10  A    between atoms: P_24  and  O_27 
REMARK   11  A    between atoms: O_27  and  P_28 
REMARK   12  A    between atoms: P_28  and  O_29 
REMARK   13  A    between atoms: P_28  and  O_30 
ROOT
HETATM    1  C   UNK N   1      35.876  13.697  15.356  0.00  0.00     0.231 C 
HETATM    2  C   UNK N   1      37.128  12.998  14.850  0.00  0.00     0.057 C 
HETATM    3  C   UNK N   1      36.712  12.433  13.522  0.00  0.00     0.038 C 
HETATM    4  C   UNK N   1      35.388  13.112  13.257  0.00  0.00     0.148 C 
HETATM    5  O   UNK N   1      34.801  13.401  14.500  0.00  0.00    -0.359 OA
ENDROOT
BRANCH   4   6
HETATM    6  C   UNK N   1      35.552  14.372  12.394  0.00  0.00     0.212 C 
BRANCH   6   7
HETATM    7  O   UNK N   1      34.591  14.435  11.372  0.00  0.00    -0.294 OA
BRANCH   7   8
HETATM    8  P   UNK N   1      35.243  15.525  10.185  0.00  0.00     0.401 P 
HETATM    9  O   UNK N   1      35.967  16.016  11.469  0.00  0.00    -0.631 OA
BRANCH   8  10
HETATM   10  O   UNK N   1      33.543  15.814  10.376  0.00  0.00    -0.307 OA
HETATM   11  H   UNK N   1      32.744  15.603   9.868  0.00  0.00     0.222 HD
ENDBRANCH   8  10
BRANCH   8  12
HETATM   12  O   UNK N   1      34.842  17.218  10.180  0.00  0.00    -0.195 OA
BRANCH  12  13
HETATM   13  P   UNK N   1      34.349  17.577   8.551  0.00  0.00     0.410 P 
HETATM   14  O   UNK N   1      35.190  18.806   8.107  0.00  0.00    -0.631 OA
BRANCH  13  15
HETATM   15  O   UNK N   1      34.704  16.251   7.486  0.00  0.00    -0.307 OA
HETATM   16  H   UNK N   1      34.283  15.547   6.968  0.00  0.00     0.222 HD
ENDBRANCH  13  15
BRANCH  13  17
HETATM   17  O   UNK N   1      32.632  17.942   8.527  0.00  0.00    -0.195 OA
BRANCH  17  18
HETATM   18  P   UNK N   1      31.771  16.876   7.434  0.00  0.00     0.399 P 
HETATM   19  O   UNK N   1      31.915  15.388   7.854  0.00  0.00    -0.631 OA
BRANCH  18  20
HETATM   20  O   UNK N   1      32.349  17.034   5.804  0.00  0.00    -0.307 OA
HETATM   21  H   UNK N   1      32.246  17.696   5.102  0.00  0.00     0.222 HD
ENDBRANCH  18  20
BRANCH  18  22
HETATM   22  O   UNK N   1      30.072  17.218   7.491  0.00  0.00    -0.307 OA
HETATM   23  H   UNK N   1      29.566  17.028   8.297  0.00  0.00     0.222 HD
ENDBRANCH  18  22
ENDBRANCH  17  18
ENDBRANCH  13  17
ENDBRANCH  12  13
ENDBRANCH   8  12
ENDBRANCH   7   8
ENDBRANCH   6   7
ENDBRANCH   4   6
BRANCH   1  24
HETATM   24  N   UNK N   1      35.587  13.303  16.726  0.00  0.00    -0.300 N 
HETATM   25  C   UNK N   1      35.571  14.124  17.806  0.00  0.00     0.188 A 
HETATM   26  N   UNK N   1      35.305  13.431  18.950  0.00  0.00    -0.346 N 
HETATM   27  C   UNK N   1      35.164  12.156  18.540  0.00  0.00     0.122 A 
ATOM     28  HN  UNK N   1      35.229  13.796  19.900  1.00  0.00     0.167 HD
HETATM   29  C   UNK N   1      35.325  12.084  17.207  0.00  0.00     0.142 A 
HETATM   30  C   UNK N   1      34.914  11.008  19.272  0.00  0.00     0.131 A 
HETATM   31  N   UNK N   1      35.256  10.917  16.522  0.00  0.00    -0.336 N 
HETATM   32  C   UNK N   1      35.008   9.773  17.233  0.00  0.00     0.183 A 
ATOM     33  HN  UNK N   1      35.384  10.890  15.511  1.00  0.00     0.168 HD
HETATM   34  N   UNK N   1      34.841   9.822  18.597  0.00  0.00    -0.337 N 
ATOM     35  HN  UNK N   1      34.659   8.960  19.112  1.00  0.00     0.168 HD
BRANCH  30  36
HETATM   36  N   UNK N   1      34.757  11.050  20.672  0.00  0.00    -0.383 N 
HETATM   37  H   UNK N   1      35.520  11.281  21.249  0.00  0.00     0.157 HD
HETATM   38  H   UNK N   1      33.880  10.847  21.074  0.00  0.00     0.157 HD
ENDBRANCH  30  36
ENDBRANCH   1  24
TORSDOF 13
ENDMDL
MODEL 8
REMARK VINA RESULT:      -7.0      6.083     10.348
REMARK  13 active torsions:
REMARK  status: ('A' for Active; 'I' for Inactive)
REMARK    1  A    between atoms: N_1  and  C_2 
REMARK    2  A    between atoms: C_14  and  N_13 
REMARK    3  A    between atoms: C_17  and  C_18 
REMARK    4  A    between atoms: C_18  and  O_19 
REMARK    5  A    between atoms: P_20  and  O_19 
REMARK    6  A    between atoms: P_20  and  O_21 
REMARK    7  A    between atoms: P_20  and  O_23 
REMARK    8  A    between atoms: P_24  and  O_23 
REMARK    9  A    between atoms: P_24  and  O_25 
REMARK   10  A    between atoms: P_24  and  O_27 
REMARK   11  A    between atoms: O_27  and  P_28 
REMARK   12  A    between atoms: P_28  and  O_29 
REMARK   13  A    between atoms: P_28  and  O_30 
ROOT
HETATM    1  C   UNK N   1      27.009  19.140   4.451  0.00  0.00     0.231 C 
HETATM    2  C   UNK N   1      27.448  20.178   5.471  0.00  0.00     0.057 C 
HETATM    3  C   UNK N   1      27.819  19.362   6.677  0.00  0.00     0.038 C 
HETATM    4  C   UNK N   1      27.854  17.950   6.141  0.00  0.00     0.148 C 
HETATM    5  O   UNK N   1      26.950  17.878   5.068  0.00  0.00    -0.359 OA
ENDROOT
BRANCH   4   6
HETATM    6  C   UNK N   1      29.272  17.529   5.724  0.00  0.00     0.212 C 
BRANCH   6   7
HETATM    7  O   UNK N   1      29.598  16.247   6.196  0.00  0.00    -0.294 OA
BRANCH   7   8
HETATM    8  P   UNK N   1      31.158  15.885   5.521  0.00  0.00     0.401 P 
HETATM    9  O   UNK N   1      30.843  14.559   6.267  0.00  0.00    -0.631 OA
BRANCH   8  10
HETATM   10  O   UNK N   1      31.308  17.150   6.699  0.00  0.00    -0.307 OA
HETATM   11  H   UNK N   1      30.691  17.686   7.222  0.00  0.00     0.222 HD
ENDBRANCH   8  10
BRANCH   8  12
HETATM   12  O   UNK N   1      32.569  15.709   6.523  0.00  0.00    -0.195 OA
BRANCH  12  13
HETATM   13  P   UNK N   1      33.770  16.761   5.829  0.00  0.00     0.410 P 
HETATM   14  O   UNK N   1      34.943  15.843   5.386  0.00  0.00    -0.631 OA
BRANCH  13  15
HETATM   15  O   UNK N   1      33.147  17.576   4.426  0.00  0.00    -0.307 OA
HETATM   16  H   UNK N   1      33.371  18.253   3.769  0.00  0.00     0.222 HD
ENDBRANCH  13  15
BRANCH  13  17
HETATM   17  O   UNK N   1      34.294  17.924   7.034  0.00  0.00    -0.195 OA
BRANCH  17  18
HETATM   18  P   UNK N   1      34.402  17.188   8.622  0.00  0.00     0.399 P 
HETATM   19  O   UNK N   1      35.294  18.024   9.580  0.00  0.00    -0.631 OA
BRANCH  18  20
HETATM   20  O   UNK N   1      35.058  15.583   8.537  0.00  0.00    -0.307 OA
HETATM   21  H   UNK N   1      34.818  14.724   8.919  0.00  0.00     0.222 HD
ENDBRANCH  18  20
BRANCH  18  22
HETATM   22  O   UNK N   1      32.833  17.144   9.361  0.00  0.00    -0.307 OA
HETATM   23  H   UNK N   1      32.287  16.345   9.291  0.00  0.00     0.222 HD
ENDBRANCH  18  22
ENDBRANCH  17  18
ENDBRANCH  13  17
ENDBRANCH  12  13
ENDBRANCH   8  12
ENDBRANCH   7   8
ENDBRANCH   6   7
ENDBRANCH   4   6
BRANCH   1  24
HETATM   24  N   UNK N   1      25.727  19.505   3.867  0.00  0.00    -0.300 N 
HETATM   25  C   UNK N   1      25.534  20.385   2.852  0.00  0.00     0.188 A 
HETATM   26  N   UNK N   1      24.209  20.532   2.570  0.00  0.00    -0.346 N 
HETATM   27  C   UNK N   1      23.591  19.720   3.450  0.00  0.00     0.122 A 
ATOM     28  HN  UNK N   1      23.782  21.122   1.857  1.00  0.00     0.167 HD
HETATM   29  C   UNK N   1      24.504  19.100   4.219  0.00  0.00     0.142 A 
HETATM   30  C   UNK N   1      22.241  19.485   3.649  0.00  0.00     0.131 A 
HETATM   31  N   UNK N   1      24.165  18.235   5.206  0.00  0.00    -0.336 N 
HETATM   32  C   UNK N   1      22.833  17.993   5.413  0.00  0.00     0.183 A 
ATOM     33  HN  UNK N   1      24.877  17.780   5.776  1.00  0.00     0.168 HD
HETATM   34  N   UNK N   1      21.882  18.616   4.641  0.00  0.00    -0.337 N 
ATOM     35  HN  UNK N   1      20.894  18.425   4.810  1.00  0.00     0.168 HD
BRANCH  30  36
HETATM   36  N   UNK N   1      21.261  20.132   2.869  0.00  0.00    -0.383 N 
HETATM   37  H   UNK N   1      20.343  19.779   2.837  0.00  0.00     0.157 HD
HETATM   38  H   UNK N   1      21.496  20.938   2.354  0.00  0.00     0.157 HD
ENDBRANCH  30  36
ENDBRANCH   1  24
TORSDOF 13
ENDMDL
MODEL 9
REMARK VINA RESULT:      -6.8      1.823      2.895
REMARK  13 active torsions:
REMARK  status: ('A' for Active; 'I' for Inactive)
REMARK    1  A    between atoms: N_1  and  C_2 
REMARK    2  A    between atoms: C_14  and  N_13 
REMARK    3  A    between atoms: C_17  and  C_18 
REMARK    4  A    between atoms: C_18  and  O_19 
REMARK    5  A    between atoms: P_20  and  O_19 
REMARK    6  A    between atoms: P_20  and  O_21 
REMARK    7  A    between atoms: P_20  and  O_23 
REMARK    8  A    between atoms: P_24  and  O_23 
REMARK    9  A    between atoms: P_24  and  O_25 
REMARK   10  A    between atoms: P_24  and  O_27 
REMARK   11  A    between atoms: O_27  and  P_28 
REMARK   12  A    between atoms: P_28  and  O_29 
REMARK   13  A    between atoms: P_28  and  O_30 
ROOT
HETATM    1  C   UNK N   1      27.727  18.401   6.932  0.00  0.00     0.231 C 
HETATM    2  C   UNK N   1      27.711  19.845   6.456  0.00  0.00     0.057 C 
HETATM    3  C   UNK N   1      27.426  19.736   4.986  0.00  0.00     0.038 C 
HETATM    4  C   UNK N   1      27.004  18.294   4.822  0.00  0.00     0.148 C 
HETATM    5  O   UNK N   1      27.651  17.545   5.819  0.00  0.00    -0.359 OA
ENDROOT
BRANCH   4   6
HETATM    6  C   UNK N   1      25.478  18.131   4.882  0.00  0.00     0.212 C 
BRANCH   6   7
HETATM    7  O   UNK N   1      25.096  16.780   4.893  0.00  0.00    -0.294 OA
BRANCH   7   8
HETATM    8  P   UNK N   1      23.383  16.783   5.194  0.00  0.00     0.401 P 
HETATM    9  O   UNK N   1      23.644  15.267   4.979  0.00  0.00    -0.631 OA
BRANCH   8  10
HETATM   10  O   UNK N   1      23.718  17.609   3.705  0.00  0.00    -0.307 OA
HETATM   11  H   UNK N   1      23.568  18.503   3.361  0.00  0.00     0.222 HD
ENDBRANCH   8  10
BRANCH   8  12
HETATM   12  O   UNK N   1      22.234  16.410   3.943  0.00  0.00    -0.195 OA
BRANCH  12  13
HETATM   13  P   UNK N   1      21.042  17.676   4.009  0.00  0.00     0.410 P 
HETATM   14  O   UNK N   1      19.690  16.979   4.325  0.00  0.00    -0.631 OA
BRANCH  13  15
HETATM   15  O   UNK N   1      21.396  18.798   5.288  0.00  0.00    -0.307 OA
HETATM   16  H   UNK N   1      21.022  19.189   6.092  0.00  0.00     0.222 HD
ENDBRANCH  13  15
BRANCH  13  17
HETATM   17  O   UNK N   1      20.983  18.504   2.464  0.00  0.00    -0.195 OA
BRANCH  17  18
HETATM   18  P   UNK N   1      21.344  20.211   2.643  0.00  0.00     0.399 P 
HETATM   19  O   UNK N   1      22.788  20.437   3.168  0.00  0.00    -0.631 OA
BRANCH  18  20
HETATM   20  O   UNK N   1      20.243  20.982   3.742  0.00  0.00    -0.307 OA
HETATM   21  H   UNK N   1      19.619  21.722   3.679  0.00  0.00     0.222 HD
ENDBRANCH  18  20
BRANCH  18  22
HETATM   22  O   UNK N   1      21.278  20.994   1.097  0.00  0.00    -0.307 OA
HETATM   23  H   UNK N   1      21.166  20.467   0.291  0.00  0.00     0.222 HD
ENDBRANCH  18  22
ENDBRANCH  17  18
ENDBRANCH  13  17
ENDBRANCH  12  13
ENDBRANCH   8  12
ENDBRANCH   7   8
ENDBRANCH   6   7
ENDBRANCH   4   6
BRANCH   1  24
HETATM   24  N   UNK N   1      28.918  18.135   7.724  0.00  0.00    -0.300 N 
HETATM   25  C   UNK N   1      29.067  18.385   9.050  0.00  0.00     0.188 A 
HETATM   26  N   UNK N   1      30.319  18.057   9.477  0.00  0.00    -0.346 N 
HETATM   27  C   UNK N   1      30.939  17.605   8.371  0.00  0.00     0.122 A 
ATOM     28  HN  UNK N   1      30.699  18.137  10.420  1.00  0.00     0.167 HD
HETATM   29  C   UNK N   1      30.095  17.645   7.325  0.00  0.00     0.142 A 
HETATM   30  C   UNK N   1      32.239  17.161   8.197  0.00  0.00     0.131 A 
HETATM   31  N   UNK N   1      30.457  17.265   6.075  0.00  0.00    -0.336 N 
HETATM   32  C   UNK N   1      31.739  16.822   5.889  0.00  0.00     0.183 A 
ATOM     33  HN  UNK N   1      29.797  17.307   5.299  1.00  0.00     0.168 HD
HETATM   34  N   UNK N   1      32.620  16.774   6.943  0.00  0.00    -0.337 N 
ATOM     35  HN  UNK N   1      33.573  16.443   6.786  1.00  0.00     0.168 HD
BRANCH  30  36
HETATM   36  N   UNK N   1      33.151  17.123   9.271  0.00  0.00    -0.383 N 
HETATM   37  H   UNK N   1      33.456  16.258   9.629  0.00  0.00     0.157 HD
HETATM   38  H   UNK N   1      33.483  17.963   9.664  0.00  0.00     0.157 HD
ENDBRANCH  30  36
ENDBRANCH   1  24
TORSDOF 13
ENDMDL
