MODEL 1
REMARK VINA RESULT:      -6.6      0.000      0.000
REMARK  10 active torsions:
REMARK  status: ('A' for Active; 'I' for Inactive)
REMARK    1  A    between atoms: C_4  and  C_3 
REMARK    2  A    between atoms: O_21  and  C_3 
REMARK    3  A    between atoms: N_10  and  C_5 
REMARK    4  A    between atoms: C_6  and  O_15 
REMARK    5  A    between atoms: C_7  and  O_16 
REMARK    6  A    between atoms: C_8  and  N_14 
REMARK    7  A    between atoms: O_17  and  C_9 
REMARK    8  A    between atoms: P_23  and  O_18 
REMARK    9  A    between atoms: P_23  and  O_19 
REMARK   10  A    between atoms: P_23  and  O_21 
ROOT
HETATM    1  C   UNK N   1      36.231  15.520  10.675  0.00  0.00     0.180 C 
HETATM    2  C   UNK N   1      36.411  14.156   9.975  0.00  0.00     0.182 C 
HETATM    3  C   UNK N   1      36.646  13.236  11.153  0.00  0.00     0.198 C 
HETATM    4  C   UNK N   1      35.634  13.888  12.093  0.00  0.00     0.262 C 
HETATM    5  O   UNK N   1      35.962  15.257  12.039  0.00  0.00    -0.353 OA
ENDROOT
BRANCH   4   6
HETATM    6  N   UNK N   1      35.511  13.442  13.496  0.00  0.00    -0.293 N 
HETATM    7  C   UNK N   1      34.633  12.416  13.702  0.00  0.00     0.101 A 
HETATM    8  C   UNK N   1      34.449  11.864  14.961  0.00  0.00     0.065 A 
HETATM    9  C   UNK N   1      35.187  12.373  16.016  0.00  0.00     0.102 A 
HETATM   10  N   UNK N   1      36.060  13.389  15.802  0.00  0.00    -0.308 N 
HETATM   11  C   UNK N   1      36.233  13.929  14.563  0.00  0.00     0.227 A 
ATOM     12  HN  UNK N   1      36.599  13.758  16.586  1.00  0.00     0.171 HD
BRANCH   9  13
HETATM   13  N   UNK N   1      35.053  11.877  17.185  0.00  0.00    -0.385 N 
HETATM   14  H   UNK N   1      35.435  12.340  17.966  0.00  0.00     0.157 HD
ATOM     15  HN  UNK N   1      34.550  11.000  17.310  1.00  0.00     0.157 HD
ENDBRANCH   9  13
BRANCH  11  16
HETATM   16  O   UNK N   1      37.136  14.910  14.411  0.00  0.00    -0.332 OA
HETATM   17  H   UNK N   1      37.715  15.135  15.113  0.00  0.00     0.221 HD
ENDBRANCH  11  16
ENDBRANCH   4   6
BRANCH   3  18
HETATM   18  O   UNK N   1      37.947  13.409  11.644  0.00  0.00    -0.388 OA
HETATM   19  H   UNK N   1      38.580  13.881  12.205  0.00  0.00     0.210 HD
ENDBRANCH   3  18
BRANCH   2  20
HETATM   20  O   UNK N   1      37.453  14.142   9.044  0.00  0.00    -0.390 OA
HETATM   21  H   UNK N   1      37.683  13.348   8.535  0.00  0.00     0.210 HD
ENDBRANCH   2  20
BRANCH   1  22
HETATM   22  C   UNK N   1      35.024  16.299  10.161  0.00  0.00     0.215 C 
BRANCH  22  23
HETATM   23  O   UNK N   1      35.340  17.548   9.622  0.00  0.00    -0.294 OA
BRANCH  23  24
HETATM   24  P   UNK N   1      34.088  17.850   8.450  0.00  0.00     0.390 P 
HETATM   25  O   UNK N   1      34.968  19.122   8.341  0.00  0.00    -0.632 OA
BRANCH  24  26
HETATM   26  O   UNK N   1      34.420  17.956   6.751  0.00  0.00    -0.307 OA
HETATM   27  H   UNK N   1      34.356  18.753   6.203  0.00  0.00     0.222 HD
ENDBRANCH  24  26
BRANCH  24  28
HETATM   28  O   UNK N   1      34.999  16.482   7.873  0.00  0.00    -0.307 OA
HETATM   29  H   UNK N   1      35.344  15.908   7.172  0.00  0.00     0.222 HD
ENDBRANCH  24  28
ENDBRANCH  23  24
ENDBRANCH  22  23
ENDBRANCH   1  22
TORSDOF 10
ENDMDL
MODEL 2
REMARK VINA RESULT:      -6.4      3.816      5.517
REMARK  10 active torsions:
REMARK  status: ('A' for Active; 'I' for Inactive)
REMARK    1  A    between atoms: C_4  and  C_3 
REMARK    2  A    between atoms: O_21  and  C_3 
REMARK    3  A    between atoms: N_10  and  C_5 
REMARK    4  A    between atoms: C_6  and  O_15 
REMARK    5  A    between atoms: C_7  and  O_16 
REMARK    6  A    between atoms: C_8  and  N_14 
REMARK    7  A    between atoms: O_17  and  C_9 
REMARK    8  A    between atoms: P_23  and  O_18 
REMARK    9  A    between atoms: P_23  and  O_19 
REMARK   10  A    between atoms: P_23  and  O_21 
ROOT
HETATM    1  C   UNK N   1      32.325  17.868   8.088  0.00  0.00     0.180 C 
HETATM    2  C   UNK N   1      32.448  16.791   6.989  0.00  0.00     0.182 C 
HETATM    3  C   UNK N   1      33.697  16.053   7.423  0.00  0.00     0.198 C 
HETATM    4  C   UNK N   1      33.416  16.096   8.923  0.00  0.00     0.262 C 
HETATM    5  O   UNK N   1      33.133  17.453   9.172  0.00  0.00    -0.353 OA
ENDROOT
BRANCH   4   6
HETATM    6  N   UNK N   1      34.411  15.590   9.891  0.00  0.00    -0.293 N 
HETATM    7  C   UNK N   1      34.276  14.272  10.224  0.00  0.00     0.101 A 
HETATM    8  C   UNK N   1      35.167  13.650  11.086  0.00  0.00     0.065 A 
HETATM    9  C   UNK N   1      36.212  14.397  11.603  0.00  0.00     0.102 A 
HETATM   10  N   UNK N   1      36.341  15.704  11.264  0.00  0.00    -0.308 N 
HETATM   11  C   UNK N   1      35.461  16.309  10.419  0.00  0.00     0.227 A 
ATOM     12  HN  UNK N   1      37.114  16.246  11.651  1.00  0.00     0.171 HD
BRANCH   9  13
HETATM   13  N   UNK N   1      37.058  13.850  12.388  0.00  0.00    -0.385 N 
HETATM   14  H   UNK N   1      37.398  14.342  13.170  0.00  0.00     0.157 HD
ATOM     15  HN  UNK N   1      37.384  12.902  12.204  1.00  0.00     0.157 HD
ENDBRANCH   9  13
BRANCH  11  16
HETATM   16  O   UNK N   1      35.661  17.597  10.098  0.00  0.00    -0.332 OA
HETATM   17  H   UNK N   1      34.936  18.186  10.025  0.00  0.00     0.221 HD
ENDBRANCH  11  16
ENDBRANCH   4   6
BRANCH   3  18
HETATM   18  O   UNK N   1      34.834  16.815   7.119  0.00  0.00    -0.388 OA
HETATM   19  H   UNK N   1      35.646  17.265   7.398  0.00  0.00     0.210 HD
ENDBRANCH   3  18
BRANCH   2  20
HETATM   20  O   UNK N   1      32.538  17.321   5.699  0.00  0.00    -0.390 OA
HETATM   21  H   UNK N   1      33.158  16.973   5.038  0.00  0.00     0.210 HD
ENDBRANCH   2  20
BRANCH   1  22
HETATM   22  C   UNK N   1      30.911  17.985   8.651  0.00  0.00     0.215 C 
BRANCH  22  23
HETATM   23  O   UNK N   1      29.916  17.517   7.790  0.00  0.00    -0.294 OA
BRANCH  23  24
HETATM   24  P   UNK N   1      28.538  18.529   8.121  0.00  0.00     0.390 P 
HETATM   25  O   UNK N   1      27.882  17.217   7.618  0.00  0.00    -0.632 OA
BRANCH  24  26
HETATM   26  O   UNK N   1      27.397  18.155   9.372  0.00  0.00    -0.307 OA
HETATM   27  H   UNK N   1      26.453  18.375   9.371  0.00  0.00     0.222 HD
ENDBRANCH  24  26
BRANCH  24  28
HETATM   28  O   UNK N   1      29.316  18.222   9.648  0.00  0.00    -0.307 OA
HETATM   29  H   UNK N   1      29.307  18.020  10.597  0.00  0.00     0.222 HD
ENDBRANCH  24  28
ENDBRANCH  23  24
ENDBRANCH  22  23
ENDBRANCH   1  22
TORSDOF 10
ENDMDL
MODEL 3
REMARK VINA RESULT:      -6.2      5.247      8.309
REMARK  10 active torsions:
REMARK  status: ('A' for Active; 'I' for Inactive)
REMARK    1  A    between atoms: C_4  and  C_3 
REMARK    2  A    between atoms: O_21  and  C_3 
REMARK    3  A    between atoms: N_10  and  C_5 
REMARK    4  A    between atoms: C_6  and  O_15 
REMARK    5  A    between atoms: C_7  and  O_16 
REMARK    6  A    between atoms: C_8  and  N_14 
REMARK    7  A    between atoms: O_17  and  C_9 
REMARK    8  A    between atoms: P_23  and  O_18 
REMARK    9  A    between atoms: P_23  and  O_19 
REMARK   10  A    between atoms: P_23  and  O_21 
ROOT
HETATM    1  C   UNK N   1      34.548  15.787   8.790  0.00  0.00     0.180 C 
HETATM    2  C   UNK N   1      34.359  17.187   9.413  0.00  0.00     0.182 C 
HETATM    3  C   UNK N   1      33.672  17.932   8.288  0.00  0.00     0.198 C 
HETATM    4  C   UNK N   1      32.781  16.780   7.829  0.00  0.00     0.262 C 
HETATM    5  O   UNK N   1      33.677  15.704   7.678  0.00  0.00    -0.353 OA
ENDROOT
BRANCH   4   6
HETATM    6  N   UNK N   1      31.931  16.917   6.629  0.00  0.00    -0.293 N 
HETATM    7  C   UNK N   1      30.610  17.157   6.880  0.00  0.00     0.101 A 
HETATM    8  C   UNK N   1      29.702  17.352   5.850  0.00  0.00     0.065 A 
HETATM    9  C   UNK N   1      30.168  17.307   4.547  0.00  0.00     0.102 A 
HETATM   10  N   UNK N   1      31.481  17.073   4.306  0.00  0.00    -0.308 N 
HETATM   11  C   UNK N   1      32.367  16.878   5.323  0.00  0.00     0.227 A 
ATOM     12  HN  UNK N   1      31.814  17.041   3.343  1.00  0.00     0.171 HD
BRANCH   9  13
HETATM   13  N   UNK N   1      29.361  17.498   3.575  0.00  0.00    -0.385 N 
HETATM   14  H   UNK N   1      28.408  17.268   3.670  0.00  0.00     0.157 HD
ATOM     15  HN  UNK N   1      29.704  17.889   2.698  1.00  0.00     0.157 HD
ENDBRANCH   9  13
BRANCH  11  16
HETATM   16  O   UNK N   1      33.659  16.683   5.020  0.00  0.00    -0.332 OA
HETATM   17  H   UNK N   1      34.317  17.263   5.351  0.00  0.00     0.221 HD
ENDBRANCH  11  16
ENDBRANCH   4   6
BRANCH   3  18
HETATM   18  O   UNK N   1      34.602  18.255   7.290  0.00  0.00    -0.388 OA
HETATM   19  H   UNK N   1      35.455  18.109   6.854  0.00  0.00     0.210 HD
ENDBRANCH   3  18
BRANCH   2  20
HETATM   20  O   UNK N   1      35.557  17.780   9.821  0.00  0.00    -0.390 OA
HETATM   21  H   UNK N   1      35.704  18.074  10.734  0.00  0.00     0.210 HD
ENDBRANCH   2  20
BRANCH   1  22
HETATM   22  C   UNK N   1      34.128  14.657   9.725  0.00  0.00     0.215 C 
BRANCH  22  23
HETATM   23  O   UNK N   1      34.218  14.978  11.082  0.00  0.00    -0.294 OA
BRANCH  23  24
HETATM   24  P   UNK N   1      35.692  14.220  11.615  0.00  0.00     0.390 P 
HETATM   25  O   UNK N   1      35.877  15.686  12.083  0.00  0.00    -0.632 OA
BRANCH  24  26
HETATM   26  O   UNK N   1      36.087  14.051  13.295  0.00  0.00    -0.307 OA
HETATM   27  H   UNK N   1      35.460  14.042  14.034  0.00  0.00     0.222 HD
ENDBRANCH  24  26
BRANCH  24  28
HETATM   28  O   UNK N   1      34.395  13.496  12.524  0.00  0.00    -0.307 OA
HETATM   29  H   UNK N   1      33.671  13.526  13.170  0.00  0.00     0.222 HD
ENDBRANCH  24  28
ENDBRANCH  23  24
ENDBRANCH  22  23
ENDBRANCH   1  22
TORSDOF 10
ENDMDL
MODEL 4
REMARK VINA RESULT:      -6.2     19.036     21.667
REMARK  10 active torsions:
REMARK  status: ('A' for Active; 'I' for Inactive)
REMARK    1  A    between atoms: C_4  and  C_3 
REMARK    2  A    between atoms: O_21  and  C_3 
REMARK    3  A    between atoms: N_10  and  C_5 
REMARK    4  A    between atoms: C_6  and  O_15 
REMARK    5  A    between atoms: C_7  and  O_16 
REMARK    6  A    between atoms: C_8  and  N_14 
REMARK    7  A    between atoms: O_17  and  C_9 
REMARK    8  A    between atoms: P_23  and  O_18 
REMARK    9  A    between atoms: P_23  and  O_19 
REMARK   10  A    between atoms: P_23  and  O_21 
ROOT
HETATM    1  C   UNK N   1      28.021  23.803  -4.463  0.00  0.00     0.180 C 
HETATM    2  C   UNK N   1      27.608  23.882  -5.949  0.00  0.00     0.182 C 
HETATM    3  C   UNK N   1      26.768  25.141  -5.966  0.00  0.00     0.198 C 
HETATM    4  C   UNK N   1      27.633  25.946  -4.999  0.00  0.00     0.262 C 
HETATM    5  O   UNK N   1      27.799  25.082  -3.900  0.00  0.00    -0.353 OA
ENDROOT
BRANCH   4   6
HETATM    6  N   UNK N   1      27.209  27.285  -4.543  0.00  0.00    -0.293 N 
HETATM    7  C   UNK N   1      27.630  28.323  -5.325  0.00  0.00     0.101 A 
HETATM    8  C   UNK N   1      27.269  29.632  -5.044  0.00  0.00     0.065 A 
HETATM    9  C   UNK N   1      26.457  29.870  -3.948  0.00  0.00     0.102 A 
HETATM   10  N   UNK N   1      26.040  28.833  -3.180  0.00  0.00    -0.308 N 
HETATM   11  C   UNK N   1      26.401  27.550  -3.460  0.00  0.00     0.227 A 
ATOM     12  HN  UNK N   1      25.442  29.018  -2.374  1.00  0.00     0.171 HD
BRANCH   9  13
HETATM   13  N   UNK N   1      26.094  31.062  -3.671  0.00  0.00    -0.385 N 
HETATM   14  H   UNK N   1      26.642  31.620  -3.073  0.00  0.00     0.157 HD
ATOM     15  HN  UNK N   1      25.233  31.437  -4.068  1.00  0.00     0.157 HD
ENDBRANCH   9  13
BRANCH  11  16
HETATM   16  O   UNK N   1      25.929  26.565  -2.679  0.00  0.00    -0.332 OA
HETATM   17  H   UNK N   1      25.045  26.591  -2.366  0.00  0.00     0.221 HD
ENDBRANCH  11  16
ENDBRANCH   4   6
BRANCH   3  18
HETATM   18  O   UNK N   1      25.512  24.886  -5.397  0.00  0.00    -0.388 OA
HETATM   19  H   UNK N   1      24.887  24.281  -4.971  0.00  0.00     0.210 HD
ENDBRANCH   3  18
BRANCH   2  20
HETATM   20  O   UNK N   1      26.920  22.750  -6.395  0.00  0.00    -0.390 OA
HETATM   21  H   UNK N   1      26.906  21.921  -5.891  0.00  0.00     0.210 HD
ENDBRANCH   2  20
BRANCH   1  22
HETATM   22  C   UNK N   1      29.509  23.523  -4.273  0.00  0.00     0.215 C 
BRANCH  22  23
HETATM   23  O   UNK N   1      29.781  22.375  -3.525  0.00  0.00    -0.294 OA
BRANCH  23  24
HETATM   24  P   UNK N   1      31.498  22.431  -3.243  0.00  0.00     0.390 P 
HETATM   25  O   UNK N   1      30.916  22.912  -1.889  0.00  0.00    -0.632 OA
BRANCH  24  26
HETATM   26  O   UNK N   1      32.278  21.398  -2.090  0.00  0.00    -0.307 OA
HETATM   27  H   UNK N   1      31.847  20.914  -1.369  0.00  0.00     0.222 HD
ENDBRANCH  24  26
BRANCH  24  28
HETATM   28  O   UNK N   1      31.080  20.757  -3.475  0.00  0.00    -0.307 OA
HETATM   29  H   UNK N   1      31.253  19.805  -3.401  0.00  0.00     0.222 HD
ENDBRANCH  24  28
ENDBRANCH  23  24
ENDBRANCH  22  23
ENDBRANCH   1  22
TORSDOF 10
ENDMDL
MODEL 5
REMARK VINA RESULT:      -6.1      7.801     10.327
REMARK  10 active torsions:
REMARK  status: ('A' for Active; 'I' for Inactive)
REMARK    1  A    between atoms: C_4  and  C_3 
REMARK    2  A    between atoms: O_21  and  C_3 
REMARK    3  A    between atoms: N_10  and  C_5 
REMARK    4  A    between atoms: C_6  and  O_15 
REMARK    5  A    between atoms: C_7  and  O_16 
REMARK    6  A    between atoms: C_8  and  N_14 
REMARK    7  A    between atoms: O_17  and  C_9 
REMARK    8  A    between atoms: P_23  and  O_18 
REMARK    9  A    between atoms: P_23  and  O_19 
REMARK   10  A    between atoms: P_23  and  O_21 
ROOT
HETATM    1  C   UNK N   1      30.460  18.161   8.778  0.00  0.00     0.180 C 
HETATM    2  C   UNK N   1      29.644  17.051   9.475  0.00  0.00     0.182 C 
HETATM    3  C   UNK N   1      28.281  17.231   8.842  0.00  0.00     0.198 C 
HETATM    4  C   UNK N   1      28.779  17.538   7.431  0.00  0.00     0.262 C 
HETATM    5  O   UNK N   1      29.736  18.552   7.628  0.00  0.00    -0.353 OA
ENDROOT
BRANCH   4   6
HETATM    6  N   UNK N   1      27.832  17.921   6.364  0.00  0.00    -0.293 N 
HETATM    7  C   UNK N   1      27.381  16.888   5.593  0.00  0.00     0.101 A 
HETATM    8  C   UNK N   1      26.453  17.093   4.583  0.00  0.00     0.065 A 
HETATM    9  C   UNK N   1      25.981  18.377   4.374  0.00  0.00     0.102 A 
HETATM   10  N   UNK N   1      26.431  19.397   5.146  0.00  0.00    -0.308 N 
HETATM   11  C   UNK N   1      27.345  19.189   6.135  0.00  0.00     0.227 A 
ATOM     12  HN  UNK N   1      26.079  20.340   4.984  1.00  0.00     0.171 HD
BRANCH   9  13
HETATM   13  N   UNK N   1      25.114  18.598   3.461  0.00  0.00    -0.385 N 
HETATM   14  H   UNK N   1      24.589  19.430   3.468  0.00  0.00     0.157 HD
ATOM     15  HN  UNK N   1      24.966  17.909   2.724  1.00  0.00     0.157 HD
ENDBRANCH   9  13
BRANCH  11  16
HETATM   16  O   UNK N   1      27.727  20.234   6.886  0.00  0.00    -0.332 OA
HETATM   17  H   UNK N   1      27.095  20.717   7.382  0.00  0.00     0.221 HD
ENDBRANCH  11  16
ENDBRANCH   4   6
BRANCH   3  18
HETATM   18  O   UNK N   1      27.643  18.353   9.387  0.00  0.00    -0.388 OA
HETATM   19  H   UNK N   1      27.091  18.758  10.073  0.00  0.00     0.210 HD
ENDBRANCH   3  18
BRANCH   2  20
HETATM   20  O   UNK N   1      29.627  17.164  10.868  0.00  0.00    -0.390 OA
HETATM   21  H   UNK N   1      29.568  16.389  11.449  0.00  0.00     0.210 HD
ENDBRANCH   2  20
BRANCH   1  22
HETATM   22  C   UNK N   1      31.812  17.674   8.266  0.00  0.00     0.215 C 
BRANCH  22  23
HETATM   23  O   UNK N   1      32.817  18.643   8.300  0.00  0.00    -0.294 OA
BRANCH  23  24
HETATM   24  P   UNK N   1      34.302  17.741   8.190  0.00  0.00     0.390 P 
HETATM   25  O   UNK N   1      34.803  19.198   8.366  0.00  0.00    -0.632 OA
BRANCH  24  26
HETATM   26  O   UNK N   1      35.409  17.619   9.519  0.00  0.00    -0.307 OA
HETATM   27  H   UNK N   1      35.226  17.221  10.383  0.00  0.00     0.222 HD
ENDBRANCH  24  26
BRANCH  24  28
HETATM   28  O   UNK N   1      33.512  17.234   9.657  0.00  0.00    -0.307 OA
HETATM   29  H   UNK N   1      33.489  17.068  10.612  0.00  0.00     0.222 HD
ENDBRANCH  24  28
ENDBRANCH  23  24
ENDBRANCH  22  23
ENDBRANCH   1  22
TORSDOF 10
ENDMDL
MODEL 6
REMARK VINA RESULT:      -5.9      7.954     10.556
REMARK  10 active torsions:
REMARK  status: ('A' for Active; 'I' for Inactive)
REMARK    1  A    between atoms: C_4  and  C_3 
REMARK    2  A    between atoms: O_21  and  C_3 
REMARK    3  A    between atoms: N_10  and  C_5 
REMARK    4  A    between atoms: C_6  and  O_15 
REMARK    5  A    between atoms: C_7  and  O_16 
REMARK    6  A    between atoms: C_8  and  N_14 
REMARK    7  A    between atoms: O_17  and  C_9 
REMARK    8  A    between atoms: P_23  and  O_18 
REMARK    9  A    between atoms: P_23  and  O_19 
REMARK   10  A    between atoms: P_23  and  O_21 
ROOT
HETATM    1  C   UNK N   1      30.372  18.153   8.799  0.00  0.00     0.180 C 
HETATM    2  C   UNK N   1      29.531  16.970   9.325  0.00  0.00     0.182 C 
HETATM    3  C   UNK N   1      28.163  17.295   8.765  0.00  0.00     0.198 C 
HETATM    4  C   UNK N   1      28.643  17.815   7.412  0.00  0.00     0.262 C 
HETATM    5  O   UNK N   1      29.638  18.752   7.748  0.00  0.00    -0.353 OA
ENDROOT
BRANCH   4   6
HETATM    6  N   UNK N   1      27.689  18.399   6.447  0.00  0.00    -0.293 N 
HETATM    7  C   UNK N   1      27.690  19.763   6.386  0.00  0.00     0.101 A 
HETATM    8  C   UNK N   1      26.879  20.447   5.493  0.00  0.00     0.065 A 
HETATM    9  C   UNK N   1      26.064  19.712   4.649  0.00  0.00     0.102 A 
HETATM   10  N   UNK N   1      26.072  18.358   4.713  0.00  0.00    -0.308 N 
HETATM   11  C   UNK N   1      26.869  17.692   5.595  0.00  0.00     0.227 A 
ATOM     12  HN  UNK N   1      25.468  17.825   4.087  1.00  0.00     0.171 HD
BRANCH   9  13
HETATM   13  N   UNK N   1      25.316  20.311   3.804  0.00  0.00    -0.385 N 
HETATM   14  H   UNK N   1      24.344  20.160   3.810  0.00  0.00     0.157 HD
ATOM     15  HN  UNK N   1      25.728  20.947   3.121  1.00  0.00     0.157 HD
ENDBRANCH   9  13
BRANCH  11  16
HETATM   16  O   UNK N   1      26.855  16.350   5.587  0.00  0.00    -0.332 OA
HETATM   17  H   UNK N   1      26.337  15.878   6.209  0.00  0.00     0.221 HD
ENDBRANCH  11  16
ENDBRANCH   4   6
BRANCH   3  18
HETATM   18  O   UNK N   1      27.577  18.332   9.504  0.00  0.00    -0.388 OA
HETATM   19  H   UNK N   1      26.794  18.753   9.890  0.00  0.00     0.210 HD
ENDBRANCH   3  18
BRANCH   2  20
HETATM   20  O   UNK N   1      29.547  16.852  10.717  0.00  0.00    -0.390 OA
HETATM   21  H   UNK N   1      28.764  17.034  11.261  0.00  0.00     0.210 HD
ENDBRANCH   2  20
BRANCH   1  22
HETATM   22  C   UNK N   1      31.695  17.715   8.179  0.00  0.00     0.215 C 
BRANCH  22  23
HETATM   23  O   UNK N   1      32.726  18.646   8.320  0.00  0.00    -0.294 OA
BRANCH  23  24
HETATM   24  P   UNK N   1      34.187  17.715   8.141  0.00  0.00     0.390 P 
HETATM   25  O   UNK N   1      34.726  19.151   8.366  0.00  0.00    -0.632 OA
BRANCH  24  26
HETATM   26  O   UNK N   1      35.318  17.513   9.440  0.00  0.00    -0.307 OA
HETATM   27  H   UNK N   1      35.909  16.756   9.573  0.00  0.00     0.222 HD
ENDBRANCH  24  26
BRANCH  24  28
HETATM   28  O   UNK N   1      33.416  17.166   9.603  0.00  0.00    -0.307 OA
HETATM   29  H   UNK N   1      32.657  16.829  10.105  0.00  0.00     0.222 HD
ENDBRANCH  24  28
ENDBRANCH  23  24
ENDBRANCH  22  23
ENDBRANCH   1  22
TORSDOF 10
ENDMDL
MODEL 7
REMARK VINA RESULT:      -5.8      5.160      8.165
REMARK  10 active torsions:
REMARK  status: ('A' for Active; 'I' for Inactive)
REMARK    1  A    between atoms: C_4  and  C_3 
REMARK    2  A    between atoms: O_21  and  C_3 
REMARK    3  A    between atoms: N_10  and  C_5 
REMARK    4  A    between atoms: C_6  and  O_15 
REMARK    5  A    between atoms: C_7  and  O_16 
REMARK    6  A    between atoms: C_8  and  N_14 
REMARK    7  A    between atoms: O_17  and  C_9 
REMARK    8  A    between atoms: P_23  and  O_18 
REMARK    9  A    between atoms: P_23  and  O_19 
REMARK   10  A    between atoms: P_23  and  O_21 
ROOT
HETATM    1  C   UNK N   1      34.732  15.177   9.264  0.00  0.00     0.180 C 
HETATM    2  C   UNK N   1      33.309  14.793   9.723  0.00  0.00     0.182 C 
HETATM    3  C   UNK N   1      32.453  15.535   8.719  0.00  0.00     0.198 C 
HETATM    4  C   UNK N   1      33.345  15.285   7.505  0.00  0.00     0.262 C 
HETATM    5  O   UNK N   1      34.625  15.675   7.943  0.00  0.00    -0.353 OA
ENDROOT
BRANCH   4   6
HETATM    6  N   UNK N   1      33.035  15.905   6.200  0.00  0.00    -0.293 N 
HETATM    7  C   UNK N   1      32.241  15.158   5.378  0.00  0.00     0.101 A 
HETATM    8  C   UNK N   1      31.831  15.633   4.142  0.00  0.00     0.065 A 
HETATM    9  C   UNK N   1      32.240  16.898   3.755  0.00  0.00     0.102 A 
HETATM   10  N   UNK N   1      33.025  17.636   4.579  0.00  0.00    -0.308 N 
HETATM   11  C   UNK N   1      33.427  17.161   5.791  0.00  0.00     0.227 A 
ATOM     12  HN  UNK N   1      33.323  18.566   4.285  1.00  0.00     0.171 HD
BRANCH   9  13
HETATM   13  N   UNK N   1      31.868  17.372   2.629  0.00  0.00    -0.385 N 
HETATM   14  H   UNK N   1      31.773  18.344   2.508  0.00  0.00     0.157 HD
ATOM     15  HN  UNK N   1      31.669  16.741   1.853  1.00  0.00     0.157 HD
ENDBRANCH   9  13
BRANCH  11  16
HETATM   16  O   UNK N   1      34.177  17.952   6.574  0.00  0.00    -0.332 OA
HETATM   17  H   UNK N   1      34.825  18.515   6.197  0.00  0.00     0.221 HD
ENDBRANCH  11  16
ENDBRANCH   4   6
BRANCH   3  18
HETATM   18  O   UNK N   1      32.428  16.902   9.029  0.00  0.00    -0.388 OA
HETATM   19  H   UNK N   1      32.043  17.784   8.918  0.00  0.00     0.210 HD
ENDBRANCH   3  18
BRANCH   2  20
HETATM   20  O   UNK N   1      33.039  15.144  11.048  0.00  0.00    -0.390 OA
HETATM   21  H   UNK N   1      32.498  14.588  11.631  0.00  0.00     0.210 HD
ENDBRANCH   2  20
BRANCH   1  22
HETATM   22  C   UNK N   1      35.673  13.979   9.175  0.00  0.00     0.215 C 
BRANCH  22  23
HETATM   23  O   UNK N   1      37.022  14.322   9.056  0.00  0.00    -0.294 OA
BRANCH  23  24
HETATM   24  P   UNK N   1      37.878  13.006   9.809  0.00  0.00     0.390 P 
HETATM   25  O   UNK N   1      38.958  13.630   8.887  0.00  0.00    -0.632 OA
BRANCH  24  26
HETATM   26  O   UNK N   1      39.212  13.269  10.885  0.00  0.00    -0.307 OA
HETATM   27  H   UNK N   1      39.247  13.914  11.609  0.00  0.00     0.222 HD
ENDBRANCH  24  26
BRANCH  24  28
HETATM   28  O   UNK N   1      37.489  14.142  11.070  0.00  0.00    -0.307 OA
HETATM   29  H   UNK N   1      36.899  14.516  11.744  0.00  0.00     0.222 HD
ENDBRANCH  24  28
ENDBRANCH  23  24
ENDBRANCH  22  23
ENDBRANCH   1  22
TORSDOF 10
ENDMDL
MODEL 8
REMARK VINA RESULT:      -5.7      5.295      8.006
REMARK  10 active torsions:
REMARK  status: ('A' for Active; 'I' for Inactive)
REMARK    1  A    between atoms: C_4  and  C_3 
REMARK    2  A    between atoms: O_21  and  C_3 
REMARK    3  A    between atoms: N_10  and  C_5 
REMARK    4  A    between atoms: C_6  and  O_15 
REMARK    5  A    between atoms: C_7  and  O_16 
REMARK    6  A    between atoms: C_8  and  N_14 
REMARK    7  A    between atoms: O_17  and  C_9 
REMARK    8  A    between atoms: P_23  and  O_18 
REMARK    9  A    between atoms: P_23  and  O_19 
REMARK   10  A    between atoms: P_23  and  O_21 
ROOT
HETATM    1  C   UNK N   1      35.375  15.240   8.529  0.00  0.00     0.180 C 
HETATM    2  C   UNK N   1      34.830  16.077   9.706  0.00  0.00     0.182 C 
HETATM    3  C   UNK N   1      33.921  17.054   8.992  0.00  0.00     0.198 C 
HETATM    4  C   UNK N   1      33.366  16.066   7.969  0.00  0.00     0.262 C 
HETATM    5  O   UNK N   1      34.518  15.465   7.426  0.00  0.00    -0.353 OA
ENDROOT
BRANCH   4   6
HETATM    6  N   UNK N   1      32.466  16.523   6.891  0.00  0.00    -0.293 N 
HETATM    7  C   UNK N   1      31.144  16.230   7.078  0.00  0.00     0.101 A 
HETATM    8  C   UNK N   1      30.179  16.638   6.170  0.00  0.00     0.065 A 
HETATM    9  C   UNK N   1      30.582  17.362   5.061  0.00  0.00     0.102 A 
HETATM   10  N   UNK N   1      31.895  17.651   4.885  0.00  0.00    -0.308 N 
HETATM   11  C   UNK N   1      32.839  17.245   5.779  0.00  0.00     0.227 A 
ATOM     12  HN  UNK N   1      32.183  18.184   4.064  1.00  0.00     0.171 HD
BRANCH   9  13
HETATM   13  N   UNK N   1      29.716  17.765   4.213  0.00  0.00    -0.385 N 
HETATM   14  H   UNK N   1      28.858  17.292   4.119  0.00  0.00     0.157 HD
ATOM     15  HN  UNK N   1      29.914  18.579   3.632  1.00  0.00     0.157 HD
ENDBRANCH   9  13
BRANCH  11  16
HETATM   16  O   UNK N   1      34.118  17.591   5.564  0.00  0.00    -0.332 OA
HETATM   17  H   UNK N   1      34.804  16.960   5.668  0.00  0.00     0.221 HD
ENDBRANCH  11  16
ENDBRANCH   4   6
BRANCH   3  18
HETATM   18  O   UNK N   1      34.686  18.039   8.351  0.00  0.00    -0.388 OA
HETATM   19  H   UNK N   1      35.368  18.293   7.712  0.00  0.00     0.210 HD
ENDBRANCH   3  18
BRANCH   2  20
HETATM   20  O   UNK N   1      35.832  16.699  10.457  0.00  0.00    -0.390 OA
HETATM   21  H   UNK N   1      36.177  16.315  11.278  0.00  0.00     0.210 HD
ENDBRANCH   2  20
BRANCH   1  22
HETATM   22  C   UNK N   1      35.321  13.738   8.791  0.00  0.00     0.215 C 
BRANCH  22  23
HETATM   23  O   UNK N   1      34.325  13.353   9.692  0.00  0.00    -0.294 OA
BRANCH  23  24
HETATM   24  P   UNK N   1      33.569  11.973   8.947  0.00  0.00     0.390 P 
HETATM   25  O   UNK N   1      34.073  11.397  10.295  0.00  0.00    -0.632 OA
BRANCH  24  26
HETATM   26  O   UNK N   1      32.151  11.227   9.611  0.00  0.00    -0.307 OA
HETATM   27  H   UNK N   1      31.814  11.338  10.513  0.00  0.00     0.222 HD
ENDBRANCH  24  26
BRANCH  24  28
HETATM   28  O   UNK N   1      32.306  13.129   9.264  0.00  0.00    -0.307 OA
HETATM   29  H   UNK N   1      31.827  13.955   9.090  0.00  0.00     0.222 HD
ENDBRANCH  24  28
ENDBRANCH  23  24
ENDBRANCH  22  23
ENDBRANCH   1  22
TORSDOF 10
ENDMDL
MODEL 9
REMARK VINA RESULT:      -5.7      7.836     10.269
REMARK  10 active torsions:
REMARK  status: ('A' for Active; 'I' for Inactive)
REMARK    1  A    between atoms: C_4  and  C_3 
REMARK    2  A    between atoms: O_21  and  C_3 
REMARK    3  A    between atoms: N_10  and  C_5 
REMARK    4  A    between atoms: C_6  and  O_15 
REMARK    5  A    between atoms: C_7  and  O_16 
REMARK    6  A    between atoms: C_8  and  N_14 
REMARK    7  A    between atoms: O_17  and  C_9 
REMARK    8  A    between atoms: P_23  and  O_18 
REMARK    9  A    between atoms: P_23  and  O_19 
REMARK   10  A    between atoms: P_23  and  O_21 
ROOT
HETATM    1  C   UNK N   1      30.344  17.987   8.283  0.00  0.00     0.180 C 
HETATM    2  C   UNK N   1      29.493  17.616   9.517  0.00  0.00     0.182 C 
HETATM    3  C   UNK N   1      28.091  17.674   8.949  0.00  0.00     0.198 C 
HETATM    4  C   UNK N   1      28.424  17.059   7.591  0.00  0.00     0.262 C 
HETATM    5  O   UNK N   1      29.525  17.814   7.143  0.00  0.00    -0.353 OA
ENDROOT
BRANCH   4   6
HETATM    6  N   UNK N   1      27.397  16.967   6.533  0.00  0.00    -0.293 N 
HETATM    7  C   UNK N   1      26.708  15.788   6.497  0.00  0.00     0.101 A 
HETATM    8  C   UNK N   1      25.684  15.577   5.586  0.00  0.00     0.065 A 
HETATM    9  C   UNK N   1      25.363  16.600   4.709  0.00  0.00     0.102 A 
HETATM   10  N   UNK N   1      26.049  17.769   4.755  0.00  0.00    -0.308 N 
HETATM   11  C   UNK N   1      27.056  17.968   5.650  0.00  0.00     0.227 A 
ATOM     12  HN  UNK N   1      25.806  18.516   4.105  1.00  0.00     0.171 HD
BRANCH   9  13
HETATM   13  N   UNK N   1      24.415  16.444   3.868  0.00  0.00    -0.385 N 
HETATM   14  H   UNK N   1      24.197  17.160   3.229  0.00  0.00     0.157 HD
ATOM     15  HN  UNK N   1      23.881  15.575   3.858  1.00  0.00     0.157 HD
ENDBRANCH   9  13
BRANCH  11  16
HETATM   16  O   UNK N   1      27.675  19.159   5.666  0.00  0.00    -0.332 OA
HETATM   17  H   UNK N   1      27.176  19.951   5.704  0.00  0.00     0.221 HD
ENDBRANCH  11  16
ENDBRANCH   4   6
BRANCH   3  18
HETATM   18  O   UNK N   1      27.691  19.009   8.793  0.00  0.00    -0.388 OA
HETATM   19  H   UNK N   1      27.480  19.875   9.173  0.00  0.00     0.210 HD
ENDBRANCH   3  18
BRANCH   2  20
HETATM   20  O   UNK N   1      29.686  18.474  10.604  0.00  0.00    -0.390 OA
HETATM   21  H   UNK N   1      29.761  18.146  11.514  0.00  0.00     0.210 HD
ENDBRANCH   2  20
BRANCH   1  22
HETATM   22  C   UNK N   1      31.534  17.054   8.079  0.00  0.00     0.215 C 
BRANCH  22  23
HETATM   23  O   UNK N   1      32.771  17.703   8.064  0.00  0.00    -0.294 OA
BRANCH  23  24
HETATM   24  P   UNK N   1      33.427  17.362   6.488  0.00  0.00     0.390 P 
HETATM   25  O   UNK N   1      34.525  18.251   7.127  0.00  0.00    -0.632 OA
BRANCH  24  26
HETATM   26  O   UNK N   1      34.869  16.423   6.273  0.00  0.00    -0.307 OA
HETATM   27  H   UNK N   1      35.496  16.168   6.966  0.00  0.00     0.222 HD
ENDBRANCH  24  26
BRANCH  24  28
HETATM   28  O   UNK N   1      33.358  15.847   7.344  0.00  0.00    -0.307 OA
HETATM   29  H   UNK N   1      33.198  15.308   8.135  0.00  0.00     0.222 HD
ENDBRANCH  24  28
ENDBRANCH  23  24
ENDBRANCH  22  23
ENDBRANCH   1  22
TORSDOF 10
ENDMDL
