MODEL 1
REMARK VINA RESULT:      -9.3      0.000      0.000
REMARK  9 active torsions:
REMARK  status: ('A' for Active; 'I' for Inactive)
REMARK    1  A    between atoms: C_17  and  C_14 
REMARK    2  A    between atoms: C_22  and  C_14 
REMARK    3  A    between atoms: C_18  and  C_15 
REMARK    4  A    between atoms: C_26  and  C_15 
REMARK    5  A    between atoms: C_23  and  C_19 
REMARK    6  A    between atoms: O_32  and  C_20 
REMARK    7  A    between atoms: O_33  and  C_21 
REMARK    8  A    between atoms: C_26  and  O_36 
REMARK    9  A    between atoms: O_36  and  O_35 
ROOT
HETATM    1  C   UNK N   1      21.131  13.518   7.508  0.00  0.00     0.132 A 
HETATM    2  C   UNK N   1      20.435  16.186   7.837  0.00  0.00     0.059 A 
HETATM    3  C   UNK N   1      21.210  14.121   8.772  0.00  0.00     0.059 A 
HETATM    4  C   UNK N   1      20.323  15.543   6.600  0.00  0.00     0.136 A 
HETATM    5  C   UNK N   1      20.494  13.922   5.192  0.00  0.00     0.288 A 
HETATM    6  C   UNK N   1      19.883  15.078   4.430  0.00  0.00     0.255 A 
HETATM    7  N   UNK N   1      20.870  15.443   8.900  0.00  0.00    -0.354 N 
ATOM      8  HN  UNK N   1      20.946  15.886   9.816  1.00  0.00     0.166 HD
HETATM    9  N   UNK N   1      19.884  16.065   5.512  0.00  0.00    -0.332 N 
ATOM     10  HN  UNK N   1      19.580  17.034   5.414  1.00  0.00     0.164 HD
HETATM   11  N   UNK N   1      20.685  14.267   6.476  0.00  0.00    -0.271 N 
HETATM   12  O   UNK N   1      20.753  12.816   4.742  0.00  0.00    -0.267 OA
ENDROOT
BRANCH   6  13
HETATM   13  C   UNK N   1      20.772  15.564   3.267  0.00  0.00     0.113 C 
BRANCH  13  14
HETATM   14  C   UNK N   1      20.874  17.056   3.184  0.00  0.00    -0.053 A 
HETATM   15  C   UNK N   1      21.958  17.731   3.755  0.00  0.00     0.010 A 
HETATM   16  C   UNK N   1      22.007  19.130   3.719  0.00  0.00     0.037 A 
HETATM   17  C   UNK N   1      20.969  19.852   3.119  0.00  0.00     0.065 A 
HETATM   18  C   UNK N   1      19.890  19.177   2.543  0.00  0.00     0.037 A 
HETATM   19  C   UNK N   1      19.844  17.782   2.574  0.00  0.00     0.010 A 
BRANCH  17  20
HETATM   20  O   UNK N   1      21.006  21.194   3.098  0.00  0.00    -0.361 OA
HETATM   21  H   UNK N   1      21.667  21.698   3.529  0.00  0.00     0.217 HD
ENDBRANCH  17  20
ENDBRANCH  13  14
ENDBRANCH   6  13
BRANCH   6  22
HETATM   22  O   UNK N   1      18.541  14.822   4.050  0.00  0.00    -0.199 OA
BRANCH  22  23
HETATM   23  O   UNK N   1      18.130  13.741   4.690  0.00  0.00    -0.247 OA
HETATM   24  H   UNK N   1      17.344  13.263   4.382  0.00  0.00     0.253 HD
ENDBRANCH  22  23
ENDBRANCH   6  22
BRANCH   2  25
HETATM   25  C   UNK N   1      20.059  17.642   7.985  0.00  0.00     0.099 C 
BRANCH  25  26
HETATM   26  C   UNK N   1      19.092  18.021   9.083  0.00  0.00    -0.052 A 
HETATM   27  C   UNK N   1      19.469  19.024   9.984  0.00  0.00     0.007 A 
HETATM   28  C   UNK N   1      18.608  19.411  11.016  0.00  0.00     0.001 A 
HETATM   29  C   UNK N   1      17.359  18.800  11.152  0.00  0.00     0.000 A 
HETATM   30  C   UNK N   1      16.969  17.803  10.255  0.00  0.00     0.001 A 
HETATM   31  C   UNK N   1      17.832  17.416   9.226  0.00  0.00     0.007 A 
ENDBRANCH  25  26
ENDBRANCH   2  25
BRANCH   3  32
HETATM   32  C   UNK N   1      21.592  13.326   9.955  0.00  0.00    -0.008 A 
HETATM   33  C   UNK N   1      22.945  13.058  10.220  0.00  0.00     0.016 A 
HETATM   34  C   UNK N   1      23.308  12.266  11.311  0.00  0.00     0.037 A 
HETATM   35  C   UNK N   1      22.324  11.739  12.148  0.00  0.00     0.065 A 
HETATM   36  C   UNK N   1      20.975  12.002  11.895  0.00  0.00     0.037 A 
HETATM   37  C   UNK N   1      20.609  12.789  10.799  0.00  0.00     0.016 A 
BRANCH  35  38
HETATM   38  O   UNK N   1      22.675  10.975  13.196  0.00  0.00    -0.361 OA
HETATM   39  H   UNK N   1      22.015  10.549  13.707  0.00  0.00     0.217 HD
ENDBRANCH  35  38
ENDBRANCH   3  32
TORSDOF 9
ENDMDL
MODEL 2
REMARK VINA RESULT:      -8.5      9.030     12.515
REMARK  9 active torsions:
REMARK  status: ('A' for Active; 'I' for Inactive)
REMARK    1  A    between atoms: C_17  and  C_14 
REMARK    2  A    between atoms: C_22  and  C_14 
REMARK    3  A    between atoms: C_18  and  C_15 
REMARK    4  A    between atoms: C_26  and  C_15 
REMARK    5  A    between atoms: C_23  and  C_19 
REMARK    6  A    between atoms: O_32  and  C_20 
REMARK    7  A    between atoms: O_33  and  C_21 
REMARK    8  A    between atoms: C_26  and  O_36 
REMARK    9  A    between atoms: O_36  and  O_35 
ROOT
HETATM    1  C   UNK N   1      27.616  18.876   6.267  0.00  0.00     0.132 A 
HETATM    2  C   UNK N   1      28.843  16.629   5.193  0.00  0.00     0.059 A 
HETATM    3  C   UNK N   1      27.212  18.374   5.020  0.00  0.00     0.059 A 
HETATM    4  C   UNK N   1      29.190  17.125   6.454  0.00  0.00     0.136 A 
HETATM    5  C   UNK N   1      29.131  18.475   8.132  0.00  0.00     0.288 A 
HETATM    6  C   UNK N   1      30.128  17.396   8.495  0.00  0.00     0.255 A 
HETATM    7  N   UNK N   1      27.846  17.270   4.511  0.00  0.00    -0.354 N 
ATOM      8  HN  UNK N   1      27.565  16.918   3.596  1.00  0.00     0.166 HD
HETATM    9  N   UNK N   1      30.061  16.623   7.253  0.00  0.00    -0.332 N 
ATOM     10  HN  UNK N   1      30.628  15.799   7.051  1.00  0.00     0.164 HD
HETATM   11  N   UNK N   1      28.593  18.217   6.928  0.00  0.00    -0.271 N 
HETATM   12  O   UNK N   1      28.814  19.430   8.825  0.00  0.00    -0.267 OA
ENDROOT
BRANCH   6  13
HETATM   13  C   UNK N   1      31.554  17.946   8.700  0.00  0.00     0.113 C 
BRANCH  13  14
HETATM   14  C   UNK N   1      32.596  17.188   7.937  0.00  0.00    -0.053 A 
HETATM   15  C   UNK N   1      33.019  15.925   8.368  0.00  0.00     0.010 A 
HETATM   16  C   UNK N   1      34.038  15.257   7.677  0.00  0.00     0.037 A 
HETATM   17  C   UNK N   1      34.635  15.854   6.560  0.00  0.00     0.065 A 
HETATM   18  C   UNK N   1      34.207  17.111   6.127  0.00  0.00     0.037 A 
HETATM   19  C   UNK N   1      33.189  17.775   6.813  0.00  0.00     0.010 A 
BRANCH  17  20
HETATM   20  O   UNK N   1      35.622  15.222   5.906  0.00  0.00    -0.361 OA
HETATM   21  H   UNK N   1      35.537  14.901   5.031  0.00  0.00     0.217 HD
ENDBRANCH  17  20
ENDBRANCH  13  14
ENDBRANCH   6  13
BRANCH   6  22
HETATM   22  O   UNK N   1      29.674  16.581   9.563  0.00  0.00    -0.199 OA
BRANCH  22  23
HETATM   23  O   UNK N   1      29.688  17.304  10.669  0.00  0.00    -0.247 OA
HETATM   24  H   UNK N   1      29.126  18.092  10.742  0.00  0.00     0.253 HD
ENDBRANCH  22  23
ENDBRANCH   6  22
BRANCH   2  25
HETATM   25  C   UNK N   1      29.536  15.410   4.628  0.00  0.00     0.099 C 
BRANCH  25  26
HETATM   26  C   UNK N   1      30.902  15.589   4.008  0.00  0.00    -0.052 A 
HETATM   27  C   UNK N   1      31.776  14.495   3.999  0.00  0.00     0.007 A 
HETATM   28  C   UNK N   1      33.051  14.611   3.434  0.00  0.00     0.001 A 
HETATM   29  C   UNK N   1      33.459  15.823   2.869  0.00  0.00     0.000 A 
HETATM   30  C   UNK N   1      32.593  16.917   2.866  0.00  0.00     0.001 A 
HETATM   31  C   UNK N   1      31.321  16.800   3.432  0.00  0.00     0.007 A 
ENDBRANCH  25  26
ENDBRANCH   2  25
BRANCH   3  32
HETATM   32  C   UNK N   1      26.082  18.990   4.299  0.00  0.00    -0.008 A 
HETATM   33  C   UNK N   1      26.304  20.057   3.413  0.00  0.00     0.016 A 
HETATM   34  C   UNK N   1      25.232  20.674   2.765  0.00  0.00     0.037 A 
HETATM   35  C   UNK N   1      23.930  20.228   2.994  0.00  0.00     0.065 A 
HETATM   36  C   UNK N   1      23.697  19.166   3.872  0.00  0.00     0.037 A 
HETATM   37  C   UNK N   1      24.769  18.551   4.527  0.00  0.00     0.016 A 
BRANCH  35  38
HETATM   38  O   UNK N   1      22.899  20.824   2.372  0.00  0.00    -0.361 OA
HETATM   39  H   UNK N   1      22.052  20.831   2.772  0.00  0.00     0.217 HD
ENDBRANCH  35  38
ENDBRANCH   3  32
TORSDOF 9
ENDMDL
MODEL 3
REMARK VINA RESULT:      -8.4     16.579     18.232
REMARK  9 active torsions:
REMARK  status: ('A' for Active; 'I' for Inactive)
REMARK    1  A    between atoms: C_17  and  C_14 
REMARK    2  A    between atoms: C_22  and  C_14 
REMARK    3  A    between atoms: C_18  and  C_15 
REMARK    4  A    between atoms: C_26  and  C_15 
REMARK    5  A    between atoms: C_23  and  C_19 
REMARK    6  A    between atoms: O_32  and  C_20 
REMARK    7  A    between atoms: O_33  and  C_21 
REMARK    8  A    between atoms: C_26  and  O_36 
REMARK    9  A    between atoms: O_36  and  O_35 
ROOT
HETATM    1  C   UNK N   1      28.238  22.824  -6.461  0.00  0.00     0.132 A 
HETATM    2  C   UNK N   1      26.651  24.819  -5.361  0.00  0.00     0.059 A 
HETATM    3  C   UNK N   1      28.532  23.345  -5.193  0.00  0.00     0.059 A 
HETATM    4  C   UNK N   1      26.357  24.246  -6.603  0.00  0.00     0.136 A 
HETATM    5  C   UNK N   1      26.649  22.956  -8.303  0.00  0.00     0.288 A 
HETATM    6  C   UNK N   1      25.359  23.704  -8.560  0.00  0.00     0.255 A 
HETATM    7  N   UNK N   1      27.737  24.338  -4.681  0.00  0.00    -0.354 N 
ATOM      8  HN  UNK N   1      27.962  24.730  -3.767  1.00  0.00     0.166 HD
HETATM    9  N   UNK N   1      25.354  24.532  -7.352  0.00  0.00    -0.332 N 
ATOM     10  HN  UNK N   1      24.652  25.240  -7.136  1.00  0.00     0.164 HD
HETATM   11  N   UNK N   1      27.153  23.304  -7.107  0.00  0.00    -0.271 N 
HETATM   12  O   UNK N   1      27.162  22.125  -9.039  0.00  0.00    -0.267 OA
ENDROOT
BRANCH   6  13
HETATM   13  C   UNK N   1      25.427  24.598  -9.815  0.00  0.00     0.113 C 
BRANCH  13  14
HETATM   14  C   UNK N   1      26.724  25.333  -9.949  0.00  0.00    -0.053 A 
HETATM   15  C   UNK N   1      26.961  26.504  -9.219  0.00  0.00     0.010 A 
HETATM   16  C   UNK N   1      28.155  27.211  -9.402  0.00  0.00     0.037 A 
HETATM   17  C   UNK N   1      29.109  26.751 -10.317  0.00  0.00     0.065 A 
HETATM   18  C   UNK N   1      28.875  25.578 -11.040  0.00  0.00     0.037 A 
HETATM   19  C   UNK N   1      27.686  24.871 -10.854  0.00  0.00     0.010 A 
BRANCH  17  20
HETATM   20  O   UNK N   1      30.248  27.436 -10.505  0.00  0.00    -0.361 OA
HETATM   21  H   UNK N   1      30.954  27.439  -9.891  0.00  0.00     0.217 HD
ENDBRANCH  17  20
ENDBRANCH  13  14
ENDBRANCH   6  13
BRANCH   6  22
HETATM   22  O   UNK N   1      24.227  22.851  -8.530  0.00  0.00    -0.199 OA
BRANCH  22  23
HETATM   23  O   UNK N   1      24.653  21.600  -8.549  0.00  0.00    -0.247 OA
HETATM   24  H   UNK N   1      24.018  20.869  -8.488  0.00  0.00     0.253 HD
ENDBRANCH  22  23
ENDBRANCH   6  22
BRANCH   2  25
HETATM   25  C   UNK N   1      25.775  25.911  -4.791  0.00  0.00     0.099 C 
BRANCH  25  26
HETATM   26  C   UNK N   1      26.290  27.331  -4.829  0.00  0.00    -0.052 A 
HETATM   27  C   UNK N   1      25.909  28.204  -3.803  0.00  0.00     0.007 A 
HETATM   28  C   UNK N   1      26.361  29.528  -3.794  0.00  0.00     0.001 A 
HETATM   29  C   UNK N   1      27.204  29.988  -4.810  0.00  0.00     0.000 A 
HETATM   30  C   UNK N   1      27.597  29.123  -5.833  0.00  0.00     0.001 A 
HETATM   31  C   UNK N   1      27.142  27.802  -5.843  0.00  0.00     0.007 A 
ENDBRANCH  25  26
ENDBRANCH   2  25
BRANCH   3  32
HETATM   32  C   UNK N   1      29.643  22.789  -4.396  0.00  0.00    -0.008 A 
HETATM   33  C   UNK N   1      30.223  21.561  -4.752  0.00  0.00     0.016 A 
HETATM   34  C   UNK N   1      31.241  21.008  -3.974  0.00  0.00     0.037 A 
HETATM   35  C   UNK N   1      31.691  21.678  -2.835  0.00  0.00     0.065 A 
HETATM   36  C   UNK N   1      31.122  22.902  -2.473  0.00  0.00     0.037 A 
HETATM   37  C   UNK N   1      30.097  23.455  -3.248  0.00  0.00     0.016 A 
BRANCH  35  38
HETATM   38  O   UNK N   1      32.669  21.144  -2.086  0.00  0.00    -0.361 OA
HETATM   39  H   UNK N   1      33.487  20.913  -2.480  0.00  0.00     0.217 HD
ENDBRANCH  35  38
ENDBRANCH   3  32
TORSDOF 9
ENDMDL
MODEL 4
REMARK VINA RESULT:      -8.1      6.517      9.214
REMARK  9 active torsions:
REMARK  status: ('A' for Active; 'I' for Inactive)
REMARK    1  A    between atoms: C_17  and  C_14 
REMARK    2  A    between atoms: C_22  and  C_14 
REMARK    3  A    between atoms: C_18  and  C_15 
REMARK    4  A    between atoms: C_26  and  C_15 
REMARK    5  A    between atoms: C_23  and  C_19 
REMARK    6  A    between atoms: O_32  and  C_20 
REMARK    7  A    between atoms: O_33  and  C_21 
REMARK    8  A    between atoms: C_26  and  O_36 
REMARK    9  A    between atoms: O_36  and  O_35 
ROOT
HETATM    1  C   UNK N   1      28.410  18.394   5.138  0.00  0.00     0.132 A 
HETATM    2  C   UNK N   1      27.555  16.504   3.292  0.00  0.00     0.059 A 
HETATM    3  C   UNK N   1      29.283  17.389   4.694  0.00  0.00     0.059 A 
HETATM    4  C   UNK N   1      26.724  17.546   3.718  0.00  0.00     0.136 A 
HETATM    5  C   UNK N   1      26.161  19.286   4.856  0.00  0.00     0.288 A 
HETATM    6  C   UNK N   1      24.982  18.969   3.962  0.00  0.00     0.255 A 
HETATM    7  N   UNK N   1      28.828  16.464   3.791  0.00  0.00    -0.354 N 
ATOM      8  HN  UNK N   1      29.457  15.722   3.483  1.00  0.00     0.166 HD
HETATM    9  N   UNK N   1      25.525  17.771   3.318  0.00  0.00    -0.332 N 
ATOM     10  HN  UNK N   1      25.019  17.194   2.645  1.00  0.00     0.164 HD
HETATM   11  N   UNK N   1      27.163  18.422   4.620  0.00  0.00    -0.271 N 
HETATM   12  O   UNK N   1      26.235  20.206   5.657  0.00  0.00    -0.267 OA
ENDROOT
BRANCH   6  13
HETATM   13  C   UNK N   1      23.709  18.613   4.757  0.00  0.00     0.113 C 
BRANCH  13  14
HETATM   14  C   UNK N   1      22.512  18.384   3.886  0.00  0.00    -0.053 A 
HETATM   15  C   UNK N   1      21.698  19.454   3.496  0.00  0.00     0.010 A 
HETATM   16  C   UNK N   1      20.549  19.213   2.731  0.00  0.00     0.037 A 
HETATM   17  C   UNK N   1      20.213  17.905   2.363  0.00  0.00     0.065 A 
HETATM   18  C   UNK N   1      21.031  16.840   2.747  0.00  0.00     0.037 A 
HETATM   19  C   UNK N   1      22.179  17.080   3.505  0.00  0.00     0.010 A 
BRANCH  17  20
HETATM   20  O   UNK N   1      19.105  17.672   1.644  0.00  0.00    -0.361 OA
HETATM   21  H   UNK N   1      18.791  16.812   1.445  0.00  0.00     0.217 HD
ENDBRANCH  17  20
ENDBRANCH  13  14
ENDBRANCH   6  13
BRANCH   6  22
HETATM   22  O   UNK N   1      24.775  19.963   2.972  0.00  0.00    -0.199 OA
BRANCH  22  23
HETATM   23  O   UNK N   1      25.883  20.676   2.866  0.00  0.00    -0.247 OA
HETATM   24  H   UNK N   1      26.665  20.441   3.390  0.00  0.00     0.253 HD
ENDBRANCH  22  23
ENDBRANCH   6  22
BRANCH   2  25
HETATM   25  C   UNK N   1      27.059  15.484   2.293  0.00  0.00     0.099 C 
BRANCH  25  26
HETATM   26  C   UNK N   1      25.752  14.782   2.581  0.00  0.00    -0.052 A 
HETATM   27  C   UNK N   1      24.811  14.681   1.548  0.00  0.00     0.007 A 
HETATM   28  C   UNK N   1      23.587  14.039   1.765  0.00  0.00     0.001 A 
HETATM   29  C   UNK N   1      23.297  13.487   3.016  0.00  0.00     0.000 A 
HETATM   30  C   UNK N   1      24.231  13.576   4.049  0.00  0.00     0.001 A 
HETATM   31  C   UNK N   1      25.452  14.219   3.833  0.00  0.00     0.007 A 
ENDBRANCH  25  26
ENDBRANCH   2  25
BRANCH   3  32
HETATM   32  C   UNK N   1      30.688  17.368   5.146  0.00  0.00    -0.008 A 
HETATM   33  C   UNK N   1      30.991  17.200   6.507  0.00  0.00     0.016 A 
HETATM   34  C   UNK N   1      32.316  17.228   6.945  0.00  0.00     0.037 A 
HETATM   35  C   UNK N   1      33.350  17.421   6.028  0.00  0.00     0.065 A 
HETATM   36  C   UNK N   1      33.060  17.587   4.671  0.00  0.00     0.037 A 
HETATM   37  C   UNK N   1      31.732  17.566   4.231  0.00  0.00     0.016 A 
BRANCH  35  38
HETATM   38  O   UNK N   1      34.624  17.449   6.451  0.00  0.00    -0.361 OA
HETATM   39  H   UNK N   1      35.226  18.066   6.083  0.00  0.00     0.217 HD
ENDBRANCH  35  38
ENDBRANCH   3  32
TORSDOF 9
ENDMDL
MODEL 5
REMARK VINA RESULT:      -8.1     13.276     15.722
REMARK  9 active torsions:
REMARK  status: ('A' for Active; 'I' for Inactive)
REMARK    1  A    between atoms: C_17  and  C_14 
REMARK    2  A    between atoms: C_22  and  C_14 
REMARK    3  A    between atoms: C_18  and  C_15 
REMARK    4  A    between atoms: C_26  and  C_15 
REMARK    5  A    between atoms: C_23  and  C_19 
REMARK    6  A    between atoms: O_32  and  C_20 
REMARK    7  A    between atoms: O_33  and  C_21 
REMARK    8  A    between atoms: C_26  and  O_36 
REMARK    9  A    between atoms: O_36  and  O_35 
ROOT
HETATM    1  C   UNK N   1      36.397  14.369   8.102  0.00  0.00     0.132 A 
HETATM    2  C   UNK N   1      36.181  15.062  10.782  0.00  0.00     0.059 A 
HETATM    3  C   UNK N   1      37.424  14.050   9.002  0.00  0.00     0.059 A 
HETATM    4  C   UNK N   1      35.154  15.324   9.868  0.00  0.00     0.136 A 
HETATM    5  C   UNK N   1      34.186  15.378   7.945  0.00  0.00     0.288 A 
HETATM    6  C   UNK N   1      33.192  15.951   8.932  0.00  0.00     0.255 A 
HETATM    7  N   UNK N   1      37.293  14.416  10.317  0.00  0.00    -0.354 N 
ATOM      8  HN  UNK N   1      38.049  14.201  10.967  1.00  0.00     0.166 HD
HETATM    9  N   UNK N   1      34.023  15.871  10.135  0.00  0.00    -0.332 N 
ATOM     10  HN  UNK N   1      33.743  16.204  11.058  1.00  0.00     0.164 HD
HETATM   11  N   UNK N   1      35.302  14.994   8.586  0.00  0.00    -0.271 N 
HETATM   12  O   UNK N   1      34.012  15.237   6.743  0.00  0.00    -0.267 OA
ENDROOT
BRANCH   6  13
HETATM   13  C   UNK N   1      32.834  17.421   8.633  0.00  0.00     0.113 C 
BRANCH  13  14
HETATM   14  C   UNK N   1      31.408  17.610   8.215  0.00  0.00    -0.053 A 
HETATM   15  C   UNK N   1      30.965  17.160   6.965  0.00  0.00     0.010 A 
HETATM   16  C   UNK N   1      29.644  17.399   6.567  0.00  0.00     0.037 A 
HETATM   17  C   UNK N   1      28.770  18.090   7.414  0.00  0.00     0.065 A 
HETATM   18  C   UNK N   1      29.212  18.531   8.664  0.00  0.00     0.037 A 
HETATM   19  C   UNK N   1      30.527  18.289   9.063  0.00  0.00     0.010 A 
BRANCH  17  20
HETATM   20  O   UNK N   1      27.508  18.333   7.027  0.00  0.00    -0.361 OA
HETATM   21  H   UNK N   1      26.888  18.796   7.553  0.00  0.00     0.217 HD
ENDBRANCH  17  20
ENDBRANCH  13  14
ENDBRANCH   6  13
BRANCH   6  22
HETATM   22  O   UNK N   1      32.061  15.114   9.104  0.00  0.00    -0.199 OA
BRANCH  22  23
HETATM   23  O   UNK N   1      31.762  15.084  10.391  0.00  0.00    -0.247 OA
HETATM   24  H   UNK N   1      31.345  15.853  10.812  0.00  0.00     0.253 HD
ENDBRANCH  22  23
ENDBRANCH   6  22
BRANCH   2  25
HETATM   25  C   UNK N   1      36.040  15.460  12.233  0.00  0.00     0.099 C 
BRANCH  25  26
HETATM   26  C   UNK N   1      35.941  14.363  13.267  0.00  0.00    -0.052 A 
HETATM   27  C   UNK N   1      36.646  14.516  14.467  0.00  0.00     0.007 A 
HETATM   28  C   UNK N   1      36.585  13.528  15.456  0.00  0.00     0.001 A 
HETATM   29  C   UNK N   1      35.813  12.381  15.254  0.00  0.00     0.000 A 
HETATM   30  C   UNK N   1      35.101  12.222  14.064  0.00  0.00     0.001 A 
HETATM   31  C   UNK N   1      35.165  13.208  13.076  0.00  0.00     0.007 A 
ENDBRANCH  25  26
ENDBRANCH   2  25
BRANCH   3  32
HETATM   32  C   UNK N   1      38.598  13.277   8.552  0.00  0.00    -0.008 A 
HETATM   33  C   UNK N   1      39.070  12.197   9.317  0.00  0.00     0.016 A 
HETATM   34  C   UNK N   1      40.209  11.494   8.920  0.00  0.00     0.037 A 
HETATM   35  C   UNK N   1      40.884  11.862   7.755  0.00  0.00     0.065 A 
HETATM   36  C   UNK N   1      40.422  12.933   6.986  0.00  0.00     0.037 A 
HETATM   37  C   UNK N   1      39.285  13.643   7.386  0.00  0.00     0.016 A 
BRANCH  35  38
HETATM   38  O   UNK N   1      41.981  11.186   7.375  0.00  0.00    -0.361 OA
HETATM   39  H   UNK N   1      42.444  11.441   6.602  0.00  0.00     0.217 HD
ENDBRANCH  35  38
ENDBRANCH   3  32
TORSDOF 9
ENDMDL
MODEL 6
REMARK VINA RESULT:      -8.0     16.828     18.634
REMARK  9 active torsions:
REMARK  status: ('A' for Active; 'I' for Inactive)
REMARK    1  A    between atoms: C_17  and  C_14 
REMARK    2  A    between atoms: C_22  and  C_14 
REMARK    3  A    between atoms: C_18  and  C_15 
REMARK    4  A    between atoms: C_26  and  C_15 
REMARK    5  A    between atoms: C_23  and  C_19 
REMARK    6  A    between atoms: O_32  and  C_20 
REMARK    7  A    between atoms: O_33  and  C_21 
REMARK    8  A    between atoms: C_26  and  O_36 
REMARK    9  A    between atoms: O_36  and  O_35 
ROOT
HETATM    1  C   UNK N   1      28.357  22.489  -6.668  0.00  0.00     0.132 A 
HETATM    2  C   UNK N   1      28.093  25.249  -6.820  0.00  0.00     0.059 A 
HETATM    3  C   UNK N   1      29.124  23.322  -5.840  0.00  0.00     0.059 A 
HETATM    4  C   UNK N   1      27.310  24.391  -7.598  0.00  0.00     0.136 A 
HETATM    5  C   UNK N   1      26.621  22.504  -8.377  0.00  0.00     0.288 A 
HETATM    6  C   UNK N   1      25.767  23.567  -9.034  0.00  0.00     0.255 A 
HETATM    7  N   UNK N   1      28.980  24.681  -5.946  0.00  0.00    -0.354 N 
ATOM      8  HN  UNK N   1      29.552  25.286  -5.357  1.00  0.00     0.166 HD
HETATM    9  N   UNK N   1      26.395  24.744  -8.427  0.00  0.00    -0.332 N 
ATOM     10  HN  UNK N   1      26.141  25.709  -8.636  1.00  0.00     0.164 HD
HETATM   11  N   UNK N   1      27.479  23.072  -7.512  0.00  0.00    -0.271 N 
HETATM   12  O   UNK N   1      26.540  21.298  -8.557  0.00  0.00    -0.267 OA
ENDROOT
BRANCH   6  13
HETATM   13  C   UNK N   1      25.938  23.607 -10.566  0.00  0.00     0.113 C 
BRANCH  13  14
HETATM   14  C   UNK N   1      25.925  24.994 -11.128  0.00  0.00    -0.053 A 
HETATM   15  C   UNK N   1      24.716  25.664 -11.351  0.00  0.00     0.010 A 
HETATM   16  C   UNK N   1      24.721  26.938 -11.933  0.00  0.00     0.037 A 
HETATM   17  C   UNK N   1      25.932  27.538 -12.296  0.00  0.00     0.065 A 
HETATM   18  C   UNK N   1      27.138  26.872 -12.065  0.00  0.00     0.037 A 
HETATM   19  C   UNK N   1      27.134  25.604 -11.481  0.00  0.00     0.010 A 
BRANCH  17  20
HETATM   20  O   UNK N   1      25.937  28.752 -12.868  0.00  0.00    -0.361 OA
HETATM   21  H   UNK N   1      25.940  29.551 -12.380  0.00  0.00     0.217 HD
ENDBRANCH  17  20
ENDBRANCH  13  14
ENDBRANCH   6  13
BRANCH   6  22
HETATM   22  O   UNK N   1      24.415  23.507  -8.613  0.00  0.00    -0.199 OA
BRANCH  22  23
HETATM   23  O   UNK N   1      24.169  22.280  -8.187  0.00  0.00    -0.247 OA
HETATM   24  H   UNK N   1      24.880  21.620  -8.170  0.00  0.00     0.253 HD
ENDBRANCH  22  23
ENDBRANCH   6  22
BRANCH   2  25
HETATM   25  C   UNK N   1      27.936  26.748  -6.930  0.00  0.00     0.099 C 
BRANCH  25  26
HETATM   26  C   UNK N   1      27.220  27.474  -5.815  0.00  0.00    -0.052 A 
HETATM   27  C   UNK N   1      27.559  28.810  -5.566  0.00  0.00     0.007 A 
HETATM   28  C   UNK N   1      26.923  29.525  -4.546  0.00  0.00     0.001 A 
HETATM   29  C   UNK N   1      25.938  28.910  -3.769  0.00  0.00     0.000 A 
HETATM   30  C   UNK N   1      25.586  27.581  -4.013  0.00  0.00     0.001 A 
HETATM   31  C   UNK N   1      26.224  26.867  -5.031  0.00  0.00     0.007 A 
ENDBRANCH  25  26
ENDBRANCH   2  25
BRANCH   3  32
HETATM   32  C   UNK N   1      30.026  22.740  -4.827  0.00  0.00    -0.008 A 
HETATM   33  C   UNK N   1      30.297  23.437  -3.638  0.00  0.00     0.016 A 
HETATM   34  C   UNK N   1      31.187  22.912  -2.698  0.00  0.00     0.037 A 
HETATM   35  C   UNK N   1      31.812  21.688  -2.937  0.00  0.00     0.065 A 
HETATM   36  C   UNK N   1      31.547  20.985  -4.116  0.00  0.00     0.037 A 
HETATM   37  C   UNK N   1      30.661  21.512  -5.062  0.00  0.00     0.016 A 
BRANCH  35  38
HETATM   38  O   UNK N   1      32.669  21.185  -2.034  0.00  0.00    -0.361 OA
HETATM   39  H   UNK N   1      33.488  21.613  -1.878  0.00  0.00     0.217 HD
ENDBRANCH  35  38
ENDBRANCH   3  32
TORSDOF 9
ENDMDL
MODEL 7
REMARK VINA RESULT:      -8.0      3.031      5.470
REMARK  9 active torsions:
REMARK  status: ('A' for Active; 'I' for Inactive)
REMARK    1  A    between atoms: C_17  and  C_14 
REMARK    2  A    between atoms: C_22  and  C_14 
REMARK    3  A    between atoms: C_18  and  C_15 
REMARK    4  A    between atoms: C_26  and  C_15 
REMARK    5  A    between atoms: C_23  and  C_19 
REMARK    6  A    between atoms: O_32  and  C_20 
REMARK    7  A    between atoms: O_33  and  C_21 
REMARK    8  A    between atoms: C_26  and  O_36 
REMARK    9  A    between atoms: O_36  and  O_35 
ROOT
HETATM    1  C   UNK N   1      21.712  15.064   8.023  0.00  0.00     0.132 A 
HETATM    2  C   UNK N   1      22.208  13.620   5.704  0.00  0.00     0.059 A 
HETATM    3  C   UNK N   1      22.065  13.708   8.093  0.00  0.00     0.059 A 
HETATM    4  C   UNK N   1      21.899  14.984   5.670  0.00  0.00     0.136 A 
HETATM    5  C   UNK N   1      21.364  16.910   6.472  0.00  0.00     0.288 A 
HETATM    6  C   UNK N   1      21.515  17.104   4.979  0.00  0.00     0.255 A 
HETATM    7  N   UNK N   1      22.292  13.019   6.930  0.00  0.00    -0.354 N 
ATOM      8  HN  UNK N   1      22.531  12.029   6.980  1.00  0.00     0.166 HD
HETATM    9  N   UNK N   1      21.830  15.720   4.620  0.00  0.00    -0.332 N 
ATOM     10  HN  UNK N   1      21.974  15.386   3.666  1.00  0.00     0.164 HD
HETATM   11  N   UNK N   1      21.648  15.639   6.802  0.00  0.00    -0.271 N 
HETATM   12  O   UNK N   1      21.065  17.771   7.287  0.00  0.00    -0.267 OA
ENDROOT
BRANCH   6  13
HETATM   13  C   UNK N   1      20.202  17.543   4.298  0.00  0.00     0.113 C 
BRANCH  13  14
HETATM   14  C   UNK N   1      20.416  18.474   3.145  0.00  0.00    -0.053 A 
HETATM   15  C   UNK N   1      20.639  19.839   3.361  0.00  0.00     0.010 A 
HETATM   16  C   UNK N   1      20.777  20.705   2.269  0.00  0.00     0.037 A 
HETATM   17  C   UNK N   1      20.686  20.207   0.964  0.00  0.00     0.065 A 
HETATM   18  C   UNK N   1      20.471  18.843   0.750  0.00  0.00     0.037 A 
HETATM   19  C   UNK N   1      20.339  17.979   1.838  0.00  0.00     0.010 A 
BRANCH  17  20
HETATM   20  O   UNK N   1      20.803  21.038  -0.083  0.00  0.00    -0.361 OA
HETATM   21  H   UNK N   1      20.943  21.959   0.003  0.00  0.00     0.217 HD
ENDBRANCH  17  20
ENDBRANCH  13  14
ENDBRANCH   6  13
BRANCH   6  22
HETATM   22  O   UNK N   1      22.626  17.923   4.653  0.00  0.00    -0.199 OA
BRANCH  22  23
HETATM   23  O   UNK N   1      23.253  18.233   5.774  0.00  0.00    -0.247 OA
HETATM   24  H   UNK N   1      23.892  18.962   5.787  0.00  0.00     0.253 HD
ENDBRANCH  22  23
ENDBRANCH   6  22
BRANCH   2  25
HETATM   25  C   UNK N   1      22.463  12.857   4.424  0.00  0.00     0.099 C 
BRANCH  25  26
HETATM   26  C   UNK N   1      23.665  13.240   3.593  0.00  0.00    -0.052 A 
HETATM   27  C   UNK N   1      24.933  13.164   4.184  0.00  0.00     0.007 A 
HETATM   28  C   UNK N   1      26.077  13.506   3.455  0.00  0.00     0.001 A 
HETATM   29  C   UNK N   1      25.962  13.923   2.126  0.00  0.00     0.000 A 
HETATM   30  C   UNK N   1      24.704  13.995   1.525  0.00  0.00     0.001 A 
HETATM   31  C   UNK N   1      23.562  13.656   2.255  0.00  0.00     0.007 A 
ENDBRANCH  25  26
ENDBRANCH   2  25
BRANCH   3  32
HETATM   32  C   UNK N   1      22.250  13.052   9.402  0.00  0.00    -0.008 A 
HETATM   33  C   UNK N   1      21.141  12.775  10.218  0.00  0.00     0.016 A 
HETATM   34  C   UNK N   1      21.316  12.199  11.477  0.00  0.00     0.037 A 
HETATM   35  C   UNK N   1      22.599  11.891  11.931  0.00  0.00     0.065 A 
HETATM   36  C   UNK N   1      23.709  12.160  11.126  0.00  0.00     0.037 A 
HETATM   37  C   UNK N   1      23.537  12.744   9.867  0.00  0.00     0.016 A 
BRANCH  35  38
HETATM   38  O   UNK N   1      22.766  11.338  13.143  0.00  0.00    -0.361 OA
HETATM   39  H   UNK N   1      23.566  10.898  13.351  0.00  0.00     0.217 HD
ENDBRANCH  35  38
ENDBRANCH   3  32
TORSDOF 9
ENDMDL
MODEL 8
REMARK VINA RESULT:      -7.8     14.275     16.774
REMARK  9 active torsions:
REMARK  status: ('A' for Active; 'I' for Inactive)
REMARK    1  A    between atoms: C_17  and  C_14 
REMARK    2  A    between atoms: C_22  and  C_14 
REMARK    3  A    between atoms: C_18  and  C_15 
REMARK    4  A    between atoms: C_26  and  C_15 
REMARK    5  A    between atoms: C_23  and  C_19 
REMARK    6  A    between atoms: O_32  and  C_20 
REMARK    7  A    between atoms: O_33  and  C_21 
REMARK    8  A    between atoms: C_26  and  O_36 
REMARK    9  A    between atoms: O_36  and  O_35 
ROOT
HETATM    1  C   UNK N   1      35.276  13.450  14.085  0.00  0.00     0.132 A 
HETATM    2  C   UNK N   1      36.347  11.166  12.926  0.00  0.00     0.059 A 
HETATM    3  C   UNK N   1      35.660  12.362  14.884  0.00  0.00     0.059 A 
HETATM    4  C   UNK N   1      35.998  12.284  12.162  0.00  0.00     0.136 A 
HETATM    5  C   UNK N   1      35.214  14.256  11.787  0.00  0.00     0.288 A 
HETATM    6  C   UNK N   1      35.694  13.733  10.450  0.00  0.00     0.255 A 
HETATM    7  N   UNK N   1      36.175  11.243  14.281  0.00  0.00    -0.354 N 
ATOM      8  HN  UNK N   1      36.436  10.446  14.860  1.00  0.00     0.166 HD
HETATM    9  N   UNK N   1      36.140  12.409  10.892  0.00  0.00    -0.332 N 
ATOM     10  HN  UNK N   1      36.512  11.686  10.275  1.00  0.00     0.164 HD
HETATM   11  N   UNK N   1      35.469  13.355  12.752  0.00  0.00    -0.271 N 
HETATM   12  O   UNK N   1      34.702  15.345  11.996  0.00  0.00    -0.267 OA
ENDROOT
BRANCH   6  13
HETATM   13  C   UNK N   1      34.555  13.592   9.421  0.00  0.00     0.113 C 
BRANCH  13  14
HETATM   14  C   UNK N   1      34.464  14.750   8.476  0.00  0.00    -0.053 A 
HETATM   15  C   UNK N   1      33.840  15.941   8.863  0.00  0.00     0.010 A 
HETATM   16  C   UNK N   1      33.712  16.992   7.946  0.00  0.00     0.037 A 
HETATM   17  C   UNK N   1      34.202  16.848   6.643  0.00  0.00     0.065 A 
HETATM   18  C   UNK N   1      34.831  15.661   6.260  0.00  0.00     0.037 A 
HETATM   19  C   UNK N   1      34.963  14.616   7.175  0.00  0.00     0.010 A 
BRANCH  17  20
HETATM   20  O   UNK N   1      34.065  17.849   5.758  0.00  0.00    -0.361 OA
HETATM   21  H   UNK N   1      33.313  18.405   5.722  0.00  0.00     0.217 HD
ENDBRANCH  17  20
ENDBRANCH  13  14
ENDBRANCH   6  13
BRANCH   6  22
HETATM   22  O   UNK N   1      36.815  14.451   9.963  0.00  0.00    -0.199 OA
BRANCH  22  23
HETATM   23  O   UNK N   1      37.041  15.466  10.779  0.00  0.00    -0.247 OA
HETATM   24  H   UNK N   1      36.302  16.005  11.101  0.00  0.00     0.253 HD
ENDBRANCH  22  23
ENDBRANCH   6  22
BRANCH   2  25
HETATM   25  C   UNK N   1      36.919   9.932  12.266  0.00  0.00     0.099 C 
BRANCH  25  26
HETATM   26  C   UNK N   1      36.001   8.754  12.040  0.00  0.00    -0.052 A 
HETATM   27  C   UNK N   1      34.883   8.931  11.215  0.00  0.00     0.007 A 
HETATM   28  C   UNK N   1      34.004   7.870  10.974  0.00  0.00     0.001 A 
HETATM   29  C   UNK N   1      34.239   6.620  11.554  0.00  0.00     0.000 A 
HETATM   30  C   UNK N   1      35.354   6.430  12.371  0.00  0.00     0.001 A 
HETATM   31  C   UNK N   1      36.230   7.491  12.613  0.00  0.00     0.007 A 
ENDBRANCH  25  26
ENDBRANCH   2  25
BRANCH   3  32
HETATM   32  C   UNK N   1      35.568  12.446  16.354  0.00  0.00    -0.008 A 
HETATM   33  C   UNK N   1      35.609  11.279  17.134  0.00  0.00     0.016 A 
HETATM   34  C   UNK N   1      35.474  11.350  18.521  0.00  0.00     0.037 A 
HETATM   35  C   UNK N   1      35.300  12.588  19.142  0.00  0.00     0.065 A 
HETATM   36  C   UNK N   1      35.260  13.756  18.376  0.00  0.00     0.037 A 
HETATM   37  C   UNK N   1      35.388  13.686  16.985  0.00  0.00     0.016 A 
BRANCH  35  38
HETATM   38  O   UNK N   1      35.168  12.655  20.477  0.00  0.00    -0.361 OA
HETATM   39  H   UNK N   1      34.317  12.605  20.867  0.00  0.00     0.217 HD
ENDBRANCH  35  38
ENDBRANCH   3  32
TORSDOF 9
ENDMDL
MODEL 9
REMARK VINA RESULT:      -7.7      7.088      9.910
REMARK  9 active torsions:
REMARK  status: ('A' for Active; 'I' for Inactive)
REMARK    1  A    between atoms: C_17  and  C_14 
REMARK    2  A    between atoms: C_22  and  C_14 
REMARK    3  A    between atoms: C_18  and  C_15 
REMARK    4  A    between atoms: C_26  and  C_15 
REMARK    5  A    between atoms: C_23  and  C_19 
REMARK    6  A    between atoms: O_32  and  C_20 
REMARK    7  A    between atoms: O_33  and  C_21 
REMARK    8  A    between atoms: C_26  and  O_36 
REMARK    9  A    between atoms: O_36  and  O_35 
ROOT
HETATM    1  C   UNK N   1      28.283  18.346   5.163  0.00  0.00     0.132 A 
HETATM    2  C   UNK N   1      27.504  16.418   3.323  0.00  0.00     0.059 A 
HETATM    3  C   UNK N   1      29.201  17.388   4.709  0.00  0.00     0.059 A 
HETATM    4  C   UNK N   1      26.626  17.415   3.761  0.00  0.00     0.136 A 
HETATM    5  C   UNK N   1      25.989  19.123   4.908  0.00  0.00     0.288 A 
HETATM    6  C   UNK N   1      24.817  18.748   4.026  0.00  0.00     0.255 A 
HETATM    7  N   UNK N   1      28.783  16.441   3.809  0.00  0.00    -0.354 N 
ATOM      8  HN  UNK N   1      29.446  15.733   3.493  1.00  0.00     0.166 HD
HETATM    9  N   UNK N   1      25.413  17.580   3.374  0.00  0.00    -0.332 N 
ATOM     10  HN  UNK N   1      24.930  16.979   2.705  1.00  0.00     0.164 HD
HETATM   11  N   UNK N   1      27.030  18.312   4.659  0.00  0.00    -0.271 N 
HETATM   12  O   UNK N   1      26.024  20.045   5.710  0.00  0.00    -0.267 OA
ENDROOT
BRANCH   6  13
HETATM   13  C   UNK N   1      23.573  18.327   4.834  0.00  0.00     0.113 C 
BRANCH  13  14
HETATM   14  C   UNK N   1      22.322  18.279   4.011  0.00  0.00    -0.053 A 
HETATM   15  C   UNK N   1      21.493  19.401   3.907  0.00  0.00     0.010 A 
HETATM   16  C   UNK N   1      20.296  19.320   3.183  0.00  0.00     0.037 A 
HETATM   17  C   UNK N   1      19.929  18.116   2.570  0.00  0.00     0.065 A 
HETATM   18  C   UNK N   1      20.762  16.999   2.669  0.00  0.00     0.037 A 
HETATM   19  C   UNK N   1      21.956  17.082   3.386  0.00  0.00     0.010 A 
BRANCH  17  20
HETATM   20  O   UNK N   1      18.775  18.032   1.889  0.00  0.00    -0.361 OA
HETATM   21  H   UNK N   1      18.251  17.257   1.857  0.00  0.00     0.217 HD
ENDBRANCH  17  20
ENDBRANCH  13  14
ENDBRANCH   6  13
BRANCH   6  22
HETATM   22  O   UNK N   1      24.550  19.731   3.040  0.00  0.00    -0.199 OA
BRANCH  22  23
HETATM   23  O   UNK N   1      24.512  20.912   3.634  0.00  0.00    -0.247 OA
HETATM   24  H   UNK N   1      23.863  21.576   3.354  0.00  0.00     0.253 HD
ENDBRANCH  22  23
ENDBRANCH   6  22
BRANCH   2  25
HETATM   25  C   UNK N   1      27.050  15.375   2.329  0.00  0.00     0.099 C 
BRANCH  25  26
HETATM   26  C   UNK N   1      27.776  14.050   2.304  0.00  0.00    -0.052 A 
HETATM   27  C   UNK N   1      27.308  13.021   3.131  0.00  0.00     0.007 A 
HETATM   28  C   UNK N   1      27.945  11.775   3.142  0.00  0.00     0.001 A 
HETATM   29  C   UNK N   1      29.053  11.547   2.322  0.00  0.00     0.000 A 
HETATM   30  C   UNK N   1      29.523  12.564   1.489  0.00  0.00     0.001 A 
HETATM   31  C   UNK N   1      28.887  13.808   1.480  0.00  0.00     0.007 A 
ENDBRANCH  25  26
ENDBRANCH   2  25
BRANCH   3  32
HETATM   32  C   UNK N   1      30.610  17.437   5.145  0.00  0.00    -0.008 A 
HETATM   33  C   UNK N   1      31.635  17.639   4.207  0.00  0.00     0.016 A 
HETATM   34  C   UNK N   1      32.972  17.638   4.609  0.00  0.00     0.037 A 
HETATM   35  C   UNK N   1      33.296  17.439   5.952  0.00  0.00     0.065 A 
HETATM   36  C   UNK N   1      32.283  17.239   6.894  0.00  0.00     0.037 A 
HETATM   37  C   UNK N   1      30.944  17.233   6.492  0.00  0.00     0.016 A 
BRANCH  35  38
HETATM   38  O   UNK N   1      34.582  17.436   6.337  0.00  0.00    -0.361 OA
HETATM   39  H   UNK N   1      34.877  18.039   6.990  0.00  0.00     0.217 HD
ENDBRANCH  35  38
ENDBRANCH   3  32
TORSDOF 9
ENDMDL
