REMARK  9 active torsions:
REMARK  status: ('A' for Active; 'I' for Inactive)
REMARK    1  A    between atoms: N_20  and  C_2 
REMARK    2  A    between atoms: C_6  and  C_3 
REMARK    3  A    between atoms: O_26  and  C_3 
REMARK    4  A    between atoms: C_8  and  O_22 
REMARK    5  A    between atoms: C_9  and  O_23 
REMARK    6  A    between atoms: N_13  and  C_10 
REMARK    7  A    between atoms: C_12  and  N_21 
REMARK    8  A    between atoms: S_28  and  N_20 
REMARK    9  A    between atoms: S_28  and  O_26 
ROOT
HETATM    1  C   UNK N   1      -0.028  -1.675  -0.542  0.00  0.00     0.180 C 
HETATM    2  C   UNK N   1       1.409  -2.222  -0.482  0.00  0.00     0.182 C 
HETATM    3  C   UNK N   1       2.209  -0.951  -0.211  0.00  0.00     0.198 C 
HETATM    4  C   UNK N   1       1.115   0.033   0.171  0.00  0.00     0.262 C 
HETATM    5  O   UNK N   1       0.074  -0.281  -0.731  0.00  0.00    -0.353 OA
ENDROOT
BRANCH   4   6
HETATM    6  N   UNK N   1       1.470   1.457   0.125  0.00  0.00    -0.297 N 
HETATM    7  C   UNK N   1       0.581   2.467   0.315  0.00  0.00     0.188 A 
HETATM    8  N   UNK N   1       1.192   3.683   0.299  0.00  0.00    -0.346 N 
HETATM    9  C   UNK N   1       2.491   3.399   0.107  0.00  0.00     0.122 A 
ATOM     10  HN  UNK N   1       0.762   4.602   0.408  1.00  0.00     0.167 HD
HETATM   11  C   UNK N   1       3.583   4.249   0.052  0.00  0.00     0.131 A 
HETATM   12  C   UNK N   1       2.660   2.066  -0.008  0.00  0.00     0.142 A 
HETATM   13  N   UNK N   1       4.819   3.693  -0.121  0.00  0.00    -0.337 N 
HETATM   14  C   UNK N   1       4.970   2.332  -0.238  0.00  0.00     0.183 A 
ATOM     15  HN  UNK N   1       5.640   4.296  -0.165  1.00  0.00     0.168 HD
HETATM   16  N   UNK N   1       3.882   1.504  -0.175  0.00  0.00    -0.336 N 
ATOM     17  HN  UNK N   1       3.987   0.493  -0.253  1.00  0.00     0.168 HD
BRANCH  11  18
HETATM   18  N   UNK N   1       3.435   5.643   0.196  0.00  0.00    -0.383 N 
HETATM   19  H   UNK N   1       4.226   6.220   0.296  0.00  0.00     0.157 HD
HETATM   20  H   UNK N   1       2.534   6.042   0.196  0.00  0.00     0.157 HD
ENDBRANCH  11  18
ENDBRANCH   4   6
BRANCH   3  21
HETATM   21  O   UNK N   1       3.179  -1.119   0.780  0.00  0.00    -0.388 OA
HETATM   22  H   UNK N   1       3.414  -1.761   1.468  0.00  0.00     0.210 HD
ENDBRANCH   3  21
BRANCH   2  23
HETATM   23  O   UNK N   1       1.817  -2.777  -1.701  0.00  0.00    -0.390 OA
HETATM   24  H   UNK N   1       1.625  -3.214  -2.545  0.00  0.00     0.210 HD
ENDBRANCH   2  23
BRANCH   1  25
HETATM   25  C   UNK N   1      -0.972  -2.361  -1.530  0.00  0.00     0.226 C 
BRANCH  25  26
HETATM   26  O   UNK N   1      -1.232  -3.684  -1.135  0.00  0.00    -0.257 OA
BRANCH  26  27
HETATM   27  S   UNK N   1      -2.485  -3.640   0.067  0.00  0.00     0.357 S 
HETATM   28  O   UNK N   1      -1.878  -3.687   1.480  0.00  0.00    -0.176 OA
HETATM   29  O   UNK N   1      -3.261  -2.312   0.023  0.00  0.00    -0.176 OA
BRANCH  27  30
HETATM   30  N   UNK N   1      -3.671  -4.941  -0.071  0.00  0.00    -0.297 N 
HETATM   31  H   UNK N   1      -4.639  -4.846  -0.378  0.00  0.00     0.174 HD
BRANCH  30  32
HETATM   32  C   UNK N   1      -3.013  -6.170   0.335  0.00  0.00     0.130 C 
HETATM   33  C   UNK N   1      -4.054  -7.243   0.571  0.00  0.00     0.027 C 
ENDBRANCH  30  32
ENDBRANCH  27  30
ENDBRANCH  26  27
ENDBRANCH  25  26
ENDBRANCH   1  25
TORSDOF 9
