MODEL 1
REMARK VINA RESULT:      -3.4      0.000      0.000
REMARK  7 active torsions:
REMARK  status: ('A' for Active; 'I' for Inactive)
REMARK    1  A    between atoms: C_2  and  O_1 
REMARK    2  A    between atoms: C_2  and  C_3 
REMARK    3  A    between atoms: C_2  and  C_5 
REMARK    4  A    between atoms: C_3  and  S_4 
REMARK    5  A    between atoms: C_5  and  O_6 
REMARK    6  A    between atoms: C_5  and  C_7 
REMARK    7  A    between atoms: C_7  and  S_8 
ROOT
HETATM    1  C   UNK N   1      34.925  16.870   9.515  0.00  0.00     0.156 C 
ENDROOT
BRANCH   1   2
HETATM    2  O   UNK N   1      35.024  17.210  10.864  0.00  0.00    -0.392 OA
HETATM    3  H   UNK N   1      34.644  18.042  11.184  0.00  0.00     0.210 HD
ENDBRANCH   1   2
BRANCH   1   4
HETATM    4  C   UNK N   1      35.246  15.398   9.219  0.00  0.00     0.105 C 
BRANCH   4   5
HETATM    5  S   UNK N   1      36.639  14.665  10.132  0.00  0.00    -0.180 SA
HETATM    6  H   UNK N   1      37.367  15.429  10.991  0.00  0.00     0.101 HD
ENDBRANCH   4   5
ENDBRANCH   1   4
BRANCH   1   7
HETATM    7  C   UNK N   1      34.519  17.981   8.518  0.00  0.00     0.156 C 
BRANCH   7   8
HETATM    8  O   UNK N   1      35.279  19.149   8.500  0.00  0.00    -0.392 OA
HETATM    9  H   UNK N   1      36.247  19.097   8.470  0.00  0.00     0.210 HD
ENDBRANCH   7   8
BRANCH   7  10
HETATM   10  C   UNK N   1      33.359  17.976   7.513  0.00  0.00     0.105 C 
BRANCH  10  11
HETATM   11  S   UNK N   1      31.731  17.459   8.146  0.00  0.00    -0.180 SA
HETATM   12  H   UNK N   1      30.811  18.395   8.501  0.00  0.00     0.101 HD
ENDBRANCH  10  11
ENDBRANCH   7  10
ENDBRANCH   1   7
TORSDOF 7
ENDMDL
MODEL 2
REMARK VINA RESULT:      -3.4     13.666     15.099
REMARK  7 active torsions:
REMARK  status: ('A' for Active; 'I' for Inactive)
REMARK    1  A    between atoms: C_2  and  O_1 
REMARK    2  A    between atoms: C_2  and  C_3 
REMARK    3  A    between atoms: C_2  and  C_5 
REMARK    4  A    between atoms: C_3  and  S_4 
REMARK    5  A    between atoms: C_5  and  O_6 
REMARK    6  A    between atoms: C_5  and  C_7 
REMARK    7  A    between atoms: C_7  and  S_8 
ROOT
HETATM    1  C   UNK N   1      21.799  20.347   2.535  0.00  0.00     0.156 C 
ENDROOT
BRANCH   1   2
HETATM    2  O   UNK N   1      21.664  21.730   2.643  0.00  0.00    -0.392 OA
HETATM    3  H   UNK N   1      21.951  22.184   3.450  0.00  0.00     0.210 HD
ENDBRANCH   1   2
BRANCH   1   4
HETATM    4  C   UNK N   1      22.986  19.774   3.323  0.00  0.00     0.105 C 
BRANCH   4   5
HETATM    5  S   UNK N   1      24.628  20.459   2.940  0.00  0.00    -0.180 SA
HETATM    6  H   UNK N   1      25.266  20.098   1.794  0.00  0.00     0.101 HD
ENDBRANCH   4   5
ENDBRANCH   1   4
BRANCH   1   7
HETATM    7  C   UNK N   1      20.771  19.585   1.665  0.00  0.00     0.156 C 
BRANCH   7   8
HETATM    8  O   UNK N   1      20.666  19.941   0.321  0.00  0.00    -0.392 OA
HETATM    9  H   UNK N   1      19.924  20.488   0.021  0.00  0.00     0.210 HD
ENDBRANCH   7   8
BRANCH   7  10
HETATM   10  C   UNK N   1      19.821  18.457   2.087  0.00  0.00     0.105 C 
BRANCH  10  11
HETATM   11  S   UNK N   1      20.574  16.829   2.401  0.00  0.00    -0.180 SA
HETATM   12  H   UNK N   1      21.925  16.683   2.352  0.00  0.00     0.101 HD
ENDBRANCH  10  11
ENDBRANCH   7  10
ENDBRANCH   1   7
TORSDOF 7
ENDMDL
MODEL 3
REMARK VINA RESULT:      -3.4     11.950     12.951
REMARK  7 active torsions:
REMARK  status: ('A' for Active; 'I' for Inactive)
REMARK    1  A    between atoms: C_2  and  O_1 
REMARK    2  A    between atoms: C_2  and  C_3 
REMARK    3  A    between atoms: C_2  and  C_5 
REMARK    4  A    between atoms: C_3  and  S_4 
REMARK    5  A    between atoms: C_5  and  O_6 
REMARK    6  A    between atoms: C_5  and  C_7 
REMARK    7  A    between atoms: C_7  and  S_8 
ROOT
HETATM    1  C   UNK N   1      22.629  12.088  11.339  0.00  0.00     0.156 C 
ENDROOT
BRANCH   1   2
HETATM    2  O   UNK N   1      22.562  11.524  12.612  0.00  0.00    -0.392 OA
HETATM    3  H   UNK N   1      21.865  11.799  13.228  0.00  0.00     0.210 HD
ENDBRANCH   1   2
BRANCH   1   4
HETATM    4  C   UNK N   1      21.259  12.439  10.740  0.00  0.00     0.105 C 
BRANCH   4   5
HETATM    5  S   UNK N   1      21.177  13.938   9.710  0.00  0.00    -0.180 SA
HETATM    6  H   UNK N   1      20.633  15.079  10.213  0.00  0.00     0.101 HD
ENDBRANCH   4   5
ENDBRANCH   1   4
BRANCH   1   7
HETATM    7  C   UNK N   1      24.028  12.284  10.708  0.00  0.00     0.156 C 
BRANCH   7   8
HETATM    8  O   UNK N   1      25.107  12.486  11.567  0.00  0.00    -0.392 OA
HETATM    9  H   UNK N   1      25.661  11.736  11.835  0.00  0.00     0.210 HD
ENDBRANCH   7   8
BRANCH   7  10
HETATM   10  C   UNK N   1      24.406  12.287   9.220  0.00  0.00     0.105 C 
BRANCH  10  11
HETATM   11  S   UNK N   1      23.612  11.027   8.173  0.00  0.00    -0.180 SA
HETATM   12  H   UNK N   1      22.815  10.079   8.735  0.00  0.00     0.101 HD
ENDBRANCH  10  11
ENDBRANCH   7  10
ENDBRANCH   1   7
TORSDOF 7
ENDMDL
MODEL 4
REMARK VINA RESULT:      -3.4      1.438      3.845
REMARK  7 active torsions:
REMARK  status: ('A' for Active; 'I' for Inactive)
REMARK    1  A    between atoms: C_2  and  O_1 
REMARK    2  A    between atoms: C_2  and  C_3 
REMARK    3  A    between atoms: C_2  and  C_5 
REMARK    4  A    between atoms: C_3  and  S_4 
REMARK    5  A    between atoms: C_5  and  O_6 
REMARK    6  A    between atoms: C_5  and  C_7 
REMARK    7  A    between atoms: C_7  and  S_8 
ROOT
HETATM    1  C   UNK N   1      33.644  17.687   7.220  0.00  0.00     0.156 C 
ENDROOT
BRANCH   1   2
HETATM    2  O   UNK N   1      34.154  17.949   5.949  0.00  0.00    -0.392 OA
HETATM    3  H   UNK N   1      34.526  17.229   5.417  0.00  0.00     0.210 HD
ENDBRANCH   1   2
BRANCH   1   4
HETATM    4  C   UNK N   1      32.197  17.172   7.216  0.00  0.00     0.105 C 
BRANCH   4   5
HETATM    5  S   UNK N   1      31.101  17.805   8.524  0.00  0.00    -0.180 SA
HETATM    6  H   UNK N   1      30.001  18.536   8.194  0.00  0.00     0.101 HD
ENDBRANCH   4   5
ENDBRANCH   1   4
BRANCH   1   7
HETATM    7  C   UNK N   1      34.567  17.939   8.435  0.00  0.00     0.156 C 
BRANCH   7   8
HETATM    8  O   UNK N   1      35.246  19.155   8.496  0.00  0.00    -0.392 OA
HETATM    9  H   UNK N   1      35.865  19.329   9.222  0.00  0.00     0.210 HD
ENDBRANCH   7   8
BRANCH   7  10
HETATM   10  C   UNK N   1      34.849  17.007   9.622  0.00  0.00     0.105 C 
BRANCH  10  11
HETATM   11  S   UNK N   1      35.208  15.266   9.227  0.00  0.00    -0.180 SA
HETATM   12  H   UNK N   1      34.471  14.617   8.287  0.00  0.00     0.101 HD
ENDBRANCH  10  11
ENDBRANCH   7  10
ENDBRANCH   1   7
TORSDOF 7
ENDMDL
MODEL 5
REMARK VINA RESULT:      -3.4      1.021      3.678
REMARK  7 active torsions:
REMARK  status: ('A' for Active; 'I' for Inactive)
REMARK    1  A    between atoms: C_2  and  O_1 
REMARK    2  A    between atoms: C_2  and  C_3 
REMARK    3  A    between atoms: C_2  and  C_5 
REMARK    4  A    between atoms: C_3  and  S_4 
REMARK    5  A    between atoms: C_5  and  O_6 
REMARK    6  A    between atoms: C_5  and  C_7 
REMARK    7  A    between atoms: C_7  and  S_8 
ROOT
HETATM    1  C   UNK N   1      34.571  17.944   8.350  0.00  0.00     0.156 C 
ENDROOT
BRANCH   1   2
HETATM    2  O   UNK N   1      35.203  19.184   8.427  0.00  0.00    -0.392 OA
HETATM    3  H   UNK N   1      35.022  19.776   9.173  0.00  0.00     0.210 HD
ENDBRANCH   1   2
BRANCH   1   4
HETATM    4  C   UNK N   1      33.727  17.752   7.081  0.00  0.00     0.105 C 
BRANCH   4   5
HETATM    5  S   UNK N   1      31.980  17.301   7.321  0.00  0.00    -0.180 SA
HETATM    6  H   UNK N   1      31.002  18.214   7.074  0.00  0.00     0.101 HD
ENDBRANCH   4   5
ENDBRANCH   1   4
BRANCH   1   7
HETATM    7  C   UNK N   1      34.789  16.948   9.513  0.00  0.00     0.156 C 
BRANCH   7   8
HETATM    8  O   UNK N   1      35.658  17.323  10.537  0.00  0.00    -0.392 OA
HETATM    9  H   UNK N   1      36.138  18.164  10.481  0.00  0.00     0.210 HD
ENDBRANCH   7   8
BRANCH   7  10
HETATM   10  C   UNK N   1      34.163  15.560   9.704  0.00  0.00     0.105 C 
BRANCH  10  11
HETATM   11  S   UNK N   1      34.636  14.649  11.209  0.00  0.00    -0.180 SA
HETATM   12  H   UNK N   1      35.401  13.530  11.113  0.00  0.00     0.101 HD
ENDBRANCH  10  11
ENDBRANCH   7  10
ENDBRANCH   1   7
TORSDOF 7
ENDMDL
MODEL 6
REMARK VINA RESULT:      -3.3      1.676      2.186
REMARK  7 active torsions:
REMARK  status: ('A' for Active; 'I' for Inactive)
REMARK    1  A    between atoms: C_2  and  O_1 
REMARK    2  A    between atoms: C_2  and  C_3 
REMARK    3  A    between atoms: C_2  and  C_5 
REMARK    4  A    between atoms: C_3  and  S_4 
REMARK    5  A    between atoms: C_5  and  O_6 
REMARK    6  A    between atoms: C_5  and  C_7 
REMARK    7  A    between atoms: C_7  and  S_8 
ROOT
HETATM    1  C   UNK N   1      34.583  17.972   8.451  0.00  0.00     0.156 C 
ENDROOT
BRANCH   1   2
HETATM    2  O   UNK N   1      35.280  19.178   8.508  0.00  0.00    -0.392 OA
HETATM    3  H   UNK N   1      35.089  19.816   9.212  0.00  0.00     0.210 HD
ENDBRANCH   1   2
BRANCH   1   4
HETATM    4  C   UNK N   1      34.875  17.028   9.627  0.00  0.00     0.105 C 
BRANCH   4   5
HETATM    5  S   UNK N   1      35.203  15.286   9.215  0.00  0.00    -0.180 SA
HETATM    6  H   UNK N   1      36.453  14.772   9.378  0.00  0.00     0.101 HD
ENDBRANCH   4   5
ENDBRANCH   1   4
BRANCH   1   7
HETATM    7  C   UNK N   1      33.634  17.741   7.252  0.00  0.00     0.156 C 
BRANCH   7   8
HETATM    8  O   UNK N   1      34.151  17.915   5.970  0.00  0.00    -0.392 OA
HETATM    9  H   UNK N   1      34.140  17.180   5.338  0.00  0.00     0.210 HD
ENDBRANCH   7   8
BRANCH   7  10
HETATM   10  C   UNK N   1      32.154  17.333   7.277  0.00  0.00     0.105 C 
BRANCH  10  11
HETATM   11  S   UNK N   1      31.368  17.008   5.667  0.00  0.00    -0.180 SA
HETATM   12  H   UNK N   1      32.073  16.401   4.676  0.00  0.00     0.101 HD
ENDBRANCH  10  11
ENDBRANCH   7  10
ENDBRANCH   1   7
TORSDOF 7
ENDMDL
MODEL 7
REMARK VINA RESULT:      -3.3      2.730      4.614
REMARK  7 active torsions:
REMARK  status: ('A' for Active; 'I' for Inactive)
REMARK    1  A    between atoms: C_2  and  O_1 
REMARK    2  A    between atoms: C_2  and  C_3 
REMARK    3  A    between atoms: C_2  and  C_5 
REMARK    4  A    between atoms: C_3  and  S_4 
REMARK    5  A    between atoms: C_5  and  O_6 
REMARK    6  A    between atoms: C_5  and  C_7 
REMARK    7  A    between atoms: C_7  and  S_8 
ROOT
HETATM    1  C   UNK N   1      34.567  15.262  10.444  0.00  0.00     0.156 C 
ENDROOT
BRANCH   1   2
HETATM    2  O   UNK N   1      33.456  14.984  11.239  0.00  0.00    -0.392 OA
HETATM    3  H   UNK N   1      33.572  14.561  12.104  0.00  0.00     0.210 HD
ENDBRANCH   1   2
BRANCH   1   4
HETATM    4  C   UNK N   1      34.216  15.698   9.014  0.00  0.00     0.105 C 
BRANCH   4   5
HETATM    5  S   UNK N   1      34.321  17.478   8.653  0.00  0.00    -0.180 SA
HETATM    6  H   UNK N   1      33.554  18.360   9.350  0.00  0.00     0.101 HD
ENDBRANCH   4   5
ENDBRANCH   1   4
BRANCH   1   7
HETATM    7  C   UNK N   1      35.968  15.103  11.079  0.00  0.00     0.156 C 
BRANCH   7   8
HETATM    8  O   UNK N   1      36.897  16.120  10.868  0.00  0.00    -0.392 OA
HETATM    9  H   UNK N   1      37.170  16.689  11.605  0.00  0.00     0.210 HD
ENDBRANCH   7   8
BRANCH   7  10
HETATM   10  C   UNK N   1      36.496  13.944  11.936  0.00  0.00     0.105 C 
BRANCH  10  11
HETATM   11  S   UNK N   1      36.167  14.035  13.725  0.00  0.00    -0.180 SA
HETATM   12  H   UNK N   1      36.636  15.084  14.450  0.00  0.00     0.101 HD
ENDBRANCH  10  11
ENDBRANCH   7  10
ENDBRANCH   1   7
TORSDOF 7
ENDMDL
MODEL 8
REMARK VINA RESULT:      -3.3      2.137      2.577
REMARK  7 active torsions:
REMARK  status: ('A' for Active; 'I' for Inactive)
REMARK    1  A    between atoms: C_2  and  O_1 
REMARK    2  A    between atoms: C_2  and  C_3 
REMARK    3  A    between atoms: C_2  and  C_5 
REMARK    4  A    between atoms: C_3  and  S_4 
REMARK    5  A    between atoms: C_5  and  O_6 
REMARK    6  A    between atoms: C_5  and  C_7 
REMARK    7  A    between atoms: C_7  and  S_8 
ROOT
HETATM    1  C   UNK N   1      34.419  15.089  10.834  0.00  0.00     0.156 C 
ENDROOT
BRANCH   1   2
HETATM    2  O   UNK N   1      33.063  14.976  11.137  0.00  0.00    -0.392 OA
HETATM    3  H   UNK N   1      32.765  15.035  12.057  0.00  0.00     0.210 HD
ENDBRANCH   1   2
BRANCH   1   4
HETATM    4  C   UNK N   1      35.291  13.993  11.465  0.00  0.00     0.105 C 
BRANCH   4   5
HETATM    5  S   UNK N   1      36.073  14.388  13.061  0.00  0.00    -0.180 SA
HETATM    6  H   UNK N   1      37.087  15.294  13.115  0.00  0.00     0.101 HD
ENDBRANCH   4   5
ENDBRANCH   1   4
BRANCH   1   7
HETATM    7  C   UNK N   1      34.864  16.264   9.932  0.00  0.00     0.156 C 
BRANCH   7   8
HETATM    8  O   UNK N   1      35.635  17.272  10.508  0.00  0.00    -0.392 OA
HETATM    9  H   UNK N   1      36.603  17.235  10.450  0.00  0.00     0.210 HD
ENDBRANCH   7   8
BRANCH   7  10
HETATM   10  C   UNK N   1      34.565  16.482   8.442  0.00  0.00     0.105 C 
BRANCH  10  11
HETATM   11  S   UNK N   1      34.022  18.150   7.953  0.00  0.00    -0.180 SA
HETATM   12  H   UNK N   1      32.924  18.705   8.532  0.00  0.00     0.101 HD
ENDBRANCH  10  11
ENDBRANCH   7  10
ENDBRANCH   1   7
TORSDOF 7
ENDMDL
MODEL 9
REMARK VINA RESULT:      -3.2      2.254      4.452
REMARK  7 active torsions:
REMARK  status: ('A' for Active; 'I' for Inactive)
REMARK    1  A    between atoms: C_2  and  O_1 
REMARK    2  A    between atoms: C_2  and  C_3 
REMARK    3  A    between atoms: C_2  and  C_5 
REMARK    4  A    between atoms: C_3  and  S_4 
REMARK    5  A    between atoms: C_5  and  O_6 
REMARK    6  A    between atoms: C_5  and  C_7 
REMARK    7  A    between atoms: C_7  and  S_8 
ROOT
HETATM    1  C   UNK N   1      34.911  16.371  10.008  0.00  0.00     0.156 C 
ENDROOT
BRANCH   1   2
HETATM    2  O   UNK N   1      35.697  17.460  10.384  0.00  0.00    -0.392 OA
HETATM    3  H   UNK N   1      36.663  17.389  10.366  0.00  0.00     0.210 HD
ENDBRANCH   1   2
BRANCH   1   4
HETATM    4  C   UNK N   1      34.472  16.398   8.537  0.00  0.00     0.105 C 
BRANCH   4   5
HETATM    5  S   UNK N   1      34.038  18.024   7.843  0.00  0.00    -0.180 SA
HETATM    6  H   UNK N   1      33.030  18.129   6.935  0.00  0.00     0.101 HD
ENDBRANCH   4   5
ENDBRANCH   1   4
BRANCH   1   7
HETATM    7  C   UNK N   1      34.589  15.306  11.083  0.00  0.00     0.156 C 
BRANCH   7   8
HETATM    8  O   UNK N   1      33.270  14.870  11.192  0.00  0.00    -0.392 OA
HETATM    9  H   UNK N   1      32.813  14.508  10.417  0.00  0.00     0.210 HD
ENDBRANCH   7   8
BRANCH   7  10
HETATM   10  C   UNK N   1      35.550  14.642  12.078  0.00  0.00     0.105 C 
BRANCH  10  11
HETATM   11  S   UNK N   1      35.196  12.913  12.527  0.00  0.00    -0.180 SA
HETATM   12  H   UNK N   1      34.813  12.027  11.570  0.00  0.00     0.101 HD
ENDBRANCH  10  11
ENDBRANCH   7  10
ENDBRANCH   1   7
TORSDOF 7
ENDMDL
