REMARK WARNING: 32 MAX_TORS EXCEEDED!!!
REMARK  42 active torsions:
REMARK  status: ('A' for Active; 'I' for Inactive)
REMARK    1  A    between atoms: C_5  and  C_3 
REMARK    2  A    between atoms: C_6  and  C_4 
REMARK    3  A    between atoms: C_7  and  C_5 
REMARK    4  A    between atoms: C_8  and  C_6 
REMARK    5  A    between atoms: C_9  and  C_7 
REMARK    6  A    between atoms: C_10  and  C_8 
REMARK    7  A    between atoms: C_11  and  C_9 
REMARK    8  A    between atoms: C_12  and  C_10 
REMARK    9  A    between atoms: C_13  and  C_11 
REMARK   10  A    between atoms: C_14  and  C_12 
REMARK   11  A    between atoms: C_15  and  C_13 
REMARK   12  A    between atoms: C_16  and  C_14 
REMARK   13  A    between atoms: C_17  and  C_15 
REMARK   14  A    between atoms: C_19  and  C_16 
REMARK   15  A    between atoms: C_20  and  C_18 
REMARK   16  A    between atoms: C_21  and  C_19 
REMARK   17  A    between atoms: C_22  and  C_20 
REMARK   18  A    between atoms: C_23  and  C_21 
REMARK   19  A    between atoms: C_24  and  C_22 
REMARK   20  A    between atoms: C_25  and  C_23 
REMARK   21  A    between atoms: C_26  and  C_24 
REMARK   22  A    between atoms: C_27  and  C_25 
REMARK   23  A    between atoms: C_28  and  C_26 
REMARK   24  A    between atoms: C_29  and  C_27 
REMARK   25  A    between atoms: C_30  and  C_28 
REMARK   26  A    between atoms: C_31  and  C_29 
REMARK   27  A    between atoms: C_32  and  C_30 
REMARK   28  A    between atoms: C_36  and  C_31 
REMARK   29  A    between atoms: C_37  and  C_32 
REMARK   30  A    between atoms: C_35  and  C_33 
REMARK   31  A    between atoms: O_53  and  C_33 
REMARK   32  A    between atoms: C_35  and  C_34 
REMARK   33  A    between atoms: O_54  and  C_34 
REMARK   34  A    between atoms: C_35  and  O_55 
REMARK   35  A    between atoms: O_53  and  C_36 
REMARK   36  A    between atoms: O_55  and  C_37 
REMARK   37  A    between atoms: C_38  and  O_46 
REMARK   38  A    between atoms: C_41  and  O_49 
REMARK   39  A    between atoms: C_42  and  O_50 
REMARK   40  A    between atoms: C_43  and  O_56 
REMARK   41  A    between atoms: P_57  and  O_54 
REMARK   42  A    between atoms: P_57  and  O_56 
ROOT
HETATM    1  C   UNK N   1      24.401  20.956   0.592  0.00  0.00     0.180 C 
HETATM    2  C   UNK N   1      23.004  21.404   0.120  0.00  0.00     0.180 C 
HETATM    3  C   UNK N   1      24.760  19.561   0.048  0.00  0.00     0.180 C 
HETATM    4  C   UNK N   1      21.946  20.367   0.541  0.00  0.00     0.181 C 
HETATM    5  C   UNK N   1      23.686  18.543   0.470  0.00  0.00     0.181 C 
HETATM    6  C   UNK N   1      22.278  18.963  -0.017  0.00  0.00     0.197 C 
HETATM    7  O   UNK N   1      22.987  21.572  -1.270  0.00  0.00    -0.390 OA
HETATM    8  O   UNK N   1      24.874  19.592  -1.346  0.00  0.00    -0.390 OA
HETATM    9  H   UNK N   1      23.082  21.640  -2.233  0.00  0.00     0.210 HD
HETATM   10  H   UNK N   1      24.931  19.534  -2.313  0.00  0.00     0.210 HD
ENDROOT
BRANCH   1  11
HETATM   11  O   UNK N   1      25.366  21.888   0.199  0.00  0.00    -0.390 OA
HETATM   12  H   UNK N   1      26.260  21.631  -0.074  0.00  0.00     0.210 HD
ENDBRANCH   1  11
BRANCH   4  13
HETATM   13  O   UNK N   1      20.685  20.781   0.106  0.00  0.00    -0.390 OA
HETATM   14  H   UNK N   1      20.496  21.683  -0.197  0.00  0.00     0.210 HD
ENDBRANCH   4  13
BRANCH   6  15
HETATM   15  O   UNK N   1      21.335  18.033   0.479  0.00  0.00    -0.279 OA
BRANCH  15  16
HETATM   16  P   UNK N   1      20.152  17.599  -0.747  0.00  0.00     0.408 P 
HETATM   17  O   UNK N   1      19.745  18.902  -1.820  0.00  0.00    -0.624 OA
HETATM   18  O   UNK N   1      18.850  17.315   0.049  0.00  0.00    -0.624 OA
BRANCH  16  19
HETATM   19  O   UNK N   1      20.485  16.109  -1.597  0.00  0.00    -0.287 OA
BRANCH  19  20
HETATM   20  C   UNK N   1      21.863  15.877  -1.518  0.00  0.00     0.216 C 
BRANCH  20  21
HETATM   21  C   UNK N   1      22.176  14.776  -0.506  0.00  0.00     0.180 C 
BRANCH  21  22
HETATM   22  C   UNK N   1      21.848  15.302   0.894  0.00  0.00     0.213 C 
BRANCH  22  23
HETATM   23  O   UNK N   1      21.080  14.447   1.654  0.00  0.00    -0.319 OA
BRANCH  23  24
HETATM   24  C   UNK N   1      19.742  14.349   1.480  0.00  0.00     0.258 C 
HETATM   25  O   UNK N   1      18.994  14.696   2.378  0.00  0.00    -0.265 OA
BRANCH  24  26
HETATM   26  C   UNK N   1      19.156  13.769   0.231  0.00  0.00     0.111 C 
BRANCH  26  27
HETATM   27  C   UNK N   1      19.434  12.267   0.116  0.00  0.00     0.010 C 
BRANCH  27  28
HETATM   28  C   UNK N   1      18.984  11.456   1.338  0.00  0.00     0.000 C 
BRANCH  28  29
HETATM   29  C   UNK N   1      17.614  11.854   1.888  0.00  0.00     0.000 C 
BRANCH  29  30
HETATM   30  C   UNK N   1      16.480  11.468   0.957  0.00  0.00     0.000 C 
BRANCH  30  31
HETATM   31  C   UNK N   1      16.145  12.607   0.005  0.00  0.00     0.000 C 
BRANCH  31  32
HETATM   32  C   UNK N   1      16.568  12.253  -1.415  0.00  0.00     0.000 C 
BRANCH  32  33
HETATM   33  C   UNK N   1      15.456  11.562  -2.196  0.00  0.00     0.000 C 
BRANCH  33  34
HETATM   34  C   UNK N   1      15.160  10.180  -1.641  0.00  0.00     0.000 C 
BRANCH  34  35
HETATM   35  C   UNK N   1      13.995  10.265  -0.676  0.00  0.00     0.000 C 
BRANCH  35  36
HETATM   36  C   UNK N   1      14.072   9.125   0.319  0.00  0.00     0.000 C 
BRANCH  36  37
HETATM   37  C   UNK N   1      12.867   9.153   1.245  0.00  0.00     0.000 C 
BRANCH  37  38
HETATM   38  C   UNK N   1      11.695   8.408   0.627  0.00  0.00    -0.000 C 
BRANCH  38  39
HETATM   39  C   UNK N   1      10.997   9.267  -0.411  0.00  0.00    -0.005 C 
HETATM   40  C   UNK N   1       9.959   8.437  -1.136  0.00  0.00     0.005 C 
ENDBRANCH  38  39
ENDBRANCH  37  38
ENDBRANCH  36  37
ENDBRANCH  35  36
ENDBRANCH  34  35
ENDBRANCH  33  34
ENDBRANCH  32  33
ENDBRANCH  31  32
ENDBRANCH  30  31
ENDBRANCH  29  30
ENDBRANCH  28  29
ENDBRANCH  27  28
ENDBRANCH  26  27
ENDBRANCH  24  26
ENDBRANCH  23  24
ENDBRANCH  22  23
ENDBRANCH  21  22
BRANCH  21  41
HETATM   41  O   UNK N   1      23.516  14.456  -0.617  0.00  0.00    -0.312 OA
BRANCH  41  42
HETATM   42  C   UNK N   1      24.172  13.570   0.177  0.00  0.00     0.259 C 
HETATM   43  O   UNK N   1      23.695  13.205   1.243  0.00  0.00    -0.265 OA
BRANCH  42  44
HETATM   44  C   UNK N   1      25.483  13.018  -0.266  0.00  0.00     0.111 C 
BRANCH  44  45
HETATM   45  C   UNK N   1      25.273  12.186  -1.525  0.00  0.00     0.010 C 
BRANCH  45  46
HETATM   46  C   UNK N   1      25.026  10.712  -1.215  0.00  0.00     0.000 C 
BRANCH  46  47
HETATM   47  C   UNK N   1      23.779  10.490  -0.374  0.00  0.00     0.000 C 
BRANCH  47  48
HETATM   48  C   UNK N   1      24.187  10.303   1.079  0.00  0.00     0.000 C 
BRANCH  48  49
HETATM   49  C   UNK N   1      23.580   9.045   1.673  0.00  0.00     0.004 C 
BRANCH  49  50
HETATM   50  C   UNK N   1      24.192   7.800   1.037  0.00  0.00     0.027 C 
BRANCH  50  51
HETATM   51  C   UNK N   1      23.378   7.176  -0.072  0.00  0.00    -0.031 C 
HETATM   52  C   UNK N   1      22.207   7.670  -0.505  0.00  0.00    -0.031 C 
BRANCH  52  53
HETATM   53  C   UNK N   1      21.436   6.956  -1.569  0.00  0.00     0.027 C 
BRANCH  53  54
HETATM   54  C   UNK N   1      20.046   6.610  -1.051  0.00  0.00     0.004 C 
BRANCH  54  55
HETATM   55  C   UNK N   1      20.131   5.733   0.189  0.00  0.00     0.000 C 
BRANCH  55  56
HETATM   56  C   UNK N   1      18.976   6.052   1.121  0.00  0.00     0.000 C 
BRANCH  56  57
HETATM   57  C   UNK N   1      17.890   5.000   1.000  0.00  0.00     0.000 C 
BRANCH  57  58
HETATM   58  C   UNK N   1      17.146   5.148  -0.316  0.00  0.00    -0.000 C 
BRANCH  58  59
HETATM   59  C   UNK N   1      16.899   3.784  -0.934  0.00  0.00    -0.005 C 
HETATM   60  C   UNK N   1      15.825   3.036  -0.166  0.00  0.00     0.005 C 
ENDBRANCH  58  59
ENDBRANCH  57  58
ENDBRANCH  56  57
ENDBRANCH  55  56
ENDBRANCH  54  55
ENDBRANCH  53  54
ENDBRANCH  52  53
ENDBRANCH  50  51
ENDBRANCH  49  50
ENDBRANCH  48  49
ENDBRANCH  47  48
ENDBRANCH  46  47
ENDBRANCH  45  46
ENDBRANCH  44  45
ENDBRANCH  42  44
ENDBRANCH  41  42
ENDBRANCH  21  41
ENDBRANCH  20  21
ENDBRANCH  19  20
ENDBRANCH  16  19
ENDBRANCH  15  16
ENDBRANCH   6  15
BRANCH   5  61
HETATM   61  O   UNK N   1      24.026  17.288  -0.035  0.00  0.00    -0.390 OA
HETATM   62  H   UNK N   1      23.388  16.647  -0.387  0.00  0.00     0.210 HD
ENDBRANCH   5  61
TORSDOF 42
