MODEL 1
REMARK VINA RESULT:      -3.1      0.000      0.000
REMARK  3 active torsions:
REMARK  status: ('A' for Active; 'I' for Inactive)
REMARK    1  A    between atoms: C_2  and  S_3 
REMARK    2  A    between atoms: S_3  and  C_4 
REMARK    3  A    between atoms: C_4  and  N_5 
ROOT
HETATM    1  C   UNK N   1      23.954  12.175  11.302  0.00  0.00     0.131 C 
HETATM    2  N   UNK N   1      25.150  12.546  11.022  0.00  0.00    -0.380 N 
ATOM      3  HN  UNK N   1      25.786  12.823  11.769  1.00  0.00     0.158 HD
HETATM    4  H   UNK N   1      25.453  12.564  10.085  0.00  0.00     0.158 HD
ENDROOT
BRANCH   1   5
HETATM    5  S   UNK N   1      22.797  11.677  10.009  0.00  0.00    -0.095 SA
BRANCH   5   6
HETATM    6  C   UNK N   1      21.304  12.473  10.682  0.00  0.00     0.078 C 
HETATM    7  C   UNK N   1      21.026  13.739   9.899  0.00  0.00     0.016 C 
ENDBRANCH   5   6
ENDBRANCH   1   5
BRANCH   1   8
HETATM    8  N   UNK N   1      23.530  12.154  12.648  0.00  0.00    -0.380 N 
HETATM    9  H   UNK N   1      22.966  11.415  12.975  0.00  0.00     0.158 HD
HETATM   10  H   UNK N   1      23.799  12.876  13.261  0.00  0.00     0.158 HD
ENDBRANCH   1   8
TORSDOF 3
ENDMDL
MODEL 2
REMARK VINA RESULT:      -3.1     22.789     23.635
REMARK  3 active torsions:
REMARK  status: ('A' for Active; 'I' for Inactive)
REMARK    1  A    between atoms: C_2  and  S_3 
REMARK    2  A    between atoms: S_3  and  C_4 
REMARK    3  A    between atoms: C_4  and  N_5 
ROOT
HETATM    1  C   UNK N   1      44.055  22.495   3.935  0.00  0.00     0.131 C 
HETATM    2  N   UNK N   1      43.592  23.682   4.094  0.00  0.00    -0.380 N 
ATOM      3  HN  UNK N   1      44.212  24.436   4.385  1.00  0.00     0.158 HD
HETATM    4  H   UNK N   1      42.637  23.863   3.934  0.00  0.00     0.158 HD
ENDROOT
BRANCH   1   5
HETATM    5  S   UNK N   1      42.989  21.132   3.419  0.00  0.00    -0.095 SA
BRANCH   5   6
HETATM    6  C   UNK N   1      41.876  22.075   2.332  0.00  0.00     0.078 C 
HETATM    7  C   UNK N   1      40.515  21.410   2.325  0.00  0.00     0.016 C 
ENDBRANCH   5   6
ENDBRANCH   1   5
BRANCH   1   8
HETATM    8  N   UNK N   1      45.424  22.246   4.167  0.00  0.00    -0.380 N 
HETATM    9  H   UNK N   1      45.703  21.719   4.950  0.00  0.00     0.158 HD
HETATM   10  H   UNK N   1      46.101  22.600   3.545  0.00  0.00     0.158 HD
ENDBRANCH   1   8
TORSDOF 3
ENDMDL
MODEL 3
REMARK VINA RESULT:      -2.9     23.840     24.315
REMARK  3 active torsions:
REMARK  status: ('A' for Active; 'I' for Inactive)
REMARK    1  A    between atoms: C_2  and  S_3 
REMARK    2  A    between atoms: S_3  and  C_4 
REMARK    3  A    between atoms: C_4  and  N_5 
ROOT
HETATM    1  C   UNK N   1      44.253  22.393   3.933  0.00  0.00     0.131 C 
HETATM    2  N   UNK N   1      45.508  22.299   4.187  0.00  0.00    -0.380 N 
ATOM      3  HN  UNK N   1      46.035  23.125   4.466  1.00  0.00     0.158 HD
HETATM    4  H   UNK N   1      45.960  21.427   4.112  0.00  0.00     0.158 HD
ENDROOT
BRANCH   1   5
HETATM    5  S   UNK N   1      43.283  20.954   3.435  0.00  0.00    -0.095 SA
BRANCH   5   6
HETATM    6  C   UNK N   1      44.665  19.816   3.105  0.00  0.00     0.078 C 
HETATM    7  C   UNK N   1      44.111  18.431   2.844  0.00  0.00     0.016 C 
ENDBRANCH   5   6
ENDBRANCH   1   5
BRANCH   1   8
HETATM    8  N   UNK N   1      43.614  23.647   4.043  0.00  0.00    -0.380 N 
HETATM    9  H   UNK N   1      42.798  23.736   4.586  0.00  0.00     0.158 HD
HETATM   10  H   UNK N   1      43.985  24.431   3.578  0.00  0.00     0.158 HD
ENDBRANCH   1   8
TORSDOF 3
ENDMDL
MODEL 4
REMARK VINA RESULT:      -2.9     11.005     11.850
REMARK  3 active torsions:
REMARK  status: ('A' for Active; 'I' for Inactive)
REMARK    1  A    between atoms: C_2  and  S_3 
REMARK    2  A    between atoms: S_3  and  C_4 
REMARK    3  A    between atoms: C_4  and  N_5 
ROOT
HETATM    1  C   UNK N   1      20.683  20.549   1.705  0.00  0.00     0.131 C 
HETATM    2  N   UNK N   1      21.010  21.484   2.521  0.00  0.00    -0.380 N 
ATOM      3  HN  UNK N   1      21.132  22.437   2.182  1.00  0.00     0.158 HD
HETATM    4  H   UNK N   1      21.142  21.279   3.475  0.00  0.00     0.158 HD
ENDROOT
BRANCH   1   5
HETATM    5  S   UNK N   1      20.457  18.847   2.265  0.00  0.00    -0.095 SA
BRANCH   5   6
HETATM    6  C   UNK N   1      21.057  19.058   3.970  0.00  0.00     0.078 C 
HETATM    7  C   UNK N   1      22.458  18.492   4.073  0.00  0.00     0.016 C 
ENDBRANCH   5   6
ENDBRANCH   1   5
BRANCH   1   8
HETATM    8  N   UNK N   1      20.497  20.853   0.339  0.00  0.00    -0.380 N 
HETATM    9  H   UNK N   1      21.204  21.320  -0.162  0.00  0.00     0.158 HD
HETATM   10  H   UNK N   1      19.659  20.599  -0.112  0.00  0.00     0.158 HD
ENDBRANCH   1   8
TORSDOF 3
ENDMDL
MODEL 5
REMARK VINA RESULT:      -2.8     11.101     11.910
REMARK  3 active torsions:
REMARK  status: ('A' for Active; 'I' for Inactive)
REMARK    1  A    between atoms: C_2  and  S_3 
REMARK    2  A    between atoms: S_3  and  C_4 
REMARK    3  A    between atoms: C_4  and  N_5 
ROOT
HETATM    1  C   UNK N   1      20.776  20.094   1.220  0.00  0.00     0.131 C 
HETATM    2  N   UNK N   1      20.495  20.973   0.329  0.00  0.00    -0.380 N 
ATOM      3  HN  UNK N   1      19.892  20.729  -0.456  1.00  0.00     0.158 HD
HETATM    4  H   UNK N   1      20.864  21.883   0.403  0.00  0.00     0.158 HD
ENDROOT
BRANCH   1   5
HETATM    5  S   UNK N   1      21.841  20.485   2.625  0.00  0.00    -0.095 SA
BRANCH   5   6
HETATM    6  C   UNK N   1      20.993  19.472   3.878  0.00  0.00     0.078 C 
HETATM    7  C   UNK N   1      21.957  18.428   4.401  0.00  0.00     0.016 C 
ENDBRANCH   5   6
ENDBRANCH   1   5
BRANCH   1   8
HETATM    8  N   UNK N   1      20.243  18.792   1.105  0.00  0.00    -0.380 N 
HETATM    9  H   UNK N   1      19.346  18.594   1.461  0.00  0.00     0.158 HD
HETATM   10  H   UNK N   1      20.767  18.082   0.669  0.00  0.00     0.158 HD
ENDBRANCH   1   8
TORSDOF 3
ENDMDL
MODEL 6
REMARK VINA RESULT:      -2.8     11.610     12.158
REMARK  3 active torsions:
REMARK  status: ('A' for Active; 'I' for Inactive)
REMARK    1  A    between atoms: C_2  and  S_3 
REMARK    2  A    between atoms: S_3  and  C_4 
REMARK    3  A    between atoms: C_4  and  N_5 
ROOT
HETATM    1  C   UNK N   1      34.359  15.923  10.158  0.00  0.00     0.131 C 
HETATM    2  N   UNK N   1      33.578  15.098  10.755  0.00  0.00    -0.380 N 
ATOM      3  HN  UNK N   1      33.474  15.136  11.768  1.00  0.00     0.158 HD
HETATM    4  H   UNK N   1      33.080  14.428  10.233  0.00  0.00     0.158 HD
ENDROOT
BRANCH   1   5
HETATM    5  S   UNK N   1      34.572  15.888   8.365  0.00  0.00    -0.095 SA
BRANCH   5   6
HETATM    6  C   UNK N   1      34.386  17.671   8.051  0.00  0.00     0.078 C 
HETATM    7  C   UNK N   1      32.919  18.037   8.146  0.00  0.00     0.016 C 
ENDBRANCH   5   6
ENDBRANCH   1   5
BRANCH   1   8
HETATM    8  N   UNK N   1      35.069  16.879  10.915  0.00  0.00    -0.380 N 
HETATM    9  H   UNK N   1      34.970  16.904  11.895  0.00  0.00     0.158 HD
HETATM   10  H   UNK N   1      35.663  17.522  10.464  0.00  0.00     0.158 HD
ENDBRANCH   1   8
TORSDOF 3
ENDMDL
MODEL 7
REMARK VINA RESULT:      -2.8     10.704     11.218
REMARK  3 active torsions:
REMARK  status: ('A' for Active; 'I' for Inactive)
REMARK    1  A    between atoms: C_2  and  S_3 
REMARK    2  A    between atoms: S_3  and  C_4 
REMARK    3  A    between atoms: C_4  and  N_5 
ROOT
HETATM    1  C   UNK N   1      19.823  18.043   1.969  0.00  0.00     0.131 C 
HETATM    2  N   UNK N   1      18.691  18.535   2.321  0.00  0.00    -0.380 N 
ATOM      3  HN  UNK N   1      17.979  18.728   1.619  1.00  0.00     0.158 HD
HETATM    4  H   UNK N   1      18.512  18.726   3.271  0.00  0.00     0.158 HD
ENDROOT
BRANCH   1   5
HETATM    5  S   UNK N   1      21.112  17.686   3.183  0.00  0.00    -0.095 SA
BRANCH   5   6
HETATM    6  C   UNK N   1      21.326  19.374   3.831  0.00  0.00     0.078 C 
HETATM    7  C   UNK N   1      21.899  20.251   2.737  0.00  0.00     0.016 C 
ENDBRANCH   5   6
ENDBRANCH   1   5
BRANCH   1   8
HETATM    8  N   UNK N   1      20.070  17.772   0.606  0.00  0.00    -0.380 N 
HETATM    9  H   UNK N   1      19.804  16.906   0.220  0.00  0.00     0.158 HD
HETATM   10  H   UNK N   1      20.507  18.449   0.041  0.00  0.00     0.158 HD
ENDBRANCH   1   8
TORSDOF 3
ENDMDL
MODEL 8
REMARK VINA RESULT:      -2.7     12.800     13.518
REMARK  3 active torsions:
REMARK  status: ('A' for Active; 'I' for Inactive)
REMARK    1  A    between atoms: C_2  and  S_3 
REMARK    2  A    between atoms: S_3  and  C_4 
REMARK    3  A    between atoms: C_4  and  N_5 
ROOT
HETATM    1  C   UNK N   1      36.566  13.964  14.723  0.00  0.00     0.131 C 
HETATM    2  N   UNK N   1      37.275  14.779  15.415  0.00  0.00    -0.380 N 
ATOM      3  HN  UNK N   1      38.002  15.333  14.964  1.00  0.00     0.158 HD
HETATM    4  H   UNK N   1      37.116  14.868  16.384  0.00  0.00     0.158 HD
ENDROOT
BRANCH   1   5
HETATM    5  S   UNK N   1      35.269  12.964  15.484  0.00  0.00    -0.095 SA
BRANCH   5   6
HETATM    6  C   UNK N   1      34.766  12.030  14.005  0.00  0.00     0.078 C 
HETATM    7  C   UNK N   1      33.819  10.923  14.421  0.00  0.00     0.016 C 
ENDBRANCH   5   6
ENDBRANCH   1   5
BRANCH   1   8
HETATM    8  N   UNK N   1      36.801  13.843  13.337  0.00  0.00    -0.380 N 
HETATM    9  H   UNK N   1      37.386  14.490  12.879  0.00  0.00     0.158 HD
HETATM   10  H   UNK N   1      36.381  13.113  12.827  0.00  0.00     0.158 HD
ENDBRANCH   1   8
TORSDOF 3
ENDMDL
MODEL 9
REMARK VINA RESULT:      -2.7     14.175     14.334
REMARK  3 active torsions:
REMARK  status: ('A' for Active; 'I' for Inactive)
REMARK    1  A    between atoms: C_2  and  S_3 
REMARK    2  A    between atoms: S_3  and  C_4 
REMARK    3  A    between atoms: C_4  and  N_5 
ROOT
HETATM    1  C   UNK N   1      36.783  13.321  15.052  0.00  0.00     0.131 C 
HETATM    2  N   UNK N   1      37.615  12.473  14.567  0.00  0.00    -0.380 N 
ATOM      3  HN  UNK N   1      38.578  12.750  14.386  1.00  0.00     0.158 HD
HETATM    4  H   UNK N   1      37.320  11.554  14.369  0.00  0.00     0.158 HD
ENDROOT
BRANCH   1   5
HETATM    5  S   UNK N   1      35.066  12.870  15.387  0.00  0.00    -0.095 SA
BRANCH   5   6
HETATM    6  C   UNK N   1      35.306  12.173  17.051  0.00  0.00     0.078 C 
HETATM    7  C   UNK N   1      35.159  13.280  18.074  0.00  0.00     0.016 C 
ENDBRANCH   5   6
ENDBRANCH   1   5
BRANCH   1   8
HETATM    8  N   UNK N   1      37.214  14.635  15.332  0.00  0.00    -0.380 N 
HETATM    9  H   UNK N   1      37.073  15.351  14.670  0.00  0.00     0.158 HD
HETATM   10  H   UNK N   1      37.655  14.837  16.189  0.00  0.00     0.158 HD
ENDBRANCH   1   8
TORSDOF 3
ENDMDL
