MODEL 1
REMARK VINA RESULT:      -6.1      0.000      0.000
REMARK  7 active torsions:
REMARK  status: ('A' for Active; 'I' for Inactive)
REMARK    1  A    between atoms: C_6  and  C_3 
REMARK    2  A    between atoms: O_19  and  C_3 
REMARK    3  A    between atoms: C_5  and  O_13 
REMARK    4  A    between atoms: C_7  and  N_12 
REMARK    5  A    between atoms: P_21  and  O_16 
REMARK    6  A    between atoms: P_21  and  O_17 
REMARK    7  A    between atoms: P_21  and  O_19 
ROOT
HETATM    1  C   UNK N   1      26.909  18.883   3.932  0.00  0.00     0.088 C 
HETATM    2  C   UNK N   1      28.143  19.455   4.544  0.00  0.00     0.153 C 
HETATM    3  C   UNK N   1      27.590  20.009   5.859  0.00  0.00     0.177 C 
HETATM    4  C   UNK N   1      25.951  20.006   4.290  0.00  0.00     0.235 C 
HETATM    5  O   UNK N   1      26.237  20.369   5.629  0.00  0.00    -0.356 OA
ENDROOT
BRANCH   4   6
HETATM    6  N   UNK N   1      24.544  19.621   4.078  0.00  0.00    -0.281 N 
HETATM    7  C   UNK N   1      23.962  18.667   4.865  0.00  0.00     0.122 A 
HETATM    8  C   UNK N   1      22.616  18.333   4.705  0.00  0.00     0.090 A 
HETATM    9  C   UNK N   1      21.866  18.998   3.733  0.00  0.00     0.267 A 
HETATM   10  I   UNK N   1      21.752  16.847   5.934  0.00  0.00    -0.037 I 
HETATM   11  N   UNK N   1      22.462  19.948   2.953  0.00  0.00    -0.274 N 
HETATM   12  O   UNK N   1      20.686  18.741   3.577  0.00  0.00    -0.267 OA
HETATM   13  C   UNK N   1      23.784  20.263   3.113  0.00  0.00     0.331 A 
HETATM   14  H   UNK N   1      21.933  20.414   2.266  0.00  0.00     0.173 HD
HETATM   15  O   UNK N   1      24.280  21.130   2.412  0.00  0.00    -0.246 OA
ENDBRANCH   4   6
BRANCH   2  16
HETATM   16  O   UNK N   1      29.163  18.514   4.697  0.00  0.00    -0.393 OA
HETATM   17  H   UNK N   1      29.289  17.622   5.056  0.00  0.00     0.210 HD
ENDBRANCH   2  16
BRANCH   3  18
HETATM   18  C   UNK N   1      27.633  19.007   7.020  0.00  0.00     0.215 C 
BRANCH  18  19
HETATM   19  O   UNK N   1      28.706  19.274   7.891  0.00  0.00    -0.294 OA
BRANCH  19  20
HETATM   20  P   UNK N   1      29.203  17.729   8.537  0.00  0.00     0.390 P 
HETATM   21  O   UNK N   1      30.383  18.633   8.982  0.00  0.00    -0.632 OA
BRANCH  20  22
HETATM   22  O   UNK N   1      29.275  17.439  10.247  0.00  0.00    -0.307 OA
HETATM   23  H   UNK N   1      30.081  17.650  10.745  0.00  0.00     0.222 HD
ENDBRANCH  20  22
BRANCH  20  24
HETATM   24  O   UNK N   1      27.752  18.266   9.329  0.00  0.00    -0.307 OA
HETATM   25  H   UNK N   1      27.255  19.036   9.009  0.00  0.00     0.222 HD
ENDBRANCH  20  24
ENDBRANCH  19  20
ENDBRANCH  18  19
ENDBRANCH   3  18
TORSDOF 7
ENDMDL
MODEL 2
REMARK VINA RESULT:      -6.0      8.543      9.604
REMARK  7 active torsions:
REMARK  status: ('A' for Active; 'I' for Inactive)
REMARK    1  A    between atoms: C_6  and  C_3 
REMARK    2  A    between atoms: O_19  and  C_3 
REMARK    3  A    between atoms: C_5  and  O_13 
REMARK    4  A    between atoms: C_7  and  N_12 
REMARK    5  A    between atoms: P_21  and  O_16 
REMARK    6  A    between atoms: P_21  and  O_17 
REMARK    7  A    between atoms: P_21  and  O_19 
ROOT
HETATM    1  C   UNK N   1      34.278  17.352   6.822  0.00  0.00     0.088 C 
HETATM    2  C   UNK N   1      33.718  17.586   8.184  0.00  0.00     0.153 C 
HETATM    3  C   UNK N   1      33.057  16.235   8.468  0.00  0.00     0.177 C 
HETATM    4  C   UNK N   1      33.095  16.603   6.230  0.00  0.00     0.235 C 
HETATM    5  O   UNK N   1      32.658  15.690   7.220  0.00  0.00    -0.356 OA
ENDROOT
BRANCH   4   6
HETATM    6  N   UNK N   1      33.436  15.957   4.949  0.00  0.00    -0.281 N 
HETATM    7  C   UNK N   1      34.070  14.747   4.934  0.00  0.00     0.122 A 
HETATM    8  C   UNK N   1      34.351  14.104   3.727  0.00  0.00     0.090 A 
HETATM    9  C   UNK N   1      33.960  14.710   2.532  0.00  0.00     0.267 A 
HETATM   10  I   UNK N   1      35.342  12.238   3.740  0.00  0.00    -0.037 I 
HETATM   11  N   UNK N   1      33.327  15.921   2.564  0.00  0.00    -0.274 N 
HETATM   12  O   UNK N   1      34.176  14.170   1.462  0.00  0.00    -0.267 OA
HETATM   13  C   UNK N   1      33.064  16.546   3.752  0.00  0.00     0.331 A 
HETATM   14  H   UNK N   1      33.056  16.349   1.720  0.00  0.00     0.173 HD
HETATM   15  O   UNK N   1      32.480  17.618   3.745  0.00  0.00    -0.246 OA
ENDBRANCH   4   6
BRANCH   2  16
HETATM   16  O   UNK N   1      34.688  17.962   9.116  0.00  0.00    -0.393 OA
HETATM   17  H   UNK N   1      35.132  17.598   9.897  0.00  0.00     0.210 HD
ENDBRANCH   2  16
BRANCH   3  18
HETATM   18  C   UNK N   1      33.982  15.227   9.162  0.00  0.00     0.215 C 
BRANCH  18  19
HETATM   19  O   UNK N   1      33.925  15.355  10.562  0.00  0.00    -0.294 OA
BRANCH  19  20
HETATM   20  P   UNK N   1      35.560  15.138  11.137  0.00  0.00     0.390 P 
HETATM   21  O   UNK N   1      35.763  15.011   9.603  0.00  0.00    -0.632 OA
BRANCH  20  22
HETATM   22  O   UNK N   1      36.799  16.313  10.822  0.00  0.00    -0.307 OA
HETATM   23  H   UNK N   1      37.654  16.036  10.458  0.00  0.00     0.222 HD
ENDBRANCH  20  22
BRANCH  20  24
HETATM   24  O   UNK N   1      35.010  16.746  11.502  0.00  0.00    -0.307 OA
HETATM   25  H   UNK N   1      35.194  17.162  12.359  0.00  0.00     0.222 HD
ENDBRANCH  20  24
ENDBRANCH  19  20
ENDBRANCH  18  19
ENDBRANCH   3  18
TORSDOF 7
ENDMDL
MODEL 3
REMARK VINA RESULT:      -6.0      8.335     11.192
REMARK  7 active torsions:
REMARK  status: ('A' for Active; 'I' for Inactive)
REMARK    1  A    between atoms: C_6  and  C_3 
REMARK    2  A    between atoms: O_19  and  C_3 
REMARK    3  A    between atoms: C_5  and  O_13 
REMARK    4  A    between atoms: C_7  and  N_12 
REMARK    5  A    between atoms: P_21  and  O_16 
REMARK    6  A    between atoms: P_21  and  O_17 
REMARK    7  A    between atoms: P_21  and  O_19 
ROOT
HETATM    1  C   UNK N   1      32.502  16.266   8.491  0.00  0.00     0.088 C 
HETATM    2  C   UNK N   1      32.054  17.396   7.628  0.00  0.00     0.153 C 
HETATM    3  C   UNK N   1      33.382  17.837   7.007  0.00  0.00     0.177 C 
HETATM    4  C   UNK N   1      33.770  16.902   9.038  0.00  0.00     0.235 C 
HETATM    5  O   UNK N   1      34.405  17.538   7.944  0.00  0.00    -0.356 OA
ENDROOT
BRANCH   4   6
HETATM    6  N   UNK N   1      34.630  15.919   9.722  0.00  0.00    -0.281 N 
HETATM    7  C   UNK N   1      34.413  14.580   9.560  0.00  0.00     0.122 A 
HETATM    8  C   UNK N   1      35.254  13.643  10.162  0.00  0.00     0.090 A 
HETATM    9  C   UNK N   1      36.332  14.095  10.925  0.00  0.00     0.267 A 
HETATM   10  I   UNK N   1      34.884  11.580   9.898  0.00  0.00    -0.037 I 
HETATM   11  N   UNK N   1      36.535  15.437  11.079  0.00  0.00    -0.274 N 
HETATM   12  O   UNK N   1      37.094  13.305  11.453  0.00  0.00    -0.267 OA
HETATM   13  C   UNK N   1      35.700  16.348  10.490  0.00  0.00     0.331 A 
HETATM   14  H   UNK N   1      37.293  15.755  11.621  0.00  0.00     0.173 HD
HETATM   15  O   UNK N   1      35.922  17.540  10.633  0.00  0.00    -0.246 OA
ENDBRANCH   4   6
BRANCH   2  16
HETATM   16  O   UNK N   1      31.079  17.022   6.701  0.00  0.00    -0.393 OA
HETATM   17  H   UNK N   1      31.023  16.660   5.803  0.00  0.00     0.210 HD
ENDBRANCH   2  16
BRANCH   3  18
HETATM   18  C   UNK N   1      33.714  17.128   5.687  0.00  0.00     0.215 C 
BRANCH  18  19
HETATM   19  O   UNK N   1      33.381  17.925   4.577  0.00  0.00    -0.294 OA
BRANCH  19  20
HETATM   20  P   UNK N   1      32.620  16.858   3.423  0.00  0.00     0.390 P 
HETATM   21  O   UNK N   1      32.951  15.869   4.572  0.00  0.00    -0.632 OA
BRANCH  20  22
HETATM   22  O   UNK N   1      31.080  16.121   3.742  0.00  0.00    -0.307 OA
HETATM   23  H   UNK N   1      31.015  15.370   4.352  0.00  0.00     0.222 HD
ENDBRANCH  20  22
BRANCH  20  24
HETATM   24  O   UNK N   1      31.470  18.026   3.999  0.00  0.00    -0.307 OA
HETATM   25  H   UNK N   1      31.750  18.903   4.308  0.00  0.00     0.222 HD
ENDBRANCH  20  24
ENDBRANCH  19  20
ENDBRANCH  18  19
ENDBRANCH   3  18
TORSDOF 7
ENDMDL
MODEL 4
REMARK VINA RESULT:      -6.0      3.974      7.921
REMARK  7 active torsions:
REMARK  status: ('A' for Active; 'I' for Inactive)
REMARK    1  A    between atoms: C_6  and  C_3 
REMARK    2  A    between atoms: O_19  and  C_3 
REMARK    3  A    between atoms: C_5  and  O_13 
REMARK    4  A    between atoms: C_7  and  N_12 
REMARK    5  A    between atoms: P_21  and  O_16 
REMARK    6  A    between atoms: P_21  and  O_17 
REMARK    7  A    between atoms: P_21  and  O_19 
ROOT
HETATM    1  C   UNK N   1      21.594  16.105   2.936  0.00  0.00     0.088 C 
HETATM    2  C   UNK N   1      20.103  16.096   2.948  0.00  0.00     0.153 C 
HETATM    3  C   UNK N   1      19.806  17.379   3.730  0.00  0.00     0.177 C 
HETATM    4  C   UNK N   1      21.818  16.549   4.372  0.00  0.00     0.235 C 
HETATM    5  O   UNK N   1      20.888  17.587   4.624  0.00  0.00    -0.356 OA
ENDROOT
BRANCH   4   6
HETATM    6  N   UNK N   1      23.216  16.946   4.616  0.00  0.00    -0.281 N 
HETATM    7  C   UNK N   1      23.727  18.071   4.032  0.00  0.00     0.122 A 
HETATM    8  C   UNK N   1      25.034  18.483   4.298  0.00  0.00     0.090 A 
HETATM    9  C   UNK N   1      25.811  17.733   5.183  0.00  0.00     0.267 A 
HETATM   10  I   UNK N   1      25.794  20.223   3.371  0.00  0.00    -0.037 I 
HETATM   11  N   UNK N   1      25.287  16.610   5.758  0.00  0.00    -0.274 N 
HETATM   12  O   UNK N   1      26.950  18.072   5.448  0.00  0.00    -0.267 OA
HETATM   13  C   UNK N   1      24.007  16.211   5.485  0.00  0.00     0.331 A 
HETATM   14  H   UNK N   1      25.837  16.080   6.378  0.00  0.00     0.173 HD
HETATM   15  O   UNK N   1      23.564  15.213   6.030  0.00  0.00    -0.246 OA
ENDBRANCH   4   6
BRANCH   2  16
HETATM   16  O   UNK N   1      19.546  16.057   1.668  0.00  0.00    -0.393 OA
HETATM   17  H   UNK N   1      19.838  16.036   0.743  0.00  0.00     0.210 HD
ENDBRANCH   2  16
BRANCH   3  18
HETATM   18  C   UNK N   1      19.663  18.623   2.844  0.00  0.00     0.215 C 
BRANCH  18  19
HETATM   19  O   UNK N   1      20.843  18.881   2.123  0.00  0.00    -0.294 OA
BRANCH  19  20
HETATM   20  P   UNK N   1      20.646  20.466   1.418  0.00  0.00     0.390 P 
HETATM   21  O   UNK N   1      22.122  20.532   1.894  0.00  0.00    -0.632 OA
BRANCH  20  22
HETATM   22  O   UNK N   1      21.488  20.930  -0.028  0.00  0.00    -0.307 OA
HETATM   23  H   UNK N   1      21.595  20.298  -0.756  0.00  0.00     0.222 HD
ENDBRANCH  20  22
BRANCH  20  24
HETATM   24  O   UNK N   1      20.504  19.247   0.188  0.00  0.00    -0.307 OA
HETATM   25  H   UNK N   1      21.287  18.826  -0.201  0.00  0.00     0.222 HD
ENDBRANCH  20  24
ENDBRANCH  19  20
ENDBRANCH  18  19
ENDBRANCH   3  18
TORSDOF 7
ENDMDL
MODEL 5
REMARK VINA RESULT:      -6.0      2.439      3.133
REMARK  7 active torsions:
REMARK  status: ('A' for Active; 'I' for Inactive)
REMARK    1  A    between atoms: C_6  and  C_3 
REMARK    2  A    between atoms: O_19  and  C_3 
REMARK    3  A    between atoms: C_5  and  O_13 
REMARK    4  A    between atoms: C_7  and  N_12 
REMARK    5  A    between atoms: P_21  and  O_16 
REMARK    6  A    between atoms: P_21  and  O_17 
REMARK    7  A    between atoms: P_21  and  O_19 
ROOT
HETATM    1  C   UNK N   1      25.475  19.860   3.063  0.00  0.00     0.088 C 
HETATM    2  C   UNK N   1      26.630  20.100   3.974  0.00  0.00     0.153 C 
HETATM    3  C   UNK N   1      26.267  19.197   5.156  0.00  0.00     0.177 C 
HETATM    4  C   UNK N   1      24.371  19.871   4.107  0.00  0.00     0.235 C 
HETATM    5  O   UNK N   1      24.851  19.123   5.210  0.00  0.00    -0.356 OA
ENDROOT
BRANCH   4   6
HETATM    6  N   UNK N   1      23.095  19.364   3.569  0.00  0.00    -0.281 N 
HETATM    7  C   UNK N   1      22.741  18.056   3.747  0.00  0.00     0.122 A 
HETATM    8  C   UNK N   1      21.513  17.580   3.286  0.00  0.00     0.090 A 
HETATM    9  C   UNK N   1      20.642  18.465   2.648  0.00  0.00     0.267 A 
HETATM   10  I   UNK N   1      21.002  15.550   3.571  0.00  0.00    -0.037 I 
HETATM   11  N   UNK N   1      21.011  19.769   2.476  0.00  0.00    -0.274 N 
HETATM   12  O   UNK N   1      19.556  18.087   2.247  0.00  0.00    -0.267 OA
HETATM   13  C   UNK N   1      22.221  20.225   2.926  0.00  0.00     0.331 A 
HETATM   14  H   UNK N   1      20.397  20.392   2.023  0.00  0.00     0.173 HD
HETATM   15  O   UNK N   1      22.510  21.400   2.772  0.00  0.00    -0.246 OA
ENDBRANCH   4   6
BRANCH   2  16
HETATM   16  O   UNK N   1      27.861  19.811   3.382  0.00  0.00    -0.393 OA
HETATM   17  H   UNK N   1      28.631  19.242   3.536  0.00  0.00     0.210 HD
ENDBRANCH   2  16
BRANCH   3  18
HETATM   18  C   UNK N   1      26.822  17.771   5.038  0.00  0.00     0.215 C 
BRANCH  18  19
HETATM   19  O   UNK N   1      28.138  17.689   5.529  0.00  0.00    -0.294 OA
BRANCH  19  20
HETATM   20  P   UNK N   1      28.988  16.600   4.460  0.00  0.00     0.390 P 
HETATM   21  O   UNK N   1      27.635  16.754   3.715  0.00  0.00    -0.632 OA
BRANCH  20  22
HETATM   22  O   UNK N   1      29.487  17.088   2.871  0.00  0.00    -0.307 OA
HETATM   23  H   UNK N   1      30.338  17.536   2.742  0.00  0.00     0.222 HD
ENDBRANCH  20  22
BRANCH  20  24
HETATM   24  O   UNK N   1      29.790  18.141   4.499  0.00  0.00    -0.307 OA
HETATM   25  H   UNK N   1      30.543  18.334   3.918  0.00  0.00     0.222 HD
ENDBRANCH  20  24
ENDBRANCH  19  20
ENDBRANCH  18  19
ENDBRANCH   3  18
TORSDOF 7
ENDMDL
MODEL 6
REMARK VINA RESULT:      -6.0      5.910      7.815
REMARK  7 active torsions:
REMARK  status: ('A' for Active; 'I' for Inactive)
REMARK    1  A    between atoms: C_6  and  C_3 
REMARK    2  A    between atoms: O_19  and  C_3 
REMARK    3  A    between atoms: C_5  and  O_13 
REMARK    4  A    between atoms: C_7  and  N_12 
REMARK    5  A    between atoms: P_21  and  O_16 
REMARK    6  A    between atoms: P_21  and  O_17 
REMARK    7  A    between atoms: P_21  and  O_19 
ROOT
HETATM    1  C   UNK N   1      33.504  15.627   6.893  0.00  0.00     0.088 C 
HETATM    2  C   UNK N   1      34.914  15.868   7.315  0.00  0.00     0.153 C 
HETATM    3  C   UNK N   1      34.770  17.182   8.089  0.00  0.00     0.177 C 
HETATM    4  C   UNK N   1      33.148  17.053   6.507  0.00  0.00     0.235 C 
HETATM    5  O   UNK N   1      33.681  17.890   7.518  0.00  0.00    -0.356 OA
ENDROOT
BRANCH   4   6
HETATM    6  N   UNK N   1      31.697  17.227   6.311  0.00  0.00    -0.281 N 
HETATM    7  C   UNK N   1      30.863  17.335   7.387  0.00  0.00     0.122 A 
HETATM    8  C   UNK N   1      29.495  17.551   7.211  0.00  0.00     0.090 A 
HETATM    9  C   UNK N   1      28.992  17.668   5.914  0.00  0.00     0.267 A 
HETATM   10  I   UNK N   1      28.232  17.704   8.898  0.00  0.00    -0.037 I 
HETATM   11  N   UNK N   1      29.839  17.557   4.848  0.00  0.00    -0.274 N 
HETATM   12  O   UNK N   1      27.806  17.872   5.724  0.00  0.00    -0.267 OA
HETATM   13  C   UNK N   1      31.177  17.338   5.031  0.00  0.00     0.331 A 
HETATM   14  H   UNK N   1      29.482  17.636   3.934  0.00  0.00     0.173 HD
HETATM   15  O   UNK N   1      31.908  17.262   4.057  0.00  0.00    -0.246 OA
ENDBRANCH   4   6
BRANCH   2  16
HETATM   16  O   UNK N   1      35.449  14.815   8.059  0.00  0.00    -0.393 OA
HETATM   17  H   UNK N   1      35.268  14.333   8.881  0.00  0.00     0.210 HD
ENDBRANCH   2  16
BRANCH   3  18
HETATM   18  C   UNK N   1      34.490  16.990   9.586  0.00  0.00     0.215 C 
BRANCH  18  19
HETATM   19  O   UNK N   1      35.651  17.189  10.356  0.00  0.00    -0.294 OA
BRANCH  19  20
HETATM   20  P   UNK N   1      35.689  15.888  11.520  0.00  0.00     0.390 P 
HETATM   21  O   UNK N   1      34.431  15.512  10.694  0.00  0.00    -0.632 OA
BRANCH  20  22
HETATM   22  O   UNK N   1      36.025  14.252  11.047  0.00  0.00    -0.307 OA
HETATM   23  H   UNK N   1      36.854  13.825  11.316  0.00  0.00     0.222 HD
ENDBRANCH  20  22
BRANCH  20  24
HETATM   24  O   UNK N   1      37.086  15.804  10.490  0.00  0.00    -0.307 OA
HETATM   25  H   UNK N   1      37.003  15.793   9.523  0.00  0.00     0.222 HD
ENDBRANCH  20  24
ENDBRANCH  19  20
ENDBRANCH  18  19
ENDBRANCH   3  18
TORSDOF 7
ENDMDL
MODEL 7
REMARK VINA RESULT:      -5.9      7.825     10.124
REMARK  7 active torsions:
REMARK  status: ('A' for Active; 'I' for Inactive)
REMARK    1  A    between atoms: C_6  and  C_3 
REMARK    2  A    between atoms: O_19  and  C_3 
REMARK    3  A    between atoms: C_5  and  O_13 
REMARK    4  A    between atoms: C_7  and  N_12 
REMARK    5  A    between atoms: P_21  and  O_16 
REMARK    6  A    between atoms: P_21  and  O_17 
REMARK    7  A    between atoms: P_21  and  O_19 
ROOT
HETATM    1  C   UNK N   1      35.034  16.726   9.289  0.00  0.00     0.088 C 
HETATM    2  C   UNK N   1      35.360  16.316  10.685  0.00  0.00     0.153 C 
HETATM    3  C   UNK N   1      34.483  15.070  10.839  0.00  0.00     0.177 C 
HETATM    4  C   UNK N   1      33.534  16.483   9.338  0.00  0.00     0.235 C 
HETATM    5  O   UNK N   1      33.347  15.249  10.007  0.00  0.00    -0.356 OA
ENDROOT
BRANCH   4   6
HETATM    6  N   UNK N   1      32.925  16.517   7.995  0.00  0.00    -0.281 N 
HETATM    7  C   UNK N   1      33.481  15.812   6.966  0.00  0.00     0.122 A 
HETATM    8  C   UNK N   1      32.883  15.797   5.705  0.00  0.00     0.090 A 
HETATM    9  C   UNK N   1      31.695  16.506   5.513  0.00  0.00     0.267 A 
HETATM   10  I   UNK N   1      33.776  14.703   4.134  0.00  0.00    -0.037 I 
HETATM   11  N   UNK N   1      31.152  17.207   6.552  0.00  0.00    -0.274 N 
HETATM   12  O   UNK N   1      31.139  16.503   4.430  0.00  0.00    -0.267 OA
HETATM   13  C   UNK N   1      31.751  17.221   7.783  0.00  0.00     0.331 A 
HETATM   14  H   UNK N   1      30.317  17.710   6.415  0.00  0.00     0.173 HD
HETATM   15  O   UNK N   1      31.228  17.843   8.694  0.00  0.00    -0.246 OA
ENDBRANCH   4   6
BRANCH   2  16
HETATM   16  O   UNK N   1      36.724  16.091  10.884  0.00  0.00    -0.393 OA
HETATM   17  H   UNK N   1      37.305  15.617  11.498  0.00  0.00     0.210 HD
ENDBRANCH   2  16
BRANCH   3  18
HETATM   18  C   UNK N   1      35.182  13.767  10.430  0.00  0.00     0.215 C 
BRANCH  18  19
HETATM   19  O   UNK N   1      35.616  13.041  11.554  0.00  0.00    -0.294 OA
BRANCH  19  20
HETATM   20  P   UNK N   1      37.223  12.471  11.173  0.00  0.00     0.390 P 
HETATM   21  O   UNK N   1      36.832  13.173   9.845  0.00  0.00    -0.632 OA
BRANCH  20  22
HETATM   22  O   UNK N   1      38.544  13.570  10.924  0.00  0.00    -0.307 OA
HETATM   23  H   UNK N   1      38.722  13.927  10.040  0.00  0.00     0.222 HD
ENDBRANCH  20  22
BRANCH  20  24
HETATM   24  O   UNK N   1      37.299  13.660  12.438  0.00  0.00    -0.307 OA
HETATM   25  H   UNK N   1      38.147  14.015  12.749  0.00  0.00     0.222 HD
ENDBRANCH  20  24
ENDBRANCH  19  20
ENDBRANCH  18  19
ENDBRANCH   3  18
TORSDOF 7
ENDMDL
MODEL 8
REMARK VINA RESULT:      -5.8      5.050      6.803
REMARK  7 active torsions:
REMARK  status: ('A' for Active; 'I' for Inactive)
REMARK    1  A    between atoms: C_6  and  C_3 
REMARK    2  A    between atoms: O_19  and  C_3 
REMARK    3  A    between atoms: C_5  and  O_13 
REMARK    4  A    between atoms: C_7  and  N_12 
REMARK    5  A    between atoms: P_21  and  O_16 
REMARK    6  A    between atoms: P_21  and  O_17 
REMARK    7  A    between atoms: P_21  and  O_19 
ROOT
HETATM    1  C   UNK N   1      22.828  16.799   4.041  0.00  0.00     0.088 C 
HETATM    2  C   UNK N   1      23.115  17.210   5.445  0.00  0.00     0.153 C 
HETATM    3  C   UNK N   1      21.747  17.001   6.099  0.00  0.00     0.177 C 
HETATM    4  C   UNK N   1      21.470  17.465   3.896  0.00  0.00     0.235 C 
HETATM    5  O   UNK N   1      20.765  17.209   5.096  0.00  0.00    -0.356 OA
ENDROOT
BRANCH   4   6
HETATM    6  N   UNK N   1      20.756  17.006   2.690  0.00  0.00    -0.281 N 
HETATM    7  C   UNK N   1      20.680  15.674   2.397  0.00  0.00     0.122 A 
HETATM    8  C   UNK N   1      19.963  15.226   1.287  0.00  0.00     0.090 A 
HETATM    9  C   UNK N   1      19.310  16.163   0.483  0.00  0.00     0.267 A 
HETATM   10  I   UNK N   1      19.874  13.159   0.859  0.00  0.00    -0.037 I 
HETATM   11  N   UNK N   1      19.396  17.491   0.788  0.00  0.00    -0.274 N 
HETATM   12  O   UNK N   1      18.663  15.806  -0.485  0.00  0.00    -0.267 OA
HETATM   13  C   UNK N   1      20.108  17.920   1.875  0.00  0.00     0.331 A 
HETATM   14  H   UNK N   1      18.938  18.151   0.218  0.00  0.00     0.173 HD
HETATM   15  O   UNK N   1      20.148  19.113   2.129  0.00  0.00    -0.246 OA
ENDBRANCH   4   6
BRANCH   2  16
HETATM   16  O   UNK N   1      24.152  16.477   6.027  0.00  0.00    -0.393 OA
HETATM   17  H   UNK N   1      25.006  16.634   6.460  0.00  0.00     0.210 HD
ENDBRANCH   2  16
BRANCH   3  18
HETATM   18  C   UNK N   1      21.550  15.596   6.686  0.00  0.00     0.215 C 
BRANCH  18  19
HETATM   19  O   UNK N   1      20.247  15.428   7.190  0.00  0.00    -0.294 OA
BRANCH  19  20
HETATM   20  P   UNK N   1      20.418  15.203   8.913  0.00  0.00     0.390 P 
HETATM   21  O   UNK N   1      19.017  15.866   8.836  0.00  0.00    -0.632 OA
BRANCH  20  22
HETATM   22  O   UNK N   1      19.422  14.082   9.789  0.00  0.00    -0.307 OA
HETATM   23  H   UNK N   1      18.725  14.407  10.380  0.00  0.00     0.222 HD
ENDBRANCH  20  22
BRANCH  20  24
HETATM   24  O   UNK N   1      20.356  13.660   8.116  0.00  0.00    -0.307 OA
HETATM   25  H   UNK N   1      19.534  13.325   7.725  0.00  0.00     0.222 HD
ENDBRANCH  20  24
ENDBRANCH  19  20
ENDBRANCH  18  19
ENDBRANCH   3  18
TORSDOF 7
ENDMDL
MODEL 9
REMARK VINA RESULT:      -5.7      4.504      7.790
REMARK  7 active torsions:
REMARK  status: ('A' for Active; 'I' for Inactive)
REMARK    1  A    between atoms: C_6  and  C_3 
REMARK    2  A    between atoms: O_19  and  C_3 
REMARK    3  A    between atoms: C_5  and  O_13 
REMARK    4  A    between atoms: C_7  and  N_12 
REMARK    5  A    between atoms: P_21  and  O_16 
REMARK    6  A    between atoms: P_21  and  O_17 
REMARK    7  A    between atoms: P_21  and  O_19 
ROOT
HETATM    1  C   UNK N   1      27.852  16.605   6.013  0.00  0.00     0.088 C 
HETATM    2  C   UNK N   1      26.518  17.122   5.594  0.00  0.00     0.153 C 
HETATM    3  C   UNK N   1      26.785  18.629   5.552  0.00  0.00     0.177 C 
HETATM    4  C   UNK N   1      28.169  17.657   7.064  0.00  0.00     0.235 C 
HETATM    5  O   UNK N   1      27.793  18.905   6.512  0.00  0.00    -0.356 OA
ENDROOT
BRANCH   4   6
HETATM    6  N   UNK N   1      29.581  17.607   7.486  0.00  0.00    -0.281 N 
HETATM    7  C   UNK N   1      30.556  17.254   6.596  0.00  0.00     0.122 A 
HETATM    8  C   UNK N   1      31.900  17.254   6.973  0.00  0.00     0.090 A 
HETATM    9  C   UNK N   1      32.237  17.635   8.273  0.00  0.00     0.267 A 
HETATM   10  I   UNK N   1      33.381  16.694   5.573  0.00  0.00    -0.037 I 
HETATM   11  N   UNK N   1      31.251  17.984   9.151  0.00  0.00    -0.274 N 
HETATM   12  O   UNK N   1      33.401  17.660   8.630  0.00  0.00    -0.267 OA
HETATM   13  C   UNK N   1      29.935  17.973   8.774  0.00  0.00     0.331 A 
HETATM   14  H   UNK N   1      31.489  18.248  10.069  0.00  0.00     0.173 HD
HETATM   15  O   UNK N   1      29.081  18.309   9.579  0.00  0.00    -0.246 OA
ENDBRANCH   4   6
BRANCH   2  16
HETATM   16  O   UNK N   1      26.077  16.579   4.385  0.00  0.00    -0.393 OA
HETATM   17  H   UNK N   1      26.319  15.870   3.770  0.00  0.00     0.210 HD
ENDBRANCH   2  16
BRANCH   3  18
HETATM   18  C   UNK N   1      27.266  19.134   4.186  0.00  0.00     0.215 C 
BRANCH  18  19
HETATM   19  O   UNK N   1      26.235  19.093   3.229  0.00  0.00    -0.294 OA
BRANCH  19  20
HETATM   20  P   UNK N   1      25.151  20.403   3.627  0.00  0.00     0.390 P 
HETATM   21  O   UNK N   1      25.716  20.886   2.265  0.00  0.00    -0.632 OA
BRANCH  20  22
HETATM   22  O   UNK N   1      23.710  20.704   2.707  0.00  0.00    -0.307 OA
HETATM   23  H   UNK N   1      22.858  20.819   3.156  0.00  0.00     0.222 HD
ENDBRANCH  20  22
BRANCH  20  24
HETATM   24  O   UNK N   1      24.248  18.940   3.375  0.00  0.00    -0.307 OA
HETATM   25  H   UNK N   1      24.120  18.294   4.089  0.00  0.00     0.222 HD
ENDBRANCH  20  24
ENDBRANCH  19  20
ENDBRANCH  18  19
ENDBRANCH   3  18
TORSDOF 7
ENDMDL
