MODEL 1
REMARK VINA RESULT:      -6.2      0.000      0.000
REMARK  11 active torsions:
REMARK  status: ('A' for Active; 'I' for Inactive)
REMARK    1  A    between atoms: C_4  and  C_2 
REMARK    2  A    between atoms: O_13  and  C_2 
REMARK    3  A    between atoms: C_6  and  C_3 
REMARK    4  A    between atoms: O_14  and  C_3 
REMARK    5  A    between atoms: C_5  and  O_15 
REMARK    6  A    between atoms: C_7  and  O_16 
REMARK    7  A    between atoms: C_8  and  O_17 
REMARK    8  A    between atoms: C_9  and  O_18 
REMARK    9  A    between atoms: C_10  and  O_22 
REMARK   10  A    between atoms: C_11  and  O_19 
REMARK   11  A    between atoms: C_12  and  O_22 
ROOT
HETATM    1  C   UNK N   1      33.741  14.970   7.552  0.00  0.00     0.180 C 
HETATM    2  C   UNK N   1      31.941  15.198   9.275  0.00  0.00     0.183 C 
HETATM    3  C   UNK N   1      31.389  16.438   8.524  0.00  0.00     0.204 C 
HETATM    4  C   UNK N   1      33.460  15.134   9.092  0.00  0.00     0.187 C 
HETATM    5  C   UNK N   1      32.272  16.821   7.304  0.00  0.00     0.288 C 
HETATM    6  O   UNK N   1      32.839  15.682   6.693  0.00  0.00    -0.349 OA
ENDROOT
BRANCH   4   7
HETATM    7  O   UNK N   1      34.128  14.198   9.941  0.00  0.00    -0.348 OA
BRANCH   7   8
HETATM    8  C   UNK N   1      34.909  14.757  10.995  0.00  0.00     0.292 C 
HETATM    9  C   UNK N   1      36.423  14.678  10.630  0.00  0.00     0.202 C 
HETATM   10  C   UNK N   1      37.153  13.674  11.535  0.00  0.00     0.154 C 
HETATM   11  C   UNK N   1      36.347  12.387  11.599  0.00  0.00     0.068 C 
HETATM   12  C   UNK N   1      34.915  12.684  12.094  0.00  0.00     0.150 C 
HETATM   13  O   UNK N   1      34.658  14.080  12.219  0.00  0.00    -0.351 OA
BRANCH   9  14
HETATM   14  O   UNK N   1      37.032  15.930  10.763  0.00  0.00    -0.388 OA
HETATM   15  H   UNK N   1      37.105  16.738  10.230  0.00  0.00     0.210 HD
ENDBRANCH   9  14
BRANCH  10  16
HETATM   16  O   UNK N   1      38.438  13.420  11.056  0.00  0.00    -0.393 OA
HETATM   17  H   UNK N   1      39.216  13.293  11.622  0.00  0.00     0.210 HD
ENDBRANCH  10  16
BRANCH  12  18
HETATM   18  C   UNK N   1      34.698  12.045  13.455  0.00  0.00     0.196 C 
BRANCH  18  19
HETATM   19  O   UNK N   1      34.538  13.025  14.437  0.00  0.00    -0.398 OA
HETATM   20  H   UNK N   1      34.055  13.858  14.557  0.00  0.00     0.209 HD
ENDBRANCH  18  19
ENDBRANCH  12  18
ENDBRANCH   7   8
ENDBRANCH   4   7
BRANCH   1  21
HETATM   21  C   UNK N   1      35.186  15.340   7.232  0.00  0.00     0.198 C 
BRANCH  21  22
HETATM   22  O   UNK N   1      35.263  15.994   6.002  0.00  0.00    -0.398 OA
HETATM   23  H   UNK N   1      35.261  15.650   5.095  0.00  0.00     0.209 HD
ENDBRANCH  21  22
ENDBRANCH   1  21
BRANCH   2  24
HETATM   24  O   UNK N   1      31.574  15.228  10.623  0.00  0.00    -0.390 OA
HETATM   25  H   UNK N   1      32.128  14.979  11.380  0.00  0.00     0.210 HD
ENDBRANCH   2  24
BRANCH   3  26
HETATM   26  O   UNK N   1      31.297  17.546   9.373  0.00  0.00    -0.388 OA
HETATM   27  H   UNK N   1      31.717  18.328   9.763  0.00  0.00     0.210 HD
ENDBRANCH   3  26
BRANCH   5  28
HETATM   28  O   UNK N   1      33.292  17.714   7.661  0.00  0.00    -0.369 OA
HETATM   29  H   UNK N   1      33.808  18.535   7.644  0.00  0.00     0.212 HD
ENDBRANCH   5  28
TORSDOF 11
ENDMDL
MODEL 2
REMARK VINA RESULT:      -6.1      1.768      6.128
REMARK  11 active torsions:
REMARK  status: ('A' for Active; 'I' for Inactive)
REMARK    1  A    between atoms: C_4  and  C_2 
REMARK    2  A    between atoms: O_13  and  C_2 
REMARK    3  A    between atoms: C_6  and  C_3 
REMARK    4  A    between atoms: O_14  and  C_3 
REMARK    5  A    between atoms: C_5  and  O_15 
REMARK    6  A    between atoms: C_7  and  O_16 
REMARK    7  A    between atoms: C_8  and  O_17 
REMARK    8  A    between atoms: C_9  and  O_18 
REMARK    9  A    between atoms: C_10  and  O_22 
REMARK   10  A    between atoms: C_11  and  O_19 
REMARK   11  A    between atoms: C_12  and  O_22 
ROOT
HETATM    1  C   UNK N   1      34.942  14.761  11.446  0.00  0.00     0.180 C 
HETATM    2  C   UNK N   1      34.978  12.512  10.349  0.00  0.00     0.183 C 
HETATM    3  C   UNK N   1      35.613  11.906  11.628  0.00  0.00     0.204 C 
HETATM    4  C   UNK N   1      35.451  13.960  10.190  0.00  0.00     0.187 C 
HETATM    5  C   UNK N   1      35.911  12.990  12.700  0.00  0.00     0.288 C 
HETATM    6  O   UNK N   1      34.950  14.025  12.677  0.00  0.00    -0.349 OA
ENDROOT
BRANCH   4   7
HETATM    7  O   UNK N   1      35.155  14.552   8.922  0.00  0.00    -0.348 OA
BRANCH   7   8
HETATM    8  C   UNK N   1      33.792  14.903   8.699  0.00  0.00     0.292 C 
HETATM    9  C   UNK N   1      33.348  14.424   7.282  0.00  0.00     0.202 C 
HETATM   10  C   UNK N   1      33.103  15.622   6.352  0.00  0.00     0.154 C 
HETATM   11  C   UNK N   1      34.272  16.586   6.466  0.00  0.00     0.068 C 
HETATM   12  C   UNK N   1      34.459  17.019   7.936  0.00  0.00     0.150 C 
HETATM   13  O   UNK N   1      33.607  16.306   8.828  0.00  0.00    -0.351 OA
BRANCH   9  14
HETATM   14  O   UNK N   1      32.175  13.666   7.358  0.00  0.00    -0.388 OA
HETATM   15  H   UNK N   1      31.251  13.824   7.609  0.00  0.00     0.210 HD
ENDBRANCH   9  14
BRANCH  10  16
HETATM   16  O   UNK N   1      32.950  15.199   5.031  0.00  0.00    -0.393 OA
HETATM   17  H   UNK N   1      32.376  15.636   4.381  0.00  0.00     0.210 HD
ENDBRANCH  10  16
BRANCH  12  18
HETATM   18  C   UNK N   1      34.151  18.500   8.079  0.00  0.00     0.196 C 
BRANCH  18  19
HETATM   19  O   UNK N   1      35.284  19.198   8.505  0.00  0.00    -0.398 OA
HETATM   20  H   UNK N   1      36.044  19.654   8.111  0.00  0.00     0.209 HD
ENDBRANCH  18  19
ENDBRANCH  12  18
ENDBRANCH   7   8
ENDBRANCH   4   7
BRANCH   1  21
HETATM   21  C   UNK N   1      35.722  16.063  11.597  0.00  0.00     0.198 C 
BRANCH  21  22
HETATM   22  O   UNK N   1      36.883  16.031  10.825  0.00  0.00    -0.398 OA
HETATM   23  H   UNK N   1      37.095  16.444   9.973  0.00  0.00     0.209 HD
ENDBRANCH  21  22
ENDBRANCH   1  21
BRANCH   2  24
HETATM   24  O   UNK N   1      35.278  11.734   9.227  0.00  0.00    -0.390 OA
HETATM   25  H   UNK N   1      34.749  11.003   8.871  0.00  0.00     0.210 HD
ENDBRANCH   2  24
BRANCH   3  26
HETATM   26  O   UNK N   1      36.803  11.232  11.333  0.00  0.00    -0.388 OA
HETATM   27  H   UNK N   1      37.713  11.010  11.582  0.00  0.00     0.210 HD
ENDBRANCH   3  26
BRANCH   5  28
HETATM   28  O   UNK N   1      37.190  13.541  12.541  0.00  0.00    -0.369 OA
HETATM   29  H   UNK N   1      38.003  14.003  12.799  0.00  0.00     0.212 HD
ENDBRANCH   5  28
TORSDOF 11
ENDMDL
MODEL 3
REMARK VINA RESULT:      -6.0      1.936      2.944
REMARK  11 active torsions:
REMARK  status: ('A' for Active; 'I' for Inactive)
REMARK    1  A    between atoms: C_4  and  C_2 
REMARK    2  A    between atoms: O_13  and  C_2 
REMARK    3  A    between atoms: C_6  and  C_3 
REMARK    4  A    between atoms: O_14  and  C_3 
REMARK    5  A    between atoms: C_5  and  O_15 
REMARK    6  A    between atoms: C_7  and  O_16 
REMARK    7  A    between atoms: C_8  and  O_17 
REMARK    8  A    between atoms: C_9  and  O_18 
REMARK    9  A    between atoms: C_10  and  O_22 
REMARK   10  A    between atoms: C_11  and  O_19 
REMARK   11  A    between atoms: C_12  and  O_22 
ROOT
HETATM    1  C   UNK N   1      34.039  15.302   7.600  0.00  0.00     0.180 C 
HETATM    2  C   UNK N   1      34.597  16.969   9.381  0.00  0.00     0.183 C 
HETATM    3  C   UNK N   1      33.954  18.090   8.523  0.00  0.00     0.204 C 
HETATM    4  C   UNK N   1      35.210  15.915   8.455  0.00  0.00     0.187 C 
HETATM    5  C   UNK N   1      33.475  17.564   7.142  0.00  0.00     0.288 C 
HETATM    6  O   UNK N   1      33.015  16.231   7.222  0.00  0.00    -0.349 OA
ENDROOT
BRANCH   4   7
HETATM    7  O   UNK N   1      36.060  14.966   9.104  0.00  0.00    -0.348 OA
BRANCH   7   8
HETATM    8  C   UNK N   1      35.401  13.937   9.838  0.00  0.00     0.292 C 
HETATM    9  C   UNK N   1      35.628  14.149  11.367  0.00  0.00     0.202 C 
HETATM   10  C   UNK N   1      36.530  13.047  11.944  0.00  0.00     0.154 C 
HETATM   11  C   UNK N   1      37.740  12.873  11.040  0.00  0.00     0.068 C 
HETATM   12  C   UNK N   1      37.284  12.558   9.600  0.00  0.00     0.150 C 
HETATM   13  O   UNK N   1      35.872  12.656   9.440  0.00  0.00    -0.351 OA
BRANCH   9  14
HETATM   14  O   UNK N   1      34.411  14.141  12.056  0.00  0.00    -0.388 OA
HETATM   15  H   UNK N   1      33.652  14.738  12.150  0.00  0.00     0.210 HD
ENDBRANCH   9  14
BRANCH  10  16
HETATM   16  O   UNK N   1      36.934  13.367  13.240  0.00  0.00    -0.393 OA
HETATM   17  H   UNK N   1      37.298  14.228  13.501  0.00  0.00     0.210 HD
ENDBRANCH  10  16
BRANCH  12  18
HETATM   18  C   UNK N   1      37.699  11.144   9.227  0.00  0.00     0.196 C 
BRANCH  18  19
HETATM   19  O   UNK N   1      38.457  10.569  10.249  0.00  0.00    -0.398 OA
HETATM   20  H   UNK N   1      38.583   9.697  10.656  0.00  0.00     0.209 HD
ENDBRANCH  18  19
ENDBRANCH  12  18
ENDBRANCH   7   8
ENDBRANCH   4   7
BRANCH   1  21
HETATM   21  C   UNK N   1      34.594  14.589   6.371  0.00  0.00     0.198 C 
BRANCH  21  22
HETATM   22  O   UNK N   1      35.832  15.123   6.013  0.00  0.00    -0.398 OA
HETATM   23  H   UNK N   1      36.067  15.831   5.393  0.00  0.00     0.209 HD
ENDBRANCH  21  22
ENDBRANCH   1  21
BRANCH   2  24
HETATM   24  O   UNK N   1      35.536  17.498  10.271  0.00  0.00    -0.390 OA
HETATM   25  H   UNK N   1      35.422  18.276  10.839  0.00  0.00     0.210 HD
ENDBRANCH   2  24
BRANCH   3  26
HETATM   26  O   UNK N   1      34.850  19.144   8.312  0.00  0.00    -0.388 OA
HETATM   27  H   UNK N   1      35.135  20.045   8.529  0.00  0.00     0.210 HD
ENDBRANCH   3  26
BRANCH   5  28
HETATM   28  O   UNK N   1      34.486  17.648   6.174  0.00  0.00    -0.369 OA
HETATM   29  H   UNK N   1      35.370  17.533   5.793  0.00  0.00     0.212 HD
ENDBRANCH   5  28
TORSDOF 11
ENDMDL
MODEL 4
REMARK VINA RESULT:      -6.0      2.466      6.883
REMARK  11 active torsions:
REMARK  status: ('A' for Active; 'I' for Inactive)
REMARK    1  A    between atoms: C_4  and  C_2 
REMARK    2  A    between atoms: O_13  and  C_2 
REMARK    3  A    between atoms: C_6  and  C_3 
REMARK    4  A    between atoms: O_14  and  C_3 
REMARK    5  A    between atoms: C_5  and  O_15 
REMARK    6  A    between atoms: C_7  and  O_16 
REMARK    7  A    between atoms: C_8  and  O_17 
REMARK    8  A    between atoms: C_9  and  O_18 
REMARK    9  A    between atoms: C_10  and  O_22 
REMARK   10  A    between atoms: C_11  and  O_19 
REMARK   11  A    between atoms: C_12  and  O_22 
ROOT
HETATM    1  C   UNK N   1      35.243  13.092  15.550  0.00  0.00     0.180 C 
HETATM    2  C   UNK N   1      33.891  11.285  14.468  0.00  0.00     0.183 C 
HETATM    3  C   UNK N   1      34.466  10.259  15.479  0.00  0.00     0.204 C 
HETATM    4  C   UNK N   1      34.945  12.361  14.189  0.00  0.00     0.187 C 
HETATM    5  C   UNK N   1      35.525  10.898  16.419  0.00  0.00     0.288 C 
HETATM    6  O   UNK N   1      35.219  12.246  16.709  0.00  0.00    -0.349 OA
ENDROOT
BRANCH   4   7
HETATM    7  O   UNK N   1      34.649  13.219  13.083  0.00  0.00    -0.348 OA
BRANCH   7   8
HETATM    8  C   UNK N   1      35.420  13.006  11.904  0.00  0.00     0.292 C 
HETATM    9  C   UNK N   1      36.573  14.054  11.829  0.00  0.00     0.202 C 
HETATM   10  C   UNK N   1      36.337  15.046  10.680  0.00  0.00     0.154 C 
HETATM   11  C   UNK N   1      34.900  15.539  10.738  0.00  0.00     0.068 C 
HETATM   12  C   UNK N   1      33.928  14.342  10.683  0.00  0.00     0.150 C 
HETATM   13  O   UNK N   1      34.600  13.088  10.745  0.00  0.00    -0.351 OA
BRANCH   9  14
HETATM   14  O   UNK N   1      37.806  13.424  11.633  0.00  0.00    -0.388 OA
HETATM   15  H   UNK N   1      38.658  13.385  12.097  0.00  0.00     0.210 HD
ENDBRANCH   9  14
BRANCH  10  16
HETATM   16  O   UNK N   1      37.223  16.120  10.764  0.00  0.00    -0.393 OA
HETATM   17  H   UNK N   1      37.991  16.148  11.357  0.00  0.00     0.210 HD
ENDBRANCH  10  16
BRANCH  12  18
HETATM   18  C   UNK N   1      33.134  14.383   9.387  0.00  0.00     0.196 C 
BRANCH  18  19
HETATM   19  O   UNK N   1      32.280  13.282   9.301  0.00  0.00    -0.398 OA
HETATM   20  H   UNK N   1      31.539  12.981   8.752  0.00  0.00     0.209 HD
ENDBRANCH  18  19
ENDBRANCH  12  18
ENDBRANCH   7   8
ENDBRANCH   4   7
BRANCH   1  21
HETATM   21  C   UNK N   1      36.564  13.850  15.469  0.00  0.00     0.198 C 
BRANCH  21  22
HETATM   22  O   UNK N   1      37.481  13.152  14.683  0.00  0.00    -0.398 OA
HETATM   23  H   UNK N   1      37.493  12.229  14.383  0.00  0.00     0.209 HD
ENDBRANCH  21  22
ENDBRANCH   1  21
BRANCH   2  24
HETATM   24  O   UNK N   1      33.466  10.649  13.298  0.00  0.00    -0.390 OA
HETATM   25  H   UNK N   1      33.095  11.074  12.509  0.00  0.00     0.210 HD
ENDBRANCH   2  24
BRANCH   3  26
HETATM   26  O   UNK N   1      35.053   9.173  14.820  0.00  0.00    -0.388 OA
HETATM   27  H   UNK N   1      35.820   8.591  14.703  0.00  0.00     0.210 HD
ENDBRANCH   3  26
BRANCH   5  28
HETATM   28  O   UNK N   1      36.816  10.820  15.878  0.00  0.00    -0.369 OA
HETATM   29  H   UNK N   1      37.501  10.596  15.229  0.00  0.00     0.212 HD
ENDBRANCH   5  28
TORSDOF 11
ENDMDL
MODEL 5
REMARK VINA RESULT:      -6.0     10.178     14.435
REMARK  11 active torsions:
REMARK  status: ('A' for Active; 'I' for Inactive)
REMARK    1  A    between atoms: C_4  and  C_2 
REMARK    2  A    between atoms: O_13  and  C_2 
REMARK    3  A    between atoms: C_6  and  C_3 
REMARK    4  A    between atoms: O_14  and  C_3 
REMARK    5  A    between atoms: C_5  and  O_15 
REMARK    6  A    between atoms: C_7  and  O_16 
REMARK    7  A    between atoms: C_8  and  O_17 
REMARK    8  A    between atoms: C_9  and  O_18 
REMARK    9  A    between atoms: C_10  and  O_22 
REMARK   10  A    between atoms: C_11  and  O_19 
REMARK   11  A    between atoms: C_12  and  O_22 
ROOT
HETATM    1  C   UNK N   1      25.639  17.313   3.819  0.00  0.00     0.180 C 
HETATM    2  C   UNK N   1      25.440  19.717   3.151  0.00  0.00     0.183 C 
HETATM    3  C   UNK N   1      26.713  20.044   3.974  0.00  0.00     0.204 C 
HETATM    4  C   UNK N   1      24.686  18.566   3.825  0.00  0.00     0.187 C 
HETATM    5  C   UNK N   1      27.249  18.801   4.737  0.00  0.00     0.288 C 
HETATM    6  O   UNK N   1      27.029  17.609   4.012  0.00  0.00    -0.349 OA
ENDROOT
BRANCH   4   7
HETATM    7  O   UNK N   1      23.367  18.338   3.323  0.00  0.00    -0.348 OA
BRANCH   7   8
HETATM    8  C   UNK N   1      22.305  18.930   4.066  0.00  0.00     0.292 C 
HETATM    9  C   UNK N   1      21.186  17.874   4.325  0.00  0.00     0.202 C 
HETATM   10  C   UNK N   1      19.916  18.216   3.531  0.00  0.00     0.154 C 
HETATM   11  C   UNK N   1      20.300  18.541   2.096  0.00  0.00     0.068 C 
HETATM   12  C   UNK N   1      21.330  19.690   2.072  0.00  0.00     0.150 C 
HETATM   13  O   UNK N   1      21.775  20.054   3.375  0.00  0.00    -0.351 OA
BRANCH   9  14
HETATM   14  O   UNK N   1      20.864  17.813   5.684  0.00  0.00    -0.388 OA
HETATM   15  H   UNK N   1      21.055  17.217   6.426  0.00  0.00     0.210 HD
ENDBRANCH   9  14
BRANCH  10  16
HETATM   16  O   UNK N   1      19.012  17.155   3.564  0.00  0.00    -0.393 OA
HETATM   17  H   UNK N   1      19.160  16.326   4.047  0.00  0.00     0.210 HD
ENDBRANCH  10  16
BRANCH  12  18
HETATM   18  C   UNK N   1      20.712  20.920   1.428  0.00  0.00     0.196 C 
BRANCH  18  19
HETATM   19  O   UNK N   1      20.772  20.828   0.036  0.00  0.00    -0.398 OA
HETATM   20  H   UNK N   1      21.310  21.179  -0.691  0.00  0.00     0.209 HD
ENDBRANCH  18  19
ENDBRANCH  12  18
ENDBRANCH   7   8
ENDBRANCH   4   7
BRANCH   1  21
HETATM   21  C   UNK N   1      25.166  16.281   4.839  0.00  0.00     0.198 C 
BRANCH  21  22
HETATM   22  O   UNK N   1      24.396  16.890   5.830  0.00  0.00    -0.398 OA
HETATM   23  H   UNK N   1      23.541  17.345   5.785  0.00  0.00     0.209 HD
ENDBRANCH  21  22
ENDBRANCH   1  21
BRANCH   2  24
HETATM   24  O   UNK N   1      24.640  20.852   2.997  0.00  0.00    -0.390 OA
HETATM   25  H   UNK N   1      24.521  21.372   2.187  0.00  0.00     0.210 HD
ENDBRANCH   2  24
BRANCH   3  26
HETATM   26  O   UNK N   1      26.470  21.064   4.900  0.00  0.00    -0.388 OA
HETATM   27  H   UNK N   1      25.958  21.393   5.654  0.00  0.00     0.210 HD
ENDBRANCH   3  26
BRANCH   5  28
HETATM   28  O   UNK N   1      26.672  18.684   6.009  0.00  0.00    -0.369 OA
HETATM   29  H   UNK N   1      26.646  18.566   6.972  0.00  0.00     0.212 HD
ENDBRANCH   5  28
TORSDOF 11
ENDMDL
MODEL 6
REMARK VINA RESULT:      -5.8      5.409      8.590
REMARK  11 active torsions:
REMARK  status: ('A' for Active; 'I' for Inactive)
REMARK    1  A    between atoms: C_4  and  C_2 
REMARK    2  A    between atoms: O_13  and  C_2 
REMARK    3  A    between atoms: C_6  and  C_3 
REMARK    4  A    between atoms: O_14  and  C_3 
REMARK    5  A    between atoms: C_5  and  O_15 
REMARK    6  A    between atoms: C_7  and  O_16 
REMARK    7  A    between atoms: C_8  and  O_17 
REMARK    8  A    between atoms: C_9  and  O_18 
REMARK    9  A    between atoms: C_10  and  O_22 
REMARK   10  A    between atoms: C_11  and  O_19 
REMARK   11  A    between atoms: C_12  and  O_22 
ROOT
HETATM    1  C   UNK N   1      27.316  20.254   4.704  0.00  0.00     0.180 C 
HETATM    2  C   UNK N   1      27.526  17.845   4.059  0.00  0.00     0.183 C 
HETATM    3  C   UNK N   1      26.170  17.935   3.310  0.00  0.00     0.204 C 
HETATM    4  C   UNK N   1      27.500  18.793   5.261  0.00  0.00     0.187 C 
HETATM    5  C   UNK N   1      25.503  19.328   3.478  0.00  0.00     0.288 C 
HETATM    6  O   UNK N   1      26.464  20.360   3.556  0.00  0.00    -0.349 OA
ENDROOT
BRANCH   4   7
HETATM    7  O   UNK N   1      28.577  18.619   6.186  0.00  0.00    -0.348 OA
BRANCH   7   8
HETATM    8  C   UNK N   1      28.343  17.702   7.252  0.00  0.00     0.292 C 
HETATM    9  C   UNK N   1      28.421  18.449   8.619  0.00  0.00     0.202 C 
HETATM   10  C   UNK N   1      29.659  18.008   9.414  0.00  0.00     0.154 C 
HETATM   11  C   UNK N   1      30.871  18.031   8.497  0.00  0.00     0.068 C 
HETATM   12  C   UNK N   1      30.619  17.134   7.266  0.00  0.00     0.150 C 
HETATM   13  O   UNK N   1      29.285  16.638   7.215  0.00  0.00    -0.351 OA
BRANCH   9  14
HETATM   14  O   UNK N   1      27.280  18.199   9.388  0.00  0.00    -0.388 OA
HETATM   15  H   UNK N   1      27.076  18.095  10.331  0.00  0.00     0.210 HD
ENDBRANCH   9  14
BRANCH  10  16
HETATM   16  O   UNK N   1      29.865  18.844  10.512  0.00  0.00    -0.393 OA
HETATM   17  H   UNK N   1      30.155  19.768  10.448  0.00  0.00     0.210 HD
ENDBRANCH  10  16
BRANCH  12  18
HETATM   18  C   UNK N   1      31.560  15.941   7.298  0.00  0.00     0.196 C 
BRANCH  18  19
HETATM   19  O   UNK N   1      32.876  16.359   7.504  0.00  0.00    -0.398 OA
HETATM   20  H   UNK N   1      33.349  17.047   7.998  0.00  0.00     0.209 HD
ENDBRANCH  18  19
ENDBRANCH  12  18
ENDBRANCH   7   8
ENDBRANCH   4   7
BRANCH   1  21
HETATM   21  C   UNK N   1      26.840  21.189   5.811  0.00  0.00     0.198 C 
BRANCH  21  22
HETATM   22  O   UNK N   1      26.212  20.467   6.826  0.00  0.00    -0.398 OA
HETATM   23  H   UNK N   1      26.205  20.591   7.788  0.00  0.00     0.209 HD
ENDBRANCH  21  22
ENDBRANCH   1  21
BRANCH   2  24
HETATM   24  O   UNK N   1      27.802  16.527   4.433  0.00  0.00    -0.390 OA
HETATM   25  H   UNK N   1      28.565  15.994   4.159  0.00  0.00     0.210 HD
ENDBRANCH   2  24
BRANCH   3  26
HETATM   26  O   UNK N   1      25.277  16.956   3.758  0.00  0.00    -0.388 OA
HETATM   27  H   UNK N   1      24.967  16.385   4.478  0.00  0.00     0.210 HD
ENDBRANCH   3  26
BRANCH   5  28
HETATM   28  O   UNK N   1      24.678  19.376   4.610  0.00  0.00    -0.369 OA
HETATM   29  H   UNK N   1      24.346  19.123   5.486  0.00  0.00     0.212 HD
ENDBRANCH   5  28
TORSDOF 11
ENDMDL
MODEL 7
REMARK VINA RESULT:      -5.8      1.298      2.128
REMARK  11 active torsions:
REMARK  status: ('A' for Active; 'I' for Inactive)
REMARK    1  A    between atoms: C_4  and  C_2 
REMARK    2  A    between atoms: O_13  and  C_2 
REMARK    3  A    between atoms: C_6  and  C_3 
REMARK    4  A    between atoms: O_14  and  C_3 
REMARK    5  A    between atoms: C_5  and  O_15 
REMARK    6  A    between atoms: C_7  and  O_16 
REMARK    7  A    between atoms: C_8  and  O_17 
REMARK    8  A    between atoms: C_9  and  O_18 
REMARK    9  A    between atoms: C_10  and  O_22 
REMARK   10  A    between atoms: C_11  and  O_19 
REMARK   11  A    between atoms: C_12  and  O_22 
ROOT
HETATM    1  C   UNK N   1      33.579  14.138   7.306  0.00  0.00     0.180 C 
HETATM    2  C   UNK N   1      32.923  16.446   8.017  0.00  0.00     0.183 C 
HETATM    3  C   UNK N   1      33.491  17.009   6.688  0.00  0.00     0.204 C 
HETATM    4  C   UNK N   1      33.743  15.222   8.435  0.00  0.00     0.187 C 
HETATM    5  C   UNK N   1      34.159  15.904   5.825  0.00  0.00     0.288 C 
HETATM    6  O   UNK N   1      33.505  14.661   5.972  0.00  0.00    -0.349 OA
ENDROOT
BRANCH   4   7
HETATM    7  O   UNK N   1      33.499  14.763   9.768  0.00  0.00    -0.348 OA
BRANCH   7   8
HETATM    8  C   UNK N   1      34.317  15.335  10.785  0.00  0.00     0.292 C 
HETATM    9  C   UNK N   1      35.723  15.678  10.203  0.00  0.00     0.202 C 
HETATM   10  C   UNK N   1      36.801  14.759  10.798  0.00  0.00     0.154 C 
HETATM   11  C   UNK N   1      36.314  13.320  10.739  0.00  0.00     0.068 C 
HETATM   12  C   UNK N   1      34.964  13.188  11.475  0.00  0.00     0.150 C 
HETATM   13  O   UNK N   1      34.441  14.447  11.888  0.00  0.00    -0.351 OA
BRANCH   9  14
HETATM   14  O   UNK N   1      36.063  17.007  10.476  0.00  0.00    -0.388 OA
HETATM   15  H   UNK N   1      36.068  17.846   9.988  0.00  0.00     0.210 HD
ENDBRANCH   9  14
BRANCH  10  16
HETATM   16  O   UNK N   1      38.003  14.895  10.105  0.00  0.00    -0.393 OA
HETATM   17  H   UNK N   1      38.119  14.679   9.165  0.00  0.00     0.210 HD
ENDBRANCH  10  16
BRANCH  12  18
HETATM   18  C   UNK N   1      35.136  12.325  12.714  0.00  0.00     0.196 C 
BRANCH  18  19
HETATM   19  O   UNK N   1      34.549  12.936  13.823  0.00  0.00    -0.398 OA
HETATM   20  H   UNK N   1      33.819  12.770  14.441  0.00  0.00     0.209 HD
ENDBRANCH  18  19
ENDBRANCH  12  18
ENDBRANCH   7   8
ENDBRANCH   4   7
BRANCH   1  21
HETATM   21  C   UNK N   1      34.683  13.091   7.409  0.00  0.00     0.198 C 
BRANCH  21  22
HETATM   22  O   UNK N   1      34.285  12.039   8.234  0.00  0.00    -0.398 OA
HETATM   23  H   UNK N   1      34.607  11.752   9.103  0.00  0.00     0.209 HD
ENDBRANCH  21  22
ENDBRANCH   1  21
BRANCH   2  24
HETATM   24  O   UNK N   1      32.905  17.431   9.008  0.00  0.00    -0.390 OA
HETATM   25  H   UNK N   1      32.624  17.320   9.930  0.00  0.00     0.210 HD
ENDBRANCH   2  24
BRANCH   3  26
HETATM   26  O   UNK N   1      34.430  18.018   6.925  0.00  0.00    -0.388 OA
HETATM   27  H   UNK N   1      34.621  18.916   7.237  0.00  0.00     0.210 HD
ENDBRANCH   3  26
BRANCH   5  28
HETATM   28  O   UNK N   1      35.518  15.753   6.134  0.00  0.00    -0.369 OA
HETATM   29  H   UNK N   1      36.375  15.304   6.202  0.00  0.00     0.212 HD
ENDBRANCH   5  28
TORSDOF 11
ENDMDL
MODEL 8
REMARK VINA RESULT:      -5.5      1.864      6.163
REMARK  11 active torsions:
REMARK  status: ('A' for Active; 'I' for Inactive)
REMARK    1  A    between atoms: C_4  and  C_2 
REMARK    2  A    between atoms: O_13  and  C_2 
REMARK    3  A    between atoms: C_6  and  C_3 
REMARK    4  A    between atoms: O_14  and  C_3 
REMARK    5  A    between atoms: C_5  and  O_15 
REMARK    6  A    between atoms: C_7  and  O_16 
REMARK    7  A    between atoms: C_8  and  O_17 
REMARK    8  A    between atoms: C_9  and  O_18 
REMARK    9  A    between atoms: C_10  and  O_22 
REMARK   10  A    between atoms: C_11  and  O_19 
REMARK   11  A    between atoms: C_12  and  O_22 
ROOT
HETATM    1  C   UNK N   1      35.283  12.409  10.143  0.00  0.00     0.180 C 
HETATM    2  C   UNK N   1      36.622  14.453  10.686  0.00  0.00     0.183 C 
HETATM    3  C   UNK N   1      36.666  14.020  12.175  0.00  0.00     0.204 C 
HETATM    4  C   UNK N   1      35.305  13.981  10.063  0.00  0.00     0.187 C 
HETATM    5  C   UNK N   1      35.837  12.731  12.432  0.00  0.00     0.288 C 
HETATM    6  O   UNK N   1      35.878  11.855  11.325  0.00  0.00    -0.349 OA
ENDROOT
BRANCH   4   7
HETATM    7  O   UNK N   1      35.016  14.535   8.777  0.00  0.00    -0.348 OA
BRANCH   7   8
HETATM    8  C   UNK N   1      33.669  14.947   8.562  0.00  0.00     0.292 C 
HETATM    9  C   UNK N   1      33.228  14.578   7.112  0.00  0.00     0.202 C 
HETATM   10  C   UNK N   1      33.037  15.843   6.260  0.00  0.00     0.154 C 
HETATM   11  C   UNK N   1      34.237  16.756   6.451  0.00  0.00     0.068 C 
HETATM   12  C   UNK N   1      34.418  17.084   7.948  0.00  0.00     0.150 C 
HETATM   13  O   UNK N   1      33.531  16.345   8.782  0.00  0.00    -0.351 OA
BRANCH   9  14
HETATM   14  O   UNK N   1      32.029  13.859   7.125  0.00  0.00    -0.388 OA
HETATM   15  H   UNK N   1      31.168  13.919   6.682  0.00  0.00     0.210 HD
ENDBRANCH   9  14
BRANCH  10  16
HETATM   16  O   UNK N   1      32.887  15.513   4.913  0.00  0.00    -0.393 OA
HETATM   17  H   UNK N   1      32.133  15.019   4.553  0.00  0.00     0.210 HD
ENDBRANCH  10  16
BRANCH  12  18
HETATM   18  C   UNK N   1      34.159  18.562   8.186  0.00  0.00     0.196 C 
BRANCH  18  19
HETATM   19  O   UNK N   1      35.348  19.224   8.502  0.00  0.00    -0.398 OA
HETATM   20  H   UNK N   1      35.745  19.679   9.261  0.00  0.00     0.209 HD
ENDBRANCH  18  19
ENDBRANCH  12  18
ENDBRANCH   7   8
ENDBRANCH   4   7
BRANCH   1  21
HETATM   21  C   UNK N   1      33.861  11.887   9.966  0.00  0.00     0.198 C 
BRANCH  21  22
HETATM   22  O   UNK N   1      33.586  10.891  10.904  0.00  0.00    -0.398 OA
HETATM   23  H   UNK N   1      33.179  10.015  10.804  0.00  0.00     0.209 HD
ENDBRANCH  21  22
ENDBRANCH   1  21
BRANCH   2  24
HETATM   24  O   UNK N   1      36.798  15.834  10.562  0.00  0.00    -0.390 OA
HETATM   25  H   UNK N   1      36.107  16.493  10.394  0.00  0.00     0.210 HD
ENDBRANCH   2  24
BRANCH   3  26
HETATM   26  O   UNK N   1      36.186  15.033  13.011  0.00  0.00    -0.388 OA
HETATM   27  H   UNK N   1      36.230  15.957  13.303  0.00  0.00     0.210 HD
ENDBRANCH   3  26
BRANCH   5  28
HETATM   28  O   UNK N   1      34.501  13.026  12.741  0.00  0.00    -0.369 OA
HETATM   29  H   UNK N   1      33.537  13.018  12.638  0.00  0.00     0.212 HD
ENDBRANCH   5  28
TORSDOF 11
ENDMDL
MODEL 9
REMARK VINA RESULT:      -5.5      1.846      6.050
REMARK  11 active torsions:
REMARK  status: ('A' for Active; 'I' for Inactive)
REMARK    1  A    between atoms: C_4  and  C_2 
REMARK    2  A    between atoms: O_13  and  C_2 
REMARK    3  A    between atoms: C_6  and  C_3 
REMARK    4  A    between atoms: O_14  and  C_3 
REMARK    5  A    between atoms: C_5  and  O_15 
REMARK    6  A    between atoms: C_7  and  O_16 
REMARK    7  A    between atoms: C_8  and  O_17 
REMARK    8  A    between atoms: C_9  and  O_18 
REMARK    9  A    between atoms: C_10  and  O_22 
REMARK   10  A    between atoms: C_11  and  O_19 
REMARK   11  A    between atoms: C_12  and  O_22 
ROOT
HETATM    1  C   UNK N   1      34.820  12.676   9.454  0.00  0.00     0.180 C 
HETATM    2  C   UNK N   1      36.883  13.912  10.147  0.00  0.00     0.183 C 
HETATM    3  C   UNK N   1      36.657  13.453  11.611  0.00  0.00     0.204 C 
HETATM    4  C   UNK N   1      35.526  14.083   9.458  0.00  0.00     0.187 C 
HETATM    5  C   UNK N   1      35.339  12.647  11.772  0.00  0.00     0.288 C 
HETATM    6  O   UNK N   1      35.053  11.878  10.622  0.00  0.00    -0.349 OA
ENDROOT
BRANCH   4   7
HETATM    7  O   UNK N   1      35.574  14.751   8.194  0.00  0.00    -0.348 OA
BRANCH   7   8
HETATM    8  C   UNK N   1      35.254  16.139   8.209  0.00  0.00     0.292 C 
HETATM    9  C   UNK N   1      34.074  16.400   9.196  0.00  0.00     0.202 C 
HETATM   10  C   UNK N   1      32.803  16.808   8.435  0.00  0.00     0.154 C 
HETATM   11  C   UNK N   1      32.590  15.849   7.275  0.00  0.00     0.068 C 
HETATM   12  C   UNK N   1      33.836  15.835   6.365  0.00  0.00     0.150 C 
HETATM   13  O   UNK N   1      34.916  16.591   6.904  0.00  0.00    -0.351 OA
BRANCH   9  14
HETATM   14  O   UNK N   1      34.400  17.413  10.104  0.00  0.00    -0.388 OA
HETATM   15  H   UNK N   1      34.283  18.375  10.156  0.00  0.00     0.210 HD
ENDBRANCH   9  14
BRANCH  10  16
HETATM   16  O   UNK N   1      31.695  16.800   9.283  0.00  0.00    -0.393 OA
HETATM   17  H   UNK N   1      31.626  17.325  10.096  0.00  0.00     0.210 HD
ENDBRANCH  10  16
BRANCH  12  18
HETATM   18  C   UNK N   1      33.488  16.423   5.007  0.00  0.00     0.196 C 
BRANCH  18  19
HETATM   19  O   UNK N   1      33.535  17.818   5.050  0.00  0.00    -0.398 OA
HETATM   20  H   UNK N   1      34.173  18.527   4.872  0.00  0.00     0.209 HD
ENDBRANCH  18  19
ENDBRANCH  12  18
ENDBRANCH   7   8
ENDBRANCH   4   7
BRANCH   1  21
HETATM   21  C   UNK N   1      33.323  12.832   9.204  0.00  0.00     0.198 C 
BRANCH  21  22
HETATM   22  O   UNK N   1      32.652  11.645   9.497  0.00  0.00    -0.398 OA
HETATM   23  H   UNK N   1      31.800  11.484   9.931  0.00  0.00     0.209 HD
ENDBRANCH  21  22
ENDBRANCH   1  21
BRANCH   2  24
HETATM   24  O   UNK N   1      37.647  15.081  10.103  0.00  0.00    -0.390 OA
HETATM   25  H   UNK N   1      38.607  15.142   9.978  0.00  0.00     0.210 HD
ENDBRANCH   2  24
BRANCH   3  26
HETATM   26  O   UNK N   1      36.622  14.545  12.485  0.00  0.00    -0.388 OA
HETATM   27  H   UNK N   1      36.797  15.485  12.643  0.00  0.00     0.210 HD
ENDBRANCH   3  26
BRANCH   5  28
HETATM   28  O   UNK N   1      34.250  13.483  12.054  0.00  0.00    -0.369 OA
HETATM   29  H   UNK N   1      33.516  14.089  11.867  0.00  0.00     0.212 HD
ENDBRANCH   5  28
TORSDOF 11
ENDMDL
