REMARK  4 active torsions:
REMARK  status: ('A' for Active; 'I' for Inactive)
REMARK    1  A    between atoms: C_2  and  O_1 
REMARK    2  A    between atoms: C_5  and  C_9 
REMARK    3  A    between atoms: C_7  and  O_8 
REMARK    4  A    between atoms: C_9  and  O_10 
ROOT
HETATM    1  C   UNK N   1       2.176   1.175   0.000  0.00  0.00     0.170 A 
HETATM    2  C   UNK N   1       2.103  -0.341  -0.000  0.00  0.00     0.203 A 
HETATM    3  O   UNK N   1       0.826  -0.968   0.000  0.00  0.00    -0.373 OA
HETATM    4  C   UNK N   1      -0.341  -0.152  -0.000  0.00  0.00     0.221 A 
HETATM    5  C   UNK N   1      -0.400   1.380   0.000  0.00  0.00     0.077 A 
HETATM    6  C   UNK N   1       0.947   2.019  -0.000  0.00  0.00     0.151 A 
ENDROOT
BRANCH   4   7
HETATM    7  C   UNK N   1      -1.649  -0.883  -0.000  0.00  0.00     0.170 C 
HETATM    8  O   UNK N   1      -2.698  -0.261   0.000  0.00  0.00    -0.648 OA
BRANCH   7   9
HETATM    9  O   UNK N   1      -1.672  -2.229   0.000  0.00  0.00    -0.774 OA
HETATM   10  H   UNK N   1      -2.492  -2.683   0.000  0.00  0.00     0.167 HD
ENDBRANCH   7   9
ENDBRANCH   4   7
BRANCH   6  11
HETATM   11  O   UNK N   1       1.042   3.410   0.000  0.00  0.00    -0.393 OA
HETATM   12  H   UNK N   1       1.913   3.837   0.000  0.00  0.00     0.210 HD
ENDBRANCH   6  11
BRANCH   1  13
HETATM   13  O   UNK N   1       3.427   1.791  -0.000  0.00  0.00    -0.391 OA
HETATM   14  H   UNK N   1       4.233   1.252  -0.000  0.00  0.00     0.210 HD
ENDBRANCH   1  13
TORSDOF 4
