MODEL 1
REMARK VINA RESULT:      -8.7      0.000      0.000
REMARK  9 active torsions:
REMARK  status: ('A' for Active; 'I' for Inactive)
REMARK    1  A    between atoms: C_18  and  C_14 
REMARK    2  A    between atoms: C_24  and  C_14 
REMARK    3  A    between atoms: C_21  and  C_17 
REMARK    4  A    between atoms: N_32  and  C_17 
REMARK    5  A    between atoms: C_28  and  C_22 
REMARK    6  A    between atoms: C_29  and  C_24 
REMARK    7  A    between atoms: C_24  and  N_32 
REMARK    8  A    between atoms: C_27  and  C_26 
REMARK       I    between atoms: N_32  and  C_28 
REMARK    9  A    between atoms: O_35  and  C_29 
ROOT
HETATM    1  C   UNK N   1      21.105  17.957   4.507  0.00  0.00     0.256 C 
HETATM    2  N   UNK N   1      20.395  16.970   3.818  0.00  0.00    -0.328 N 
HETATM    3  O   UNK N   1      20.662  18.356   5.571  0.00  0.00    -0.267 OA
ENDROOT
BRANCH   2   4
HETATM    4  C   UNK N   1      19.203  16.478   4.444  0.00  0.00     0.173 C 
BRANCH   4   5
HETATM    5  C   UNK N   1      19.345  15.140   5.022  0.00  0.00     0.001 A 
HETATM    6  C   UNK N   1      19.463  13.882   4.398  0.00  0.00     0.018 A 
HETATM    7  C   UNK N   1      20.167  12.944   5.212  0.00  0.00     0.023 A 
HETATM    8  C   UNK N   1      20.560  13.529   6.419  0.00  0.00     0.039 A 
HETATM    9  S   UNK N   1      20.012  15.053   6.464  0.00  0.00    -0.090 SA
BRANCH   8  10
HETATM   10  C   UNK N   1      21.514  13.150   7.418  0.00  0.00     0.094 A 
HETATM   11  C   UNK N   1      22.900  13.273   7.434  0.00  0.00     0.053 A 
HETATM   12  C   UNK N   1      23.229  12.857   8.714  0.00  0.00     0.000 A 
HETATM   13  C   UNK N   1      24.456  12.728   9.351  0.00  0.00     0.014 A 
HETATM   14  C   UNK N   1      22.068  12.542   9.361  0.00  0.00     0.086 A 
HETATM   15  C   UNK N   1      24.454  12.258  10.682  0.00  0.00     0.001 A 
HETATM   16  C   UNK N   1      23.240  11.943  11.337  0.00  0.00     0.003 A 
HETATM   17  C   UNK N   1      22.020  12.089  10.666  0.00  0.00     0.038 A 
HETATM   18  O   UNK N   1      21.067  12.727   8.578  0.00  0.00    -0.309 OA
ENDBRANCH   8  10
ENDBRANCH   4   5
ENDBRANCH   2   4
BRANCH   2  19
HETATM   19  C   UNK N   1      20.656  16.271   2.562  0.00  0.00     0.190 C 
BRANCH  19  20
HETATM   20  C   UNK N   1      22.051  15.675   2.343  0.00  0.00     0.074 C 
BRANCH  20  21
HETATM   21  C   UNK N   1      22.286  14.424   1.538  0.00  0.00    -0.056 A 
HETATM   22  C   UNK N   1      23.532  14.279   0.927  0.00  0.00     0.007 A 
HETATM   23  C   UNK N   1      23.811  13.152   0.151  0.00  0.00     0.001 A 
HETATM   24  C   UNK N   1      22.843  12.158  -0.016  0.00  0.00     0.000 A 
HETATM   25  C   UNK N   1      21.597  12.293   0.594  0.00  0.00     0.001 A 
HETATM   26  C   UNK N   1      21.323  13.421   1.364  0.00  0.00     0.007 A 
ENDBRANCH  20  21
ENDBRANCH  19  20
BRANCH  19  27
HETATM   27  C   UNK N   1      20.030  17.076   1.424  0.00  0.00     0.164 C 
HETATM   28  O   UNK N   1      20.411  16.916   0.274  0.00  0.00    -0.648 OA
BRANCH  27  29
HETATM   29  O   UNK N   1      19.201  18.101   1.708  0.00  0.00    -0.775 OA
HETATM   30  H   UNK N   1      18.808  18.354   2.520  0.00  0.00     0.167 HD
ENDBRANCH  27  29
ENDBRANCH  19  27
ENDBRANCH   2  19
BRANCH   1  31
HETATM   31  C   UNK N   1      22.389  18.580   4.086  0.00  0.00     0.054 A 
HETATM   32  C   UNK N   1      22.415  19.742   3.316  0.00  0.00     0.020 A 
HETATM   33  C   UNK N   1      23.625  20.352   2.984  0.00  0.00     0.025 A 
HETATM   34  C   UNK N   1      24.829  19.810   3.438  0.00  0.00     0.035 A 
HETATM   35  C   UNK N   1      24.822  18.670   4.234  0.00  0.00     0.048 A 
HETATM   36 Cl   UNK N   1      26.347  20.563   3.010  0.00  0.00    -0.084 Cl
HETATM   37  C   UNK N   1      23.619  18.055   4.577  0.00  0.00     0.051 A 
HETATM   38 Cl   UNK N   1      23.705  16.604   5.575  0.00  0.00    -0.083 Cl
ENDBRANCH   1  31
TORSDOF 9
ENDMDL
MODEL 2
REMARK VINA RESULT:      -8.4     14.502     16.121
REMARK  9 active torsions:
REMARK  status: ('A' for Active; 'I' for Inactive)
REMARK    1  A    between atoms: C_18  and  C_14 
REMARK    2  A    between atoms: C_24  and  C_14 
REMARK    3  A    between atoms: C_21  and  C_17 
REMARK    4  A    between atoms: N_32  and  C_17 
REMARK    5  A    between atoms: C_28  and  C_22 
REMARK    6  A    between atoms: C_29  and  C_24 
REMARK    7  A    between atoms: C_24  and  N_32 
REMARK    8  A    between atoms: C_27  and  C_26 
REMARK       I    between atoms: N_32  and  C_28 
REMARK    9  A    between atoms: O_35  and  C_29 
ROOT
HETATM    1  C   UNK N   1      28.561  25.369  -8.080  0.00  0.00     0.256 C 
HETATM    2  N   UNK N   1      27.444  24.546  -8.244  0.00  0.00    -0.328 N 
HETATM    3  O   UNK N   1      29.603  25.051  -8.629  0.00  0.00    -0.267 OA
ENDROOT
BRANCH   2   4
HETATM    4  C   UNK N   1      27.609  23.394  -9.080  0.00  0.00     0.173 C 
BRANCH   4   5
HETATM    5  C   UNK N   1      27.905  22.163  -8.344  0.00  0.00     0.001 A 
HETATM    6  C   UNK N   1      27.981  20.828  -8.787  0.00  0.00     0.018 A 
HETATM    7  C   UNK N   1      28.850  20.041  -7.973  0.00  0.00     0.023 A 
HETATM    8  C   UNK N   1      29.404  20.812  -6.947  0.00  0.00     0.039 A 
HETATM    9  S   UNK N   1      28.799  22.312  -7.036  0.00  0.00    -0.090 SA
BRANCH   8  10
HETATM   10  C   UNK N   1      30.524  20.611  -6.076  0.00  0.00     0.094 A 
HETATM   11  C   UNK N   1      31.737  19.968  -6.301  0.00  0.00     0.053 A 
HETATM   12  C   UNK N   1      32.441  20.227  -5.136  0.00  0.00     0.000 A 
HETATM   13  C   UNK N   1      33.711  19.845  -4.726  0.00  0.00     0.014 A 
HETATM   14  C   UNK N   1      31.646  20.992  -4.331  0.00  0.00     0.086 A 
HETATM   15  C   UNK N   1      34.141  20.273  -3.452  0.00  0.00     0.001 A 
HETATM   16  C   UNK N   1      33.305  21.070  -2.634  0.00  0.00     0.003 A 
HETATM   17  C   UNK N   1      32.032  21.441  -3.081  0.00  0.00     0.038 A 
HETATM   18  O   UNK N   1      30.520  21.211  -4.907  0.00  0.00    -0.309 OA
ENDBRANCH   8  10
ENDBRANCH   4   5
ENDBRANCH   2   4
BRANCH   2  19
HETATM   19  C   UNK N   1      26.070  24.648  -7.756  0.00  0.00     0.190 C 
BRANCH  19  20
HETATM   20  C   UNK N   1      25.820  24.441  -6.258  0.00  0.00     0.074 C 
BRANCH  20  21
HETATM   21  C   UNK N   1      25.817  25.576  -5.268  0.00  0.00    -0.056 A 
HETATM   22  C   UNK N   1      25.219  26.773  -5.666  0.00  0.00     0.007 A 
HETATM   23  C   UNK N   1      25.197  27.872  -4.805  0.00  0.00     0.001 A 
HETATM   24  C   UNK N   1      25.773  27.779  -3.535  0.00  0.00     0.000 A 
HETATM   25  C   UNK N   1      26.368  26.587  -3.127  0.00  0.00     0.001 A 
HETATM   26  C   UNK N   1      26.390  25.495  -3.992  0.00  0.00     0.007 A 
ENDBRANCH  20  21
ENDBRANCH  19  20
BRANCH  19  27
HETATM   27  C   UNK N   1      25.153  23.932  -8.745  0.00  0.00     0.164 C 
HETATM   28  O   UNK N   1      24.898  24.439  -9.828  0.00  0.00    -0.648 OA
BRANCH  27  29
HETATM   29  O   UNK N   1      24.467  22.840  -8.351  0.00  0.00    -0.775 OA
HETATM   30  H   UNK N   1      23.572  22.749  -8.089  0.00  0.00     0.167 HD
ENDBRANCH  27  29
ENDBRANCH  19  27
ENDBRANCH   2  19
BRANCH   1  31
HETATM   31  C   UNK N   1      28.618  26.639  -7.306  0.00  0.00     0.054 A 
HETATM   32  C   UNK N   1      28.049  27.814  -7.796  0.00  0.00     0.020 A 
HETATM   33  C   UNK N   1      28.052  28.981  -7.031  0.00  0.00     0.025 A 
HETATM   34  C   UNK N   1      28.611  28.978  -5.753  0.00  0.00     0.035 A 
HETATM   35  C   UNK N   1      29.154  27.807  -5.233  0.00  0.00     0.048 A 
HETATM   36 Cl   UNK N   1      28.630  30.443  -4.799  0.00  0.00    -0.084 Cl
HETATM   37  C   UNK N   1      29.152  26.633  -5.986  0.00  0.00     0.051 A 
HETATM   38 Cl   UNK N   1      29.877  25.201  -5.256  0.00  0.00    -0.083 Cl
ENDBRANCH   1  31
TORSDOF 9
ENDMDL
MODEL 3
REMARK VINA RESULT:      -8.1      9.380     12.930
REMARK  9 active torsions:
REMARK  status: ('A' for Active; 'I' for Inactive)
REMARK    1  A    between atoms: C_18  and  C_14 
REMARK    2  A    between atoms: C_24  and  C_14 
REMARK    3  A    between atoms: C_21  and  C_17 
REMARK    4  A    between atoms: N_32  and  C_17 
REMARK    5  A    between atoms: C_28  and  C_22 
REMARK    6  A    between atoms: C_29  and  C_24 
REMARK    7  A    between atoms: C_24  and  N_32 
REMARK    8  A    between atoms: C_27  and  C_26 
REMARK       I    between atoms: N_32  and  C_28 
REMARK    9  A    between atoms: O_35  and  C_29 
ROOT
HETATM    1  C   UNK N   1      34.897  15.155   7.356  0.00  0.00     0.256 C 
HETATM    2  N   UNK N   1      34.176  16.349   7.275  0.00  0.00    -0.328 N 
HETATM    3  O   UNK N   1      35.198  14.586   6.320  0.00  0.00    -0.267 OA
ENDROOT
BRANCH   2   4
HETATM    4  C   UNK N   1      33.871  16.830   5.959  0.00  0.00     0.173 C 
BRANCH   4   5
HETATM    5  C   UNK N   1      32.599  16.336   5.428  0.00  0.00     0.001 A 
HETATM    6  C   UNK N   1      31.782  15.269   5.853  0.00  0.00     0.018 A 
HETATM    7  C   UNK N   1      30.412  15.472   5.510  0.00  0.00     0.023 A 
HETATM    8  C   UNK N   1      30.241  16.689   4.844  0.00  0.00     0.039 A 
HETATM    9  S   UNK N   1      31.690  17.391   4.659  0.00  0.00    -0.090 SA
BRANCH   8  10
HETATM   10  C   UNK N   1      29.088  17.491   4.564  0.00  0.00     0.094 A 
HETATM   11  C   UNK N   1      27.978  17.228   3.768  0.00  0.00     0.053 A 
HETATM   12  C   UNK N   1      27.160  18.320   4.012  0.00  0.00     0.000 A 
HETATM   13  C   UNK N   1      25.915  18.666   3.507  0.00  0.00     0.014 A 
HETATM   14  C   UNK N   1      27.797  19.123   4.915  0.00  0.00     0.086 A 
HETATM   15  C   UNK N   1      25.340  19.874   3.957  0.00  0.00     0.001 A 
HETATM   16  C   UNK N   1      26.013  20.689   4.897  0.00  0.00     0.003 A 
HETATM   17  C   UNK N   1      27.266  20.308   5.390  0.00  0.00     0.038 A 
HETATM   18  O   UNK N   1      28.932  18.613   5.231  0.00  0.00    -0.309 OA
ENDBRANCH   8  10
ENDBRANCH   4   5
ENDBRANCH   2   4
BRANCH   2  19
HETATM   19  C   UNK N   1      33.691  17.273   8.297  0.00  0.00     0.190 C 
BRANCH  19  20
HETATM   20  C   UNK N   1      32.466  18.134   7.969  0.00  0.00     0.074 C 
BRANCH  20  21
HETATM   21  C   UNK N   1      31.115  17.899   8.594  0.00  0.00    -0.056 A 
HETATM   22  C   UNK N   1      30.913  16.681   9.245  0.00  0.00     0.007 A 
HETATM   23  C   UNK N   1      29.679  16.391   9.831  0.00  0.00     0.001 A 
HETATM   24  C   UNK N   1      28.638  17.320   9.770  0.00  0.00     0.000 A 
HETATM   25  C   UNK N   1      28.832  18.541   9.126  0.00  0.00     0.001 A 
HETATM   26  C   UNK N   1      30.064  18.824   8.541  0.00  0.00     0.007 A 
ENDBRANCH  20  21
ENDBRANCH  19  20
BRANCH  19  27
HETATM   27  C   UNK N   1      34.897  17.953   8.944  0.00  0.00     0.164 C 
HETATM   28  O   UNK N   1      35.354  17.529   9.994  0.00  0.00    -0.648 OA
BRANCH  27  29
HETATM   29  O   UNK N   1      35.333  19.136   8.464  0.00  0.00    -0.775 OA
HETATM   30  H   UNK N   1      34.948  19.988   8.513  0.00  0.00     0.167 HD
ENDBRANCH  27  29
ENDBRANCH  19  27
ENDBRANCH   2  19
BRANCH   1  31
HETATM   31  C   UNK N   1      35.372  14.492   8.600  0.00  0.00     0.054 A 
HETATM   32  C   UNK N   1      36.696  14.605   9.024  0.00  0.00     0.020 A 
HETATM   33  C   UNK N   1      37.112  14.033  10.227  0.00  0.00     0.025 A 
HETATM   34  C   UNK N   1      36.196  13.353  11.031  0.00  0.00     0.035 A 
HETATM   35  C   UNK N   1      34.864  13.258  10.642  0.00  0.00     0.048 A 
HETATM   36 Cl   UNK N   1      36.719  12.621  12.530  0.00  0.00    -0.084 Cl
HETATM   37  C   UNK N   1      34.435  13.830   9.445  0.00  0.00     0.051 A 
HETATM   38 Cl   UNK N   1      32.734  13.645   9.021  0.00  0.00    -0.083 Cl
ENDBRANCH   1  31
TORSDOF 9
ENDMDL
MODEL 4
REMARK VINA RESULT:      -8.0     11.402     14.028
REMARK  9 active torsions:
REMARK  status: ('A' for Active; 'I' for Inactive)
REMARK    1  A    between atoms: C_18  and  C_14 
REMARK    2  A    between atoms: C_24  and  C_14 
REMARK    3  A    between atoms: C_21  and  C_17 
REMARK    4  A    between atoms: N_32  and  C_17 
REMARK    5  A    between atoms: C_28  and  C_22 
REMARK    6  A    between atoms: C_29  and  C_24 
REMARK    7  A    between atoms: C_24  and  N_32 
REMARK    8  A    between atoms: C_27  and  C_26 
REMARK       I    between atoms: N_32  and  C_28 
REMARK    9  A    between atoms: O_35  and  C_29 
ROOT
HETATM    1  C   UNK N   1      33.070  13.806   7.915  0.00  0.00     0.256 C 
HETATM    2  N   UNK N   1      33.781  14.893   8.430  0.00  0.00    -0.328 N 
HETATM    3  O   UNK N   1      32.312  13.204   8.658  0.00  0.00    -0.267 OA
ENDROOT
BRANCH   2   4
HETATM    4  C   UNK N   1      33.537  15.233   9.800  0.00  0.00     0.173 C 
BRANCH   4   5
HETATM    5  C   UNK N   1      34.691  15.024  10.678  0.00  0.00     0.001 A 
HETATM    6  C   UNK N   1      35.540  15.955  11.309  0.00  0.00     0.018 A 
HETATM    7  C   UNK N   1      36.118  15.429  12.504  0.00  0.00     0.023 A 
HETATM    8  C   UNK N   1      35.680  14.122  12.735  0.00  0.00     0.039 A 
HETATM    9  S   UNK N   1      34.714  13.671  11.515  0.00  0.00    -0.090 SA
BRANCH   8  10
HETATM   10  C   UNK N   1      35.703  13.279  13.893  0.00  0.00     0.094 A 
HETATM   11  C   UNK N   1      36.326  12.053  14.104  0.00  0.00     0.053 A 
HETATM   12  C   UNK N   1      36.092  11.818  15.450  0.00  0.00     0.000 A 
HETATM   13  C   UNK N   1      36.438  10.753  16.270  0.00  0.00     0.014 A 
HETATM   14  C   UNK N   1      35.390  12.882  15.942  0.00  0.00     0.086 A 
HETATM   15  C   UNK N   1      36.034  10.812  17.621  0.00  0.00     0.001 A 
HETATM   16  C   UNK N   1      35.312  11.925  18.113  0.00  0.00     0.003 A 
HETATM   17  C   UNK N   1      34.984  12.985  17.260  0.00  0.00     0.038 A 
HETATM   18  O   UNK N   1      35.175  13.735  15.007  0.00  0.00    -0.309 OA
ENDBRANCH   8  10
ENDBRANCH   4   5
ENDBRANCH   2   4
BRANCH   2  19
HETATM   19  C   UNK N   1      34.728  15.823   7.818  0.00  0.00     0.190 C 
BRANCH  19  20
HETATM   20  C   UNK N   1      34.185  17.146   7.267  0.00  0.00     0.074 C 
BRANCH  20  21
HETATM   21  C   UNK N   1      32.952  17.225   6.405  0.00  0.00    -0.056 A 
HETATM   22  C   UNK N   1      33.138  17.459   5.041  0.00  0.00     0.007 A 
HETATM   23  C   UNK N   1      32.037  17.562   4.187  0.00  0.00     0.001 A 
HETATM   24  C   UNK N   1      30.742  17.428   4.693  0.00  0.00     0.000 A 
HETATM   25  C   UNK N   1      30.548  17.189   6.052  0.00  0.00     0.001 A 
HETATM   26  C   UNK N   1      31.649  17.091   6.900  0.00  0.00     0.007 A 
ENDBRANCH  20  21
ENDBRANCH  19  20
BRANCH  19  27
HETATM   27  C   UNK N   1      35.696  15.023   6.948  0.00  0.00     0.164 C 
HETATM   28  O   UNK N   1      36.492  14.251   7.461  0.00  0.00    -0.648 OA
BRANCH  27  29
HETATM   29  O   UNK N   1      35.809  15.312   5.635  0.00  0.00    -0.775 OA
HETATM   30  H   UNK N   1      36.139  16.080   5.211  0.00  0.00     0.167 HD
ENDBRANCH  27  29
ENDBRANCH  19  27
ENDBRANCH   2  19
BRANCH   1  31
HETATM   31  C   UNK N   1      33.116  13.300   6.517  0.00  0.00     0.054 A 
HETATM   32  C   UNK N   1      32.454  13.961   5.483  0.00  0.00     0.020 A 
HETATM   33  C   UNK N   1      32.560  13.514   4.165  0.00  0.00     0.025 A 
HETATM   34  C   UNK N   1      33.351  12.404   3.866  0.00  0.00     0.035 A 
HETATM   35  C   UNK N   1      34.046  11.750   4.878  0.00  0.00     0.048 A 
HETATM   36 Cl   UNK N   1      33.472  11.831   2.219  0.00  0.00    -0.084 Cl
HETATM   37  C   UNK N   1      33.952  12.192   6.198  0.00  0.00     0.051 A 
HETATM   38 Cl   UNK N   1      34.852  11.294   7.420  0.00  0.00    -0.083 Cl
ENDBRANCH   1  31
TORSDOF 9
ENDMDL
MODEL 5
REMARK VINA RESULT:      -8.0     12.004     14.809
REMARK  9 active torsions:
REMARK  status: ('A' for Active; 'I' for Inactive)
REMARK    1  A    between atoms: C_18  and  C_14 
REMARK    2  A    between atoms: C_24  and  C_14 
REMARK    3  A    between atoms: C_21  and  C_17 
REMARK    4  A    between atoms: N_32  and  C_17 
REMARK    5  A    between atoms: C_28  and  C_22 
REMARK    6  A    between atoms: C_29  and  C_24 
REMARK    7  A    between atoms: C_24  and  N_32 
REMARK    8  A    between atoms: C_27  and  C_26 
REMARK       I    between atoms: N_32  and  C_28 
REMARK    9  A    between atoms: O_35  and  C_29 
ROOT
HETATM    1  C   UNK N   1      34.548  16.862   8.592  0.00  0.00     0.256 C 
HETATM    2  N   UNK N   1      34.781  15.688   9.311  0.00  0.00    -0.328 N 
HETATM    3  O   UNK N   1      34.986  17.911   9.034  0.00  0.00    -0.267 OA
ENDROOT
BRANCH   2   4
HETATM    4  C   UNK N   1      35.553  15.810  10.513  0.00  0.00     0.173 C 
BRANCH   4   5
HETATM    5  C   UNK N   1      35.911  14.526  11.121  0.00  0.00     0.001 A 
HETATM    6  C   UNK N   1      37.137  13.832  11.137  0.00  0.00     0.018 A 
HETATM    7  C   UNK N   1      37.259  12.985  12.280  0.00  0.00     0.023 A 
HETATM    8  C   UNK N   1      36.124  13.076  13.090  0.00  0.00     0.039 A 
HETATM    9  S   UNK N   1      35.059  14.076  12.388  0.00  0.00    -0.090 SA
BRANCH   8  10
HETATM   10  C   UNK N   1      35.864  12.697  14.446  0.00  0.00     0.094 A 
HETATM   11  C   UNK N   1      35.953  11.455  15.069  0.00  0.00     0.053 A 
HETATM   12  C   UNK N   1      35.712  11.761  16.399  0.00  0.00     0.000 A 
HETATM   13  C   UNK N   1      35.642  10.958  17.528  0.00  0.00     0.014 A 
HETATM   14  C   UNK N   1      35.520  13.111  16.487  0.00  0.00     0.086 A 
HETATM   15  C   UNK N   1      35.362  11.587  18.760  0.00  0.00     0.001 A 
HETATM   16  C   UNK N   1      35.172  12.987  18.832  0.00  0.00     0.003 A 
HETATM   17  C   UNK N   1      35.255  13.768  17.674  0.00  0.00     0.038 A 
HETATM   18  O   UNK N   1      35.618  13.644  15.323  0.00  0.00    -0.309 OA
ENDBRANCH   8  10
ENDBRANCH   4   5
ENDBRANCH   2   4
BRANCH   2  19
HETATM   19  C   UNK N   1      34.426  14.293   9.054  0.00  0.00     0.190 C 
BRANCH  19  20
HETATM   20  C   UNK N   1      35.052  13.602   7.838  0.00  0.00     0.074 C 
BRANCH  20  21
HETATM   21  C   UNK N   1      36.374  12.882   7.902  0.00  0.00    -0.056 A 
HETATM   22  C   UNK N   1      36.371  11.578   8.400  0.00  0.00     0.007 A 
HETATM   23  C   UNK N   1      37.563  10.859   8.504  0.00  0.00     0.001 A 
HETATM   24  C   UNK N   1      38.770  11.440   8.105  0.00  0.00     0.000 A 
HETATM   25  C   UNK N   1      38.782  12.740   7.601  0.00  0.00     0.001 A 
HETATM   26  C   UNK N   1      37.590  13.453   7.503  0.00  0.00     0.007 A 
ENDBRANCH  20  21
ENDBRANCH  19  20
BRANCH  19  27
HETATM   27  C   UNK N   1      32.925  14.129   9.283  0.00  0.00     0.164 C 
HETATM   28  O   UNK N   1      32.251  13.470   8.505  0.00  0.00    -0.648 OA
BRANCH  27  29
HETATM   29  O   UNK N   1      32.308  14.868  10.227  0.00  0.00    -0.775 OA
HETATM   30  H   UNK N   1      32.655  15.503  10.822  0.00  0.00     0.167 HD
ENDBRANCH  27  29
ENDBRANCH  19  27
ENDBRANCH   2  19
BRANCH   1  31
HETATM   31  C   UNK N   1      33.823  16.978   7.297  0.00  0.00     0.054 A 
HETATM   32  C   UNK N   1      34.418  16.594   6.095  0.00  0.00     0.020 A 
HETATM   33  C   UNK N   1      33.704  16.646   4.898  0.00  0.00     0.025 A 
HETATM   34  C   UNK N   1      32.373  17.066   4.894  0.00  0.00     0.035 A 
HETATM   35  C   UNK N   1      31.752  17.421   6.087  0.00  0.00     0.048 A 
HETATM   36 Cl   UNK N   1      31.482  17.147   3.393  0.00  0.00    -0.084 Cl
HETATM   37  C   UNK N   1      32.454  17.369   7.291  0.00  0.00     0.051 A 
HETATM   38 Cl   UNK N   1      31.594  17.853   8.753  0.00  0.00    -0.083 Cl
ENDBRANCH   1  31
TORSDOF 9
ENDMDL
MODEL 6
REMARK VINA RESULT:      -8.0     11.167     13.945
REMARK  9 active torsions:
REMARK  status: ('A' for Active; 'I' for Inactive)
REMARK    1  A    between atoms: C_18  and  C_14 
REMARK    2  A    between atoms: C_24  and  C_14 
REMARK    3  A    between atoms: C_21  and  C_17 
REMARK    4  A    between atoms: N_32  and  C_17 
REMARK    5  A    between atoms: C_28  and  C_22 
REMARK    6  A    between atoms: C_29  and  C_24 
REMARK    7  A    between atoms: C_24  and  N_32 
REMARK    8  A    between atoms: C_27  and  C_26 
REMARK       I    between atoms: N_32  and  C_28 
REMARK    9  A    between atoms: O_35  and  C_29 
ROOT
HETATM    1  C   UNK N   1      35.440  14.684   6.706  0.00  0.00     0.256 C 
HETATM    2  N   UNK N   1      34.973  13.809   7.689  0.00  0.00    -0.328 N 
HETATM    3  O   UNK N   1      36.636  14.917   6.656  0.00  0.00    -0.267 OA
ENDROOT
BRANCH   2   4
HETATM    4  C   UNK N   1      35.956  13.224   8.552  0.00  0.00     0.173 C 
BRANCH   4   5
HETATM    5  C   UNK N   1      36.057  13.873   9.862  0.00  0.00     0.001 A 
HETATM    6  C   UNK N   1      35.390  15.002  10.377  0.00  0.00     0.018 A 
HETATM    7  C   UNK N   1      35.284  14.959  11.800  0.00  0.00     0.023 A 
HETATM    8  C   UNK N   1      35.870  13.797  12.308  0.00  0.00     0.039 A 
HETATM    9  S   UNK N   1      36.507  12.953  11.080  0.00  0.00    -0.090 SA
BRANCH   8  10
HETATM   10  C   UNK N   1      35.776  13.134  13.574  0.00  0.00     0.094 A 
HETATM   11  C   UNK N   1      36.284  11.907  13.990  0.00  0.00     0.053 A 
HETATM   12  C   UNK N   1      35.979  11.891  15.342  0.00  0.00     0.000 A 
HETATM   13  C   UNK N   1      36.201  10.934  16.322  0.00  0.00     0.014 A 
HETATM   14  C   UNK N   1      35.351  13.067  15.640  0.00  0.00     0.086 A 
HETATM   15  C   UNK N   1      35.751  11.222  17.628  0.00  0.00     0.001 A 
HETATM   16  C   UNK N   1      35.108  12.448  17.919  0.00  0.00     0.003 A 
HETATM   17  C   UNK N   1      34.904  13.394  16.907  0.00  0.00     0.038 A 
HETATM   18  O   UNK N   1      35.246  13.788  14.583  0.00  0.00    -0.309 OA
ENDBRANCH   8  10
ENDBRANCH   4   5
ENDBRANCH   2   4
BRANCH   2  19
HETATM   19  C   UNK N   1      33.636  13.308   8.001  0.00  0.00     0.190 C 
BRANCH  19  20
HETATM   20  C   UNK N   1      32.671  14.240   8.742  0.00  0.00     0.074 C 
BRANCH  20  21
HETATM   21  C   UNK N   1      31.749  15.193   8.027  0.00  0.00    -0.056 A 
HETATM   22  C   UNK N   1      31.218  14.775   6.806  0.00  0.00     0.007 A 
HETATM   23  C   UNK N   1      30.371  15.616   6.081  0.00  0.00     0.001 A 
HETATM   24  C   UNK N   1      30.045  16.881   6.577  0.00  0.00     0.000 A 
HETATM   25  C   UNK N   1      30.567  17.304   7.798  0.00  0.00     0.001 A 
HETATM   26  C   UNK N   1      31.414  16.463   8.515  0.00  0.00     0.007 A 
ENDBRANCH  20  21
ENDBRANCH  19  20
BRANCH  19  27
HETATM   27  C   UNK N   1      33.764  11.866   8.491  0.00  0.00     0.164 C 
HETATM   28  O   UNK N   1      34.054  10.973   7.709  0.00  0.00    -0.648 OA
BRANCH  27  29
HETATM   29  O   UNK N   1      33.364  11.547   9.739  0.00  0.00    -0.775 OA
HETATM   30  H   UNK N   1      33.025  12.089  10.423  0.00  0.00     0.167 HD
ENDBRANCH  27  29
ENDBRANCH  19  27
ENDBRANCH   2  19
BRANCH   1  31
HETATM   31  C   UNK N   1      34.621  15.368   5.669  0.00  0.00     0.054 A 
HETATM   32  C   UNK N   1      34.238  14.714   4.498  0.00  0.00     0.020 A 
HETATM   33  C   UNK N   1      33.415  15.345   3.564  0.00  0.00     0.025 A 
HETATM   34  C   UNK N   1      32.949  16.638   3.804  0.00  0.00     0.035 A 
HETATM   35  C   UNK N   1      33.292  17.295   4.981  0.00  0.00     0.048 A 
HETATM   36 Cl   UNK N   1      31.931  17.436   2.628  0.00  0.00    -0.084 Cl
HETATM   37  C   UNK N   1      34.110  16.673   5.924  0.00  0.00     0.051 A 
HETATM   38 Cl   UNK N   1      34.509  17.585   7.379  0.00  0.00    -0.083 Cl
ENDBRANCH   1  31
TORSDOF 9
ENDMDL
MODEL 7
REMARK VINA RESULT:      -7.9      3.143      6.956
REMARK  9 active torsions:
REMARK  status: ('A' for Active; 'I' for Inactive)
REMARK    1  A    between atoms: C_18  and  C_14 
REMARK    2  A    between atoms: C_24  and  C_14 
REMARK    3  A    between atoms: C_21  and  C_17 
REMARK    4  A    between atoms: N_32  and  C_17 
REMARK    5  A    between atoms: C_28  and  C_22 
REMARK    6  A    between atoms: C_29  and  C_24 
REMARK    7  A    between atoms: C_24  and  N_32 
REMARK    8  A    between atoms: C_27  and  C_26 
REMARK       I    between atoms: N_32  and  C_28 
REMARK    9  A    between atoms: O_35  and  C_29 
ROOT
HETATM    1  C   UNK N   1      20.891  12.911   6.881  0.00  0.00     0.256 C 
HETATM    2  N   UNK N   1      20.681  14.111   6.198  0.00  0.00    -0.328 N 
HETATM    3  O   UNK N   1      20.411  11.888   6.421  0.00  0.00    -0.267 OA
ENDROOT
BRANCH   2   4
HETATM    4  C   UNK N   1      19.932  14.036   4.978  0.00  0.00     0.173 C 
BRANCH   4   5
HETATM    5  C   UNK N   1      20.739  14.241   3.773  0.00  0.00     0.001 A 
HETATM    6  C   UNK N   1      20.767  15.317   2.863  0.00  0.00     0.018 A 
HETATM    7  C   UNK N   1      22.034  15.440   2.218  0.00  0.00     0.023 A 
HETATM    8  C   UNK N   1      22.920  14.456   2.668  0.00  0.00     0.039 A 
HETATM    9  S   UNK N   1      22.146  13.500   3.723  0.00  0.00    -0.090 SA
BRANCH   8  10
HETATM   10  C   UNK N   1      24.343  14.318   2.585  0.00  0.00     0.094 A 
HETATM   11  C   UNK N   1      25.261  14.932   1.739  0.00  0.00     0.053 A 
HETATM   12  C   UNK N   1      26.478  14.493   2.238  0.00  0.00     0.000 A 
HETATM   13  C   UNK N   1      27.780  14.733   1.824  0.00  0.00     0.014 A 
HETATM   14  C   UNK N   1      26.222  13.694   3.316  0.00  0.00     0.086 A 
HETATM   15  C   UNK N   1      28.820  14.118   2.553  0.00  0.00     0.001 A 
HETATM   16  C   UNK N   1      28.535  13.298   3.670  0.00  0.00     0.003 A 
HETATM   17  C   UNK N   1      27.210  13.081   4.064  0.00  0.00     0.038 A 
HETATM   18  O   UNK N   1      24.955  13.607   3.506  0.00  0.00    -0.309 OA
ENDBRANCH   8  10
ENDBRANCH   4   5
ENDBRANCH   2   4
BRANCH   2  19
HETATM   19  C   UNK N   1      21.127  15.478   6.457  0.00  0.00     0.190 C 
BRANCH  19  20
HETATM   20  C   UNK N   1      22.631  15.729   6.612  0.00  0.00     0.074 C 
BRANCH  20  21
HETATM   21  C   UNK N   1      23.409  16.617   5.676  0.00  0.00    -0.056 A 
HETATM   22  C   UNK N   1      22.710  17.642   5.036  0.00  0.00     0.007 A 
HETATM   23  C   UNK N   1      23.365  18.491   4.142  0.00  0.00     0.001 A 
HETATM   24  C   UNK N   1      24.728  18.322   3.884  0.00  0.00     0.000 A 
HETATM   25  C   UNK N   1      25.435  17.304   4.521  0.00  0.00     0.001 A 
HETATM   26  C   UNK N   1      24.775  16.458   5.410  0.00  0.00     0.007 A 
ENDBRANCH  20  21
ENDBRANCH  19  20
BRANCH  19  27
HETATM   27  C   UNK N   1      20.183  16.107   7.480  0.00  0.00     0.164 C 
HETATM   28  O   UNK N   1      18.976  16.109   7.287  0.00  0.00    -0.648 OA
BRANCH  27  29
HETATM   29  O   UNK N   1      20.689  16.835   8.497  0.00  0.00    -0.775 OA
HETATM   30  H   UNK N   1      21.032  16.561   9.325  0.00  0.00     0.167 HD
ENDBRANCH  27  29
ENDBRANCH  19  27
ENDBRANCH   2  19
BRANCH   1  31
HETATM   31  C   UNK N   1      21.676  12.731   8.132  0.00  0.00     0.054 A 
HETATM   32  C   UNK N   1      21.119  12.993   9.383  0.00  0.00     0.020 A 
HETATM   33  C   UNK N   1      21.845  12.757  10.551  0.00  0.00     0.025 A 
HETATM   34  C   UNK N   1      23.137  12.235  10.478  0.00  0.00     0.035 A 
HETATM   35  C   UNK N   1      23.698  11.936   9.241  0.00  0.00     0.048 A 
HETATM   36 Cl   UNK N   1      24.055  11.954  11.939  0.00  0.00    -0.084 Cl
HETATM   37  C   UNK N   1      22.981  12.162   8.067  0.00  0.00     0.051 A 
HETATM   38 Cl   UNK N   1      23.775  11.771   6.542  0.00  0.00    -0.083 Cl
ENDBRANCH   1  31
TORSDOF 9
ENDMDL
MODEL 8
REMARK VINA RESULT:      -7.8     12.721     15.347
REMARK  9 active torsions:
REMARK  status: ('A' for Active; 'I' for Inactive)
REMARK    1  A    between atoms: C_18  and  C_14 
REMARK    2  A    between atoms: C_24  and  C_14 
REMARK    3  A    between atoms: C_21  and  C_17 
REMARK    4  A    between atoms: N_32  and  C_17 
REMARK    5  A    between atoms: C_28  and  C_22 
REMARK    6  A    between atoms: C_29  and  C_24 
REMARK    7  A    between atoms: C_24  and  N_32 
REMARK    8  A    between atoms: C_27  and  C_26 
REMARK       I    between atoms: N_32  and  C_28 
REMARK    9  A    between atoms: O_35  and  C_29 
ROOT
HETATM    1  C   UNK N   1      34.875  16.242   9.177  0.00  0.00     0.256 C 
HETATM    2  N   UNK N   1      35.697  15.113   9.188  0.00  0.00    -0.328 N 
HETATM    3  O   UNK N   1      35.013  17.070  10.062  0.00  0.00    -0.267 OA
ENDROOT
BRANCH   2   4
HETATM    4  C   UNK N   1      36.670  15.034  10.238  0.00  0.00     0.173 C 
BRANCH   4   5
HETATM    5  C   UNK N   1      36.556  13.828  11.063  0.00  0.00     0.001 A 
HETATM    6  C   UNK N   1      37.398  12.702  11.157  0.00  0.00     0.018 A 
HETATM    7  C   UNK N   1      37.306  12.069  12.433  0.00  0.00     0.023 A 
HETATM    8  C   UNK N   1      36.402  12.743  13.259  0.00  0.00     0.039 A 
HETATM    9  S   UNK N   1      35.749  13.970  12.426  0.00  0.00    -0.090 SA
BRANCH   8  10
HETATM   10  C   UNK N   1      36.172  12.720  14.672  0.00  0.00     0.094 A 
HETATM   11  C   UNK N   1      35.808  13.741  15.544  0.00  0.00     0.053 A 
HETATM   12  C   UNK N   1      35.611  13.069  16.740  0.00  0.00     0.000 A 
HETATM   13  C   UNK N   1      35.253  13.523  18.001  0.00  0.00     0.014 A 
HETATM   14  C   UNK N   1      35.842  11.741  16.513  0.00  0.00     0.086 A 
HETATM   15  C   UNK N   1      35.144  12.566  19.032  0.00  0.00     0.001 A 
HETATM   16  C   UNK N   1      35.381  11.195  18.777  0.00  0.00     0.003 A 
HETATM   17  C   UNK N   1      35.736  10.770  17.491  0.00  0.00     0.038 A 
HETATM   18  O   UNK N   1      36.168  11.557  15.285  0.00  0.00    -0.309 OA
ENDBRANCH   8  10
ENDBRANCH   4   5
ENDBRANCH   2   4
BRANCH   2  19
HETATM   19  C   UNK N   1      35.807  13.970   8.284  0.00  0.00     0.190 C 
BRANCH  19  20
HETATM   20  C   UNK N   1      36.464  14.193   6.917  0.00  0.00     0.074 C 
BRANCH  20  21
HETATM   21  C   UNK N   1      37.943  14.025   6.687  0.00  0.00    -0.056 A 
HETATM   22  C   UNK N   1      38.472  14.555   5.509  0.00  0.00     0.007 A 
HETATM   23  C   UNK N   1      39.833  14.419   5.224  0.00  0.00     0.001 A 
HETATM   24  C   UNK N   1      40.674  13.754   6.119  0.00  0.00     0.000 A 
HETATM   25  C   UNK N   1      40.155  13.226   7.299  0.00  0.00     0.001 A 
HETATM   26  C   UNK N   1      38.797  13.361   7.577  0.00  0.00     0.007 A 
ENDBRANCH  20  21
ENDBRANCH  19  20
BRANCH  19  27
HETATM   27  C   UNK N   1      34.496  13.188   8.335  0.00  0.00     0.164 C 
HETATM   28  O   UNK N   1      34.239  12.476   9.294  0.00  0.00    -0.648 OA
BRANCH  27  29
HETATM   29  O   UNK N   1      33.713  13.125   7.239  0.00  0.00    -0.775 OA
HETATM   30  H   UNK N   1      33.102  12.468   6.967  0.00  0.00     0.167 HD
ENDBRANCH  27  29
ENDBRANCH  19  27
ENDBRANCH   2  19
BRANCH   1  31
HETATM   31  C   UNK N   1      33.835  16.569   8.164  0.00  0.00     0.054 A 
HETATM   32  C   UNK N   1      34.160  17.216   6.972  0.00  0.00     0.020 A 
HETATM   33  C   UNK N   1      33.186  17.457   6.003  0.00  0.00     0.025 A 
HETATM   34  C   UNK N   1      31.873  17.033   6.210  0.00  0.00     0.035 A 
HETATM   35  C   UNK N   1      31.536  16.356   7.378  0.00  0.00     0.048 A 
HETATM   36 Cl   UNK N   1      30.647  17.348   5.004  0.00  0.00    -0.084 Cl
HETATM   37  C   UNK N   1      32.502  16.105   8.352  0.00  0.00     0.051 A 
HETATM   38 Cl   UNK N   1      31.983  15.257   9.808  0.00  0.00    -0.083 Cl
ENDBRANCH   1  31
TORSDOF 9
ENDMDL
MODEL 9
REMARK VINA RESULT:      -7.6      7.766     10.865
REMARK  9 active torsions:
REMARK  status: ('A' for Active; 'I' for Inactive)
REMARK    1  A    between atoms: C_18  and  C_14 
REMARK    2  A    between atoms: C_24  and  C_14 
REMARK    3  A    between atoms: C_21  and  C_17 
REMARK    4  A    between atoms: N_32  and  C_17 
REMARK    5  A    between atoms: C_28  and  C_22 
REMARK    6  A    between atoms: C_29  and  C_24 
REMARK    7  A    between atoms: C_24  and  N_32 
REMARK    8  A    between atoms: C_27  and  C_26 
REMARK       I    between atoms: N_32  and  C_28 
REMARK    9  A    between atoms: O_35  and  C_29 
ROOT
HETATM    1  C   UNK N   1      32.100  13.942   5.736  0.00  0.00     0.256 C 
HETATM    2  N   UNK N   1      31.610  14.817   4.763  0.00  0.00    -0.328 N 
HETATM    3  O   UNK N   1      31.774  12.768   5.679  0.00  0.00    -0.267 OA
ENDROOT
BRANCH   2   4
HETATM    4  C   UNK N   1      30.776  14.249   3.746  0.00  0.00     0.173 C 
BRANCH   4   5
HETATM    5  C   UNK N   1      29.342  14.380   4.014  0.00  0.00     0.001 A 
HETATM    6  C   UNK N   1      28.590  14.042   5.158  0.00  0.00     0.018 A 
HETATM    7  C   UNK N   1      27.413  14.840   5.280  0.00  0.00     0.023 A 
HETATM    8  C   UNK N   1      27.320  15.756   4.229  0.00  0.00     0.039 A 
HETATM    9  S   UNK N   1      28.570  15.525   3.223  0.00  0.00    -0.090 SA
BRANCH   8  10
HETATM   10  C   UNK N   1      26.543  16.944   4.039  0.00  0.00     0.094 A 
HETATM   11  C   UNK N   1      26.923  18.211   3.608  0.00  0.00     0.053 A 
HETATM   12  C   UNK N   1      25.711  18.875   3.503  0.00  0.00     0.000 A 
HETATM   13  C   UNK N   1      25.407  20.180   3.140  0.00  0.00     0.014 A 
HETATM   14  C   UNK N   1      24.724  17.995   3.845  0.00  0.00     0.086 A 
HETATM   15  C   UNK N   1      24.048  20.557   3.142  0.00  0.00     0.001 A 
HETATM   16  C   UNK N   1      23.038  19.630   3.493  0.00  0.00     0.003 A 
HETATM   17  C   UNK N   1      23.380  18.320   3.850  0.00  0.00     0.038 A 
HETATM   18  O   UNK N   1      25.237  16.859   4.154  0.00  0.00    -0.309 OA
ENDBRANCH   8  10
ENDBRANCH   4   5
ENDBRANCH   2   4
BRANCH   2  19
HETATM   19  C   UNK N   1      31.822  16.245   4.533  0.00  0.00     0.190 C 
BRANCH  19  20
HETATM   20  C   UNK N   1      30.726  17.218   4.982  0.00  0.00     0.074 C 
BRANCH  20  21
HETATM   21  C   UNK N   1      30.425  17.491   6.433  0.00  0.00    -0.056 A 
HETATM   22  C   UNK N   1      31.511  17.606   7.302  0.00  0.00     0.007 A 
HETATM   23  C   UNK N   1      31.303  17.841   8.663  0.00  0.00     0.001 A 
HETATM   24  C   UNK N   1      30.005  17.967   9.163  0.00  0.00     0.000 A 
HETATM   25  C   UNK N   1      28.915  17.859   8.301  0.00  0.00     0.001 A 
HETATM   26  C   UNK N   1      29.128  17.621   6.945  0.00  0.00     0.007 A 
ENDBRANCH  20  21
ENDBRANCH  19  20
BRANCH  19  27
HETATM   27  C   UNK N   1      32.417  16.424   3.137  0.00  0.00     0.164 C 
HETATM   28  O   UNK N   1      33.534  15.997   2.884  0.00  0.00    -0.648 OA
BRANCH  27  29
HETATM   29  O   UNK N   1      31.798  17.224   2.245  0.00  0.00    -0.775 OA
HETATM   30  H   UNK N   1      31.718  18.157   2.221  0.00  0.00     0.167 HD
ENDBRANCH  27  29
ENDBRANCH  19  27
ENDBRANCH   2  19
BRANCH   1  31
HETATM   31  C   UNK N   1      33.021  14.287   6.853  0.00  0.00     0.054 A 
HETATM   32  C   UNK N   1      32.558  14.408   8.163  0.00  0.00     0.020 A 
HETATM   33  C   UNK N   1      33.443  14.667   9.211  0.00  0.00     0.025 A 
HETATM   34  C   UNK N   1      34.810  14.788   8.958  0.00  0.00     0.035 A 
HETATM   35  C   UNK N   1      35.295  14.637   7.663  0.00  0.00     0.048 A 
HETATM   36 Cl   UNK N   1      35.918  15.128  10.267  0.00  0.00    -0.084 Cl
HETATM   37  C   UNK N   1      34.421  14.373   6.609  0.00  0.00     0.051 A 
HETATM   38 Cl   UNK N   1      35.120  14.214   4.998  0.00  0.00    -0.083 Cl
ENDBRANCH   1  31
TORSDOF 9
ENDMDL
