MODEL 1
REMARK VINA RESULT:      -4.7      0.000      0.000
REMARK  12 active torsions:
REMARK  status: ('A' for Active; 'I' for Inactive)
REMARK    1  A    between atoms: C_2  and  N_1 
REMARK    2  A    between atoms: C_2  and  C_3 
REMARK    3  A    between atoms: C_2  and  C_13 
REMARK    4  A    between atoms: C_3  and  C_4 
REMARK    5  A    between atoms: C_4  and  S_5 
REMARK    6  A    between atoms: S_5  and  C_6 
REMARK    7  A    between atoms: C_6  and  C_7 
REMARK    8  A    between atoms: C_7  and  C_8 
REMARK    9  A    between atoms: C_8  and  C_9 
REMARK   10  A    between atoms: C_9  and  C_10 
REMARK   11  A    between atoms: C_10  and  O_11 
REMARK   12  A    between atoms: C_13  and  O_14 
ROOT
HETATM    1  C   UNK N   1      31.614  16.206   7.685  0.00  0.00     0.076 C 
ENDROOT
BRANCH   1   2
HETATM    2  C   UNK N   1      32.010  17.667   7.802  0.00  0.00     0.045 C 
BRANCH   2   3
HETATM    3  C   UNK N   1      33.228  17.783   8.702  0.00  0.00     0.174 C 
BRANCH   3   4
HETATM    4  N   UNK N   1      33.514  16.498   9.319  0.00  0.00    -0.418 N 
HETATM    5  H   UNK N   1      33.278  16.311  10.293  0.00  0.00     0.150 HD
HETATM    6  H   UNK N   1      33.960  15.766   8.765  0.00  0.00     0.150 HD
ENDBRANCH   3   4
BRANCH   3   7
HETATM    7  C   UNK N   1      34.416  18.298   7.938  0.00  0.00     0.163 C 
HETATM    8  O   UNK N   1      35.205  19.047   8.477  0.00  0.00    -0.648 OA
BRANCH   7   9
HETATM    9  O   UNK N   1      34.633  17.901   6.665  0.00  0.00    -0.775 OA
HETATM   10  H   UNK N   1      34.808  17.016   6.411  0.00  0.00     0.167 HD
ENDBRANCH   7   9
ENDBRANCH   3   7
ENDBRANCH   2   3
ENDBRANCH   1   2
BRANCH   1  11
HETATM   11  S   UNK N   1      31.338  15.798   5.939  0.00  0.00    -0.169 SA
BRANCH  11  12
HETATM   12  C   UNK N   1      29.541  15.943   6.107  0.00  0.00     0.074 C 
BRANCH  12  13
HETATM   13  C   UNK N   1      29.100  17.336   5.703  0.00  0.00     0.010 C 
BRANCH  13  14
HETATM   14  C   UNK N   1      28.000  17.785   6.638  0.00  0.00     0.011 C 
BRANCH  14  15
HETATM   15  C   UNK N   1      28.497  18.887   7.559  0.00  0.00     0.110 C 
BRANCH  15  16
HETATM   16  C   UNK N   1      28.455  18.478   9.003  0.00  0.00     0.139 C 
HETATM   17  O   UNK N   1      29.394  18.710   9.751  0.00  0.00    -0.650 OA
BRANCH  16  18
HETATM   18  O   UNK N   1      27.367  17.848   9.482  0.00  0.00    -0.776 OA
HETATM   19  H   UNK N   1      26.572  18.324   9.619  0.00  0.00     0.167 HD
ENDBRANCH  16  18
ENDBRANCH  15  16
ENDBRANCH  14  15
ENDBRANCH  13  14
ENDBRANCH  12  13
ENDBRANCH  11  12
ENDBRANCH   1  11
TORSDOF 12
ENDMDL
MODEL 2
REMARK VINA RESULT:      -4.7      8.068     10.553
REMARK  12 active torsions:
REMARK  status: ('A' for Active; 'I' for Inactive)
REMARK    1  A    between atoms: C_2  and  N_1 
REMARK    2  A    between atoms: C_2  and  C_3 
REMARK    3  A    between atoms: C_2  and  C_13 
REMARK    4  A    between atoms: C_3  and  C_4 
REMARK    5  A    between atoms: C_4  and  S_5 
REMARK    6  A    between atoms: S_5  and  C_6 
REMARK    7  A    between atoms: C_6  and  C_7 
REMARK    8  A    between atoms: C_7  and  C_8 
REMARK    9  A    between atoms: C_8  and  C_9 
REMARK   10  A    between atoms: C_9  and  C_10 
REMARK   11  A    between atoms: C_10  and  O_11 
REMARK   12  A    between atoms: C_13  and  O_14 
ROOT
HETATM    1  C   UNK N   1      22.130  18.025   3.487  0.00  0.00     0.076 C 
ENDROOT
BRANCH   1   2
HETATM    2  C   UNK N   1      21.217  19.235   3.406  0.00  0.00     0.045 C 
BRANCH   2   3
HETATM    3  C   UNK N   1      20.494  19.226   2.069  0.00  0.00     0.174 C 
BRANCH   3   4
HETATM    4  N   UNK N   1      19.058  19.155   2.283  0.00  0.00    -0.418 N 
HETATM    5  H   UNK N   1      18.398  19.367   1.535  0.00  0.00     0.150 HD
HETATM    6  H   UNK N   1      18.702  18.886   3.201  0.00  0.00     0.150 HD
ENDBRANCH   3   4
BRANCH   3   7
HETATM    7  C   UNK N   1      20.865  20.430   1.248  0.00  0.00     0.163 C 
HETATM    8  O   UNK N   1      21.462  21.354   1.762  0.00  0.00    -0.648 OA
BRANCH   7   9
HETATM    9  O   UNK N   1      20.572  20.474  -0.070  0.00  0.00    -0.775 OA
HETATM   10  H   UNK N   1      21.181  20.723  -0.737  0.00  0.00     0.167 HD
ENDBRANCH   7   9
ENDBRANCH   3   7
ENDBRANCH   2   3
ENDBRANCH   1   2
BRANCH   1  11
HETATM   11  S   UNK N   1      23.403  18.318   4.746  0.00  0.00    -0.169 SA
BRANCH  11  12
HETATM   12  C   UNK N   1      24.161  19.651   3.784  0.00  0.00     0.074 C 
BRANCH  12  13
HETATM   13  C   UNK N   1      25.533  19.220   3.307  0.00  0.00     0.010 C 
BRANCH  13  14
HETATM   14  C   UNK N   1      26.481  20.392   3.440  0.00  0.00     0.011 C 
BRANCH  14  15
HETATM   15  C   UNK N   1      27.586  20.075   4.433  0.00  0.00     0.110 C 
BRANCH  15  16
HETATM   16  C   UNK N   1      27.248  20.539   5.821  0.00  0.00     0.139 C 
HETATM   17  O   UNK N   1      27.290  21.725   6.116  0.00  0.00    -0.650 OA
BRANCH  16  18
HETATM   18  O   UNK N   1      26.892  19.637   6.753  0.00  0.00    -0.776 OA
HETATM   19  H   UNK N   1      26.182  19.048   6.588  0.00  0.00     0.167 HD
ENDBRANCH  16  18
ENDBRANCH  15  16
ENDBRANCH  14  15
ENDBRANCH  13  14
ENDBRANCH  12  13
ENDBRANCH  11  12
ENDBRANCH   1  11
TORSDOF 12
ENDMDL
MODEL 3
REMARK VINA RESULT:      -4.6      1.855      5.160
REMARK  12 active torsions:
REMARK  status: ('A' for Active; 'I' for Inactive)
REMARK    1  A    between atoms: C_2  and  N_1 
REMARK    2  A    between atoms: C_2  and  C_3 
REMARK    3  A    between atoms: C_2  and  C_13 
REMARK    4  A    between atoms: C_3  and  C_4 
REMARK    5  A    between atoms: C_4  and  S_5 
REMARK    6  A    between atoms: S_5  and  C_6 
REMARK    7  A    between atoms: C_6  and  C_7 
REMARK    8  A    between atoms: C_7  and  C_8 
REMARK    9  A    between atoms: C_8  and  C_9 
REMARK   10  A    between atoms: C_9  and  C_10 
REMARK   11  A    between atoms: C_10  and  O_11 
REMARK   12  A    between atoms: C_13  and  O_14 
ROOT
HETATM    1  C   UNK N   1      28.933  16.638   6.545  0.00  0.00     0.076 C 
ENDROOT
BRANCH   1   2
HETATM    2  C   UNK N   1      29.803  17.627   7.300  0.00  0.00     0.045 C 
BRANCH   2   3
HETATM    3  C   UNK N   1      29.586  17.444   8.793  0.00  0.00     0.174 C 
BRANCH   3   4
HETATM    4  N   UNK N   1      30.486  18.312   9.534  0.00  0.00    -0.418 N 
HETATM    5  H   UNK N   1      30.176  18.813  10.367  0.00  0.00     0.150 HD
HETATM    6  H   UNK N   1      31.449  18.423   9.216  0.00  0.00     0.150 HD
ENDBRANCH   3   4
BRANCH   3   7
HETATM    7  C   UNK N   1      28.152  17.699   9.164  0.00  0.00     0.163 C 
HETATM    8  O   UNK N   1      27.516  16.845   9.747  0.00  0.00    -0.648 OA
BRANCH   7   9
HETATM    9  O   UNK N   1      27.575  18.889   8.887  0.00  0.00    -0.775 OA
HETATM   10  H   UNK N   1      27.616  19.313   8.053  0.00  0.00     0.167 HD
ENDBRANCH   7   9
ENDBRANCH   3   7
ENDBRANCH   2   3
ENDBRANCH   1   2
BRANCH   1  11
HETATM   11  S   UNK N   1      29.835  16.038   5.089  0.00  0.00    -0.169 SA
BRANCH  11  12
HETATM   12  C   UNK N   1      31.155  17.258   5.305  0.00  0.00     0.074 C 
BRANCH  12  13
HETATM   13  C   UNK N   1      32.504  16.579   5.180  0.00  0.00     0.010 C 
BRANCH  13  14
HETATM   14  C   UNK N   1      33.567  17.516   5.709  0.00  0.00     0.011 C 
BRANCH  14  15
HETATM   15  C   UNK N   1      34.220  16.936   6.952  0.00  0.00     0.110 C 
BRANCH  15  16
HETATM   16  C   UNK N   1      34.286  17.933   8.073  0.00  0.00     0.139 C 
HETATM   17  O   UNK N   1      35.018  18.911   8.004  0.00  0.00    -0.650 OA
BRANCH  16  18
HETATM   18  O   UNK N   1      33.528  17.750   9.169  0.00  0.00    -0.776 OA
HETATM   19  H   UNK N   1      32.608  17.598   9.082  0.00  0.00     0.167 HD
ENDBRANCH  16  18
ENDBRANCH  15  16
ENDBRANCH  14  15
ENDBRANCH  13  14
ENDBRANCH  12  13
ENDBRANCH  11  12
ENDBRANCH   1  11
TORSDOF 12
ENDMDL
MODEL 4
REMARK VINA RESULT:      -4.5      9.080     11.507
REMARK  12 active torsions:
REMARK  status: ('A' for Active; 'I' for Inactive)
REMARK    1  A    between atoms: C_2  and  N_1 
REMARK    2  A    between atoms: C_2  and  C_3 
REMARK    3  A    between atoms: C_2  and  C_13 
REMARK    4  A    between atoms: C_3  and  C_4 
REMARK    5  A    between atoms: C_4  and  S_5 
REMARK    6  A    between atoms: S_5  and  C_6 
REMARK    7  A    between atoms: C_6  and  C_7 
REMARK    8  A    between atoms: C_7  and  C_8 
REMARK    9  A    between atoms: C_8  and  C_9 
REMARK   10  A    between atoms: C_9  and  C_10 
REMARK   11  A    between atoms: C_10  and  O_11 
REMARK   12  A    between atoms: C_13  and  O_14 
ROOT
HETATM    1  C   UNK N   1      20.001  17.933   3.852  0.00  0.00     0.076 C 
ENDROOT
BRANCH   1   2
HETATM    2  C   UNK N   1      19.439  18.697   2.667  0.00  0.00     0.045 C 
BRANCH   2   3
HETATM    3  C   UNK N   1      20.494  18.771   1.575  0.00  0.00     0.174 C 
BRANCH   3   4
HETATM    4  N   UNK N   1      20.097  17.945   0.447  0.00  0.00    -0.418 N 
HETATM    5  H   UNK N   1      20.377  16.967   0.380  0.00  0.00     0.150 HD
HETATM    6  H   UNK N   1      19.527  18.353  -0.295  0.00  0.00     0.150 HD
ENDBRANCH   3   4
BRANCH   3   7
HETATM    7  C   UNK N   1      20.735  20.194   1.153  0.00  0.00     0.163 C 
HETATM    8  O   UNK N   1      21.079  21.019   1.974  0.00  0.00    -0.648 OA
BRANCH   7   9
HETATM    9  O   UNK N   1      20.608  20.553  -0.143  0.00  0.00    -0.775 OA
HETATM   10  H   UNK N   1      21.176  20.261  -0.829  0.00  0.00     0.167 HD
ENDBRANCH   7   9
ENDBRANCH   3   7
ENDBRANCH   2   3
ENDBRANCH   1   2
BRANCH   1  11
HETATM   11  S   UNK N   1      21.691  17.393   3.469  0.00  0.00    -0.169 SA
BRANCH  11  12
HETATM   12  C   UNK N   1      22.218  17.556   5.193  0.00  0.00     0.074 C 
BRANCH  12  13
HETATM   13  C   UNK N   1      23.607  18.161   5.248  0.00  0.00     0.010 C 
BRANCH  13  14
HETATM   14  C   UNK N   1      24.135  18.285   3.836  0.00  0.00     0.011 C 
BRANCH  14  15
HETATM   15  C   UNK N   1      25.183  19.382   3.751  0.00  0.00     0.110 C 
BRANCH  15  16
HETATM   16  C   UNK N   1      24.733  20.527   2.888  0.00  0.00     0.139 C 
HETATM   17  O   UNK N   1      25.442  20.955   1.989  0.00  0.00    -0.650 OA
BRANCH  16  18
HETATM   18  O   UNK N   1      23.529  21.088   3.107  0.00  0.00    -0.776 OA
HETATM   19  H   UNK N   1      23.408  22.005   2.964  0.00  0.00     0.167 HD
ENDBRANCH  16  18
ENDBRANCH  15  16
ENDBRANCH  14  15
ENDBRANCH  13  14
ENDBRANCH  12  13
ENDBRANCH  11  12
ENDBRANCH   1  11
TORSDOF 12
ENDMDL
MODEL 5
REMARK VINA RESULT:      -4.5      5.500      7.708
REMARK  12 active torsions:
REMARK  status: ('A' for Active; 'I' for Inactive)
REMARK    1  A    between atoms: C_2  and  N_1 
REMARK    2  A    between atoms: C_2  and  C_3 
REMARK    3  A    between atoms: C_2  and  C_13 
REMARK    4  A    between atoms: C_3  and  C_4 
REMARK    5  A    between atoms: C_4  and  S_5 
REMARK    6  A    between atoms: S_5  and  C_6 
REMARK    7  A    between atoms: C_6  and  C_7 
REMARK    8  A    between atoms: C_7  and  C_8 
REMARK    9  A    between atoms: C_8  and  C_9 
REMARK   10  A    between atoms: C_9  and  C_10 
REMARK   11  A    between atoms: C_10  and  O_11 
REMARK   12  A    between atoms: C_13  and  O_14 
ROOT
HETATM    1  C   UNK N   1      35.378  15.171   8.618  0.00  0.00     0.076 C 
ENDROOT
BRANCH   1   2
HETATM    2  C   UNK N   1      34.006  15.809   8.489  0.00  0.00     0.045 C 
BRANCH   2   3
HETATM    3  C   UNK N   1      34.048  17.207   9.086  0.00  0.00     0.174 C 
BRANCH   3   4
HETATM    4  N   UNK N   1      34.836  17.201  10.307  0.00  0.00    -0.418 N 
HETATM    5  H   UNK N   1      34.628  16.559  11.071  0.00  0.00     0.150 HD
HETATM    6  H   UNK N   1      35.615  17.853  10.402  0.00  0.00     0.150 HD
ENDBRANCH   3   4
BRANCH   3   7
HETATM    7  C   UNK N   1      34.585  18.200   8.094  0.00  0.00     0.163 C 
HETATM    8  O   UNK N   1      34.360  18.056   6.909  0.00  0.00    -0.648 OA
BRANCH   7   9
HETATM    9  O   UNK N   1      35.286  19.276   8.515  0.00  0.00    -0.775 OA
HETATM   10  H   UNK N   1      36.164  19.469   8.251  0.00  0.00     0.167 HD
ENDBRANCH   7   9
ENDBRANCH   3   7
ENDBRANCH   2   3
ENDBRANCH   1   2
BRANCH   1  11
HETATM   11  S   UNK N   1      35.233  13.625   9.555  0.00  0.00    -0.169 SA
BRANCH  11  12
HETATM   12  C   UNK N   1      36.610  14.065  10.646  0.00  0.00     0.074 C 
BRANCH  12  13
HETATM   13  C   UNK N   1      36.097  14.273  12.057  0.00  0.00     0.010 C 
BRANCH  13  14
HETATM   14  C   UNK N   1      35.859  12.920  12.689  0.00  0.00     0.011 C 
BRANCH  14  15
HETATM   15  C   UNK N   1      36.859  12.666  13.804  0.00  0.00     0.110 C 
BRANCH  15  16
HETATM   16  C   UNK N   1      36.582  13.512  15.014  0.00  0.00     0.139 C 
HETATM   17  O   UNK N   1      35.507  13.450  15.592  0.00  0.00    -0.650 OA
BRANCH  16  18
HETATM   18  O   UNK N   1      37.532  14.349  15.469  0.00  0.00    -0.776 OA
HETATM   19  H   UNK N   1      37.536  14.609  16.369  0.00  0.00     0.167 HD
ENDBRANCH  16  18
ENDBRANCH  15  16
ENDBRANCH  14  15
ENDBRANCH  13  14
ENDBRANCH  12  13
ENDBRANCH  11  12
ENDBRANCH   1  11
TORSDOF 12
ENDMDL
MODEL 6
REMARK VINA RESULT:      -4.4      2.319      3.073
REMARK  12 active torsions:
REMARK  status: ('A' for Active; 'I' for Inactive)
REMARK    1  A    between atoms: C_2  and  N_1 
REMARK    2  A    between atoms: C_2  and  C_3 
REMARK    3  A    between atoms: C_2  and  C_13 
REMARK    4  A    between atoms: C_3  and  C_4 
REMARK    5  A    between atoms: C_4  and  S_5 
REMARK    6  A    between atoms: S_5  and  C_6 
REMARK    7  A    between atoms: C_6  and  C_7 
REMARK    8  A    between atoms: C_7  and  C_8 
REMARK    9  A    between atoms: C_8  and  C_9 
REMARK   10  A    between atoms: C_9  and  C_10 
REMARK   11  A    between atoms: C_10  and  O_11 
REMARK   12  A    between atoms: C_13  and  O_14 
ROOT
HETATM    1  C   UNK N   1      33.397  15.318   7.798  0.00  0.00     0.076 C 
ENDROOT
BRANCH   1   2
HETATM    2  C   UNK N   1      34.836  15.398   8.275  0.00  0.00     0.045 C 
BRANCH   2   3
HETATM    3  C   UNK N   1      34.864  15.322   9.793  0.00  0.00     0.174 C 
BRANCH   3   4
HETATM    4  N   UNK N   1      35.285  13.997  10.216  0.00  0.00    -0.418 N 
HETATM    5  H   UNK N   1      34.914  13.156   9.775  0.00  0.00     0.150 HD
HETATM    6  H   UNK N   1      35.967  13.906  10.970  0.00  0.00     0.150 HD
ENDBRANCH   3   4
BRANCH   3   7
HETATM    7  C   UNK N   1      35.754  16.388  10.369  0.00  0.00     0.163 C 
HETATM    8  O   UNK N   1      35.418  17.553  10.314  0.00  0.00    -0.648 OA
BRANCH   7   9
HETATM    9  O   UNK N   1      36.909  16.054  10.985  0.00  0.00    -0.775 OA
HETATM   10  H   UNK N   1      37.424  16.646  11.497  0.00  0.00     0.167 HD
ENDBRANCH   7   9
ENDBRANCH   3   7
ENDBRANCH   2   3
ENDBRANCH   1   2
BRANCH   1  11
HETATM   11  S   UNK N   1      33.124  16.564   6.509  0.00  0.00    -0.169 SA
BRANCH  11  12
HETATM   12  C   UNK N   1      32.905  17.888   7.724  0.00  0.00     0.074 C 
BRANCH  12  13
HETATM   13  C   UNK N   1      31.887  17.464   8.764  0.00  0.00     0.010 C 
BRANCH  13  14
HETATM   14  C   UNK N   1      30.502  17.767   8.237  0.00  0.00     0.011 C 
BRANCH  14  15
HETATM   15  C   UNK N   1      29.688  18.520   9.276  0.00  0.00     0.110 C 
BRANCH  15  16
HETATM   16  C   UNK N   1      28.219  18.229   9.161  0.00  0.00     0.139 C 
HETATM   17  O   UNK N   1      27.749  17.183   9.585  0.00  0.00    -0.650 OA
BRANCH  16  18
HETATM   18  O   UNK N   1      27.408  19.135   8.585  0.00  0.00    -0.776 OA
HETATM   19  H   UNK N   1      26.955  19.762   9.113  0.00  0.00     0.167 HD
ENDBRANCH  16  18
ENDBRANCH  15  16
ENDBRANCH  14  15
ENDBRANCH  13  14
ENDBRANCH  12  13
ENDBRANCH  11  12
ENDBRANCH   1  11
TORSDOF 12
ENDMDL
MODEL 7
REMARK VINA RESULT:      -4.4      2.071      2.269
REMARK  12 active torsions:
REMARK  status: ('A' for Active; 'I' for Inactive)
REMARK    1  A    between atoms: C_2  and  N_1 
REMARK    2  A    between atoms: C_2  and  C_3 
REMARK    3  A    between atoms: C_2  and  C_13 
REMARK    4  A    between atoms: C_3  and  C_4 
REMARK    5  A    between atoms: C_4  and  S_5 
REMARK    6  A    between atoms: S_5  and  C_6 
REMARK    7  A    between atoms: C_6  and  C_7 
REMARK    8  A    between atoms: C_7  and  C_8 
REMARK    9  A    between atoms: C_8  and  C_9 
REMARK   10  A    between atoms: C_9  and  C_10 
REMARK   11  A    between atoms: C_10  and  O_11 
REMARK   12  A    between atoms: C_13  and  O_14 
ROOT
HETATM    1  C   UNK N   1      30.669  17.577   8.244  0.00  0.00     0.076 C 
ENDROOT
BRANCH   1   2
HETATM    2  C   UNK N   1      32.032  17.292   7.640  0.00  0.00     0.045 C 
BRANCH   2   3
HETATM    3  C   UNK N   1      33.111  17.765   8.601  0.00  0.00     0.174 C 
BRANCH   3   4
HETATM    4  N   UNK N   1      33.507  16.675   9.476  0.00  0.00    -0.418 N 
HETATM    5  H   UNK N   1      34.480  16.538   9.748  0.00  0.00     0.150 HD
HETATM    6  H   UNK N   1      32.796  16.033   9.828  0.00  0.00     0.150 HD
ENDBRANCH   3   4
BRANCH   3   7
HETATM    7  C   UNK N   1      34.291  18.323   7.854  0.00  0.00     0.163 C 
HETATM    8  O   UNK N   1      35.049  19.094   8.406  0.00  0.00    -0.648 OA
BRANCH   7   9
HETATM    9  O   UNK N   1      34.536  17.941   6.581  0.00  0.00    -0.775 OA
HETATM   10  H   UNK N   1      35.375  17.993   6.168  0.00  0.00     0.167 HD
ENDBRANCH   7   9
ENDBRANCH   3   7
ENDBRANCH   2   3
ENDBRANCH   1   2
BRANCH   1  11
HETATM   11  S   UNK N   1      29.380  16.928   7.143  0.00  0.00    -0.169 SA
BRANCH  11  12
HETATM   12  C   UNK N   1      30.403  17.175   5.670  0.00  0.00     0.074 C 
BRANCH  12  13
HETATM   13  C   UNK N   1      29.605  17.910   4.612  0.00  0.00     0.010 C 
BRANCH  13  14
HETATM   14  C   UNK N   1      28.273  18.314   5.205  0.00  0.00     0.011 C 
BRANCH  14  15
HETATM   15  C   UNK N   1      27.975  19.773   4.904  0.00  0.00     0.110 C 
BRANCH  15  16
HETATM   16  C   UNK N   1      27.531  20.523   6.127  0.00  0.00     0.139 C 
HETATM   17  O   UNK N   1      27.536  19.991   7.228  0.00  0.00    -0.650 OA
BRANCH  16  18
HETATM   18  O   UNK N   1      27.125  21.800   6.010  0.00  0.00    -0.776 OA
HETATM   19  H   UNK N   1      26.290  22.059   6.347  0.00  0.00     0.167 HD
ENDBRANCH  16  18
ENDBRANCH  15  16
ENDBRANCH  14  15
ENDBRANCH  13  14
ENDBRANCH  12  13
ENDBRANCH  11  12
ENDBRANCH   1  11
TORSDOF 12
ENDMDL
MODEL 8
REMARK VINA RESULT:      -4.4      4.087      5.356
REMARK  12 active torsions:
REMARK  status: ('A' for Active; 'I' for Inactive)
REMARK    1  A    between atoms: C_2  and  N_1 
REMARK    2  A    between atoms: C_2  and  C_3 
REMARK    3  A    between atoms: C_2  and  C_13 
REMARK    4  A    between atoms: C_3  and  C_4 
REMARK    5  A    between atoms: C_4  and  S_5 
REMARK    6  A    between atoms: S_5  and  C_6 
REMARK    7  A    between atoms: C_6  and  C_7 
REMARK    8  A    between atoms: C_7  and  C_8 
REMARK    9  A    between atoms: C_8  and  C_9 
REMARK   10  A    between atoms: C_9  and  C_10 
REMARK   11  A    between atoms: C_10  and  O_11 
REMARK   12  A    between atoms: C_13  and  O_14 
ROOT
HETATM    1  C   UNK N   1      34.850  13.553   9.129  0.00  0.00     0.076 C 
ENDROOT
BRANCH   1   2
HETATM    2  C   UNK N   1      36.085  14.424   8.987  0.00  0.00     0.045 C 
BRANCH   2   3
HETATM    3  C   UNK N   1      36.872  14.391  10.287  0.00  0.00     0.174 C 
BRANCH   3   4
HETATM    4  N   UNK N   1      38.297  14.405  10.004  0.00  0.00    -0.418 N 
HETATM    5  H   UNK N   1      38.659  14.165   9.082  0.00  0.00     0.150 HD
HETATM    6  H   UNK N   1      38.951  14.663  10.745  0.00  0.00     0.150 HD
ENDBRANCH   3   4
BRANCH   3   7
HETATM    7  C   UNK N   1      36.480  15.532  11.183  0.00  0.00     0.163 C 
HETATM    8  O   UNK N   1      36.332  16.644  10.719  0.00  0.00    -0.648 OA
BRANCH   7   9
HETATM    9  O   UNK N   1      36.254  15.322  12.499  0.00  0.00    -0.775 OA
HETATM   10  H   UNK N   1      36.773  14.759  13.039  0.00  0.00     0.167 HD
ENDBRANCH   7   9
ENDBRANCH   3   7
ENDBRANCH   2   3
ENDBRANCH   1   2
BRANCH   1  11
HETATM   11  S   UNK N   1      33.562  14.153   8.000  0.00  0.00    -0.169 SA
BRANCH  11  12
HETATM   12  C   UNK N   1      34.751  14.424   6.661  0.00  0.00     0.074 C 
BRANCH  12  13
HETATM   13  C   UNK N   1      34.504  15.778   6.026  0.00  0.00     0.010 C 
BRANCH  13  14
HETATM   14  C   UNK N   1      33.412  16.482   6.800  0.00  0.00     0.011 C 
BRANCH  14  15
HETATM   15  C   UNK N   1      33.746  17.954   6.976  0.00  0.00     0.110 C 
BRANCH  15  16
HETATM   16  C   UNK N   1      34.387  18.233   8.306  0.00  0.00     0.139 C 
HETATM   17  O   UNK N   1      35.220  19.119   8.430  0.00  0.00    -0.650 OA
BRANCH  16  18
HETATM   18  O   UNK N   1      34.038  17.496   9.377  0.00  0.00    -0.776 OA
HETATM   19  H   UNK N   1      34.667  17.316  10.047  0.00  0.00     0.167 HD
ENDBRANCH  16  18
ENDBRANCH  15  16
ENDBRANCH  14  15
ENDBRANCH  13  14
ENDBRANCH  12  13
ENDBRANCH  11  12
ENDBRANCH   1  11
TORSDOF 12
ENDMDL
MODEL 9
REMARK VINA RESULT:      -4.4      9.871     10.402
REMARK  12 active torsions:
REMARK  status: ('A' for Active; 'I' for Inactive)
REMARK    1  A    between atoms: C_2  and  N_1 
REMARK    2  A    between atoms: C_2  and  C_3 
REMARK    3  A    between atoms: C_2  and  C_13 
REMARK    4  A    between atoms: C_3  and  C_4 
REMARK    5  A    between atoms: C_4  and  S_5 
REMARK    6  A    between atoms: S_5  and  C_6 
REMARK    7  A    between atoms: C_6  and  C_7 
REMARK    8  A    between atoms: C_7  and  C_8 
REMARK    9  A    between atoms: C_8  and  C_9 
REMARK   10  A    between atoms: C_9  and  C_10 
REMARK   11  A    between atoms: C_10  and  O_11 
REMARK   12  A    between atoms: C_13  and  O_14 
ROOT
HETATM    1  C   UNK N   1      22.599  13.233   9.128  0.00  0.00     0.076 C 
ENDROOT
BRANCH   1   2
HETATM    2  C   UNK N   1      22.672  11.997  10.005  0.00  0.00     0.045 C 
BRANCH   2   3
HETATM    3  C   UNK N   1      22.451  12.400  11.454  0.00  0.00     0.174 C 
BRANCH   3   4
HETATM    4  N   UNK N   1      21.318  11.675  12.003  0.00  0.00    -0.418 N 
HETATM    5  H   UNK N   1      20.411  12.124  12.132  0.00  0.00     0.150 HD
HETATM    6  H   UNK N   1      21.431  10.695  12.265  0.00  0.00     0.150 HD
ENDBRANCH   3   4
BRANCH   3   7
HETATM    7  C   UNK N   1      23.692  12.174  12.272  0.00  0.00     0.163 C 
HETATM    8  O   UNK N   1      23.603  11.971  13.465  0.00  0.00    -0.648 OA
BRANCH   7   9
HETATM    9  O   UNK N   1      24.907  12.157  11.679  0.00  0.00    -0.775 OA
HETATM   10  H   UNK N   1      25.278  12.883  11.218  0.00  0.00     0.167 HD
ENDBRANCH   7   9
ENDBRANCH   3   7
ENDBRANCH   2   3
ENDBRANCH   1   2
BRANCH   1  11
HETATM   11  S   UNK N   1      21.037  14.101   9.445  0.00  0.00    -0.169 SA
BRANCH  11  12
HETATM   12  C   UNK N   1      20.778  14.442   7.686  0.00  0.00     0.074 C 
BRANCH  12  13
HETATM   13  C   UNK N   1      21.969  15.197   7.131  0.00  0.00     0.010 C 
BRANCH  13  14
HETATM   14  C   UNK N   1      21.656  15.615   5.711  0.00  0.00     0.011 C 
BRANCH  14  15
HETATM   15  C   UNK N   1      20.795  16.867   5.700  0.00  0.00     0.110 C 
BRANCH  15  16
HETATM   16  C   UNK N   1      21.520  18.056   6.262  0.00  0.00     0.139 C 
HETATM   17  O   UNK N   1      20.989  18.785   7.088  0.00  0.00    -0.650 OA
BRANCH  16  18
HETATM   18  O   UNK N   1      22.774  18.322   5.853  0.00  0.00    -0.776 OA
HETATM   19  H   UNK N   1      22.952  18.451   4.943  0.00  0.00     0.167 HD
ENDBRANCH  16  18
ENDBRANCH  15  16
ENDBRANCH  14  15
ENDBRANCH  13  14
ENDBRANCH  12  13
ENDBRANCH  11  12
ENDBRANCH   1  11
TORSDOF 12
ENDMDL
