MODEL 1
REMARK VINA RESULT:      -7.6      0.000      0.000
REMARK  18 active torsions:
REMARK  status: ('A' for Active; 'I' for Inactive)
REMARK    1  A    between atoms: C_22  and  C_21 
REMARK    2  A    between atoms: C_28  and  C_21 
REMARK    3  A    between atoms: C_32  and  C_22 
REMARK    4  A    between atoms: C_24  and  C_23 
REMARK    5  A    between atoms: C_32  and  C_23 
REMARK    6  A    between atoms: S_45  and  C_24 
REMARK    7  A    between atoms: C_29  and  C_25 
REMARK    8  A    between atoms: C_33  and  C_25 
REMARK    9  A    between atoms: C_30  and  C_26 
REMARK   10  A    between atoms: O_44  and  C_26 
REMARK   11  A    between atoms: C_31  and  C_27 
REMARK   12  A    between atoms: S_45  and  C_27 
REMARK   13  A    between atoms: C_32  and  N_36 
REMARK   14  A    between atoms: C_34  and  C_33 
REMARK   15  A    between atoms: C_33  and  N_38 
REMARK   16  A    between atoms: C_34  and  O_40 
REMARK   17  A    between atoms: C_35  and  O_41 
REMARK   18  A    between atoms: O_44  and  C_35 
ROOT
HETATM    1  C   UNK N   1      36.969  14.501   9.494  0.00  0.00     0.135 C 
HETATM    2  N   UNK N   1      36.763  13.918   8.355  0.00  0.00    -0.368 N 
ATOM      3  HN  UNK N   1      37.623  13.575   7.926  1.00  0.00     0.161 HD
ENDROOT
BRANCH   1   4
HETATM    4  C   UNK N   1      35.959  15.157  10.442  0.00  0.00     0.164 C 
BRANCH   4   5
HETATM    5  C   UNK N   1      35.460  16.612  10.328  0.00  0.00     0.072 C 
BRANCH   5   6
HETATM    6  C   UNK N   1      34.261  16.649   9.430  0.00  0.00    -0.056 A 
HETATM    7  C   UNK N   1      33.349  15.592   9.480  0.00  0.00     0.007 A 
HETATM    8  C   UNK N   1      32.151  15.662   8.766  0.00  0.00     0.001 A 
HETATM    9  C   UNK N   1      31.857  16.798   8.006  0.00  0.00     0.000 A 
HETATM   10  C   UNK N   1      32.768  17.857   7.949  0.00  0.00     0.001 A 
HETATM   11  C   UNK N   1      33.967  17.789   8.668  0.00  0.00     0.007 A 
ENDBRANCH   5   6
ENDBRANCH   4   5
BRANCH   4  12
HETATM   12  N   UNK N   1      36.493  14.895  11.755  0.00  0.00    -0.338 N 
HETATM   13  C   UNK N   1      35.799  14.359  12.693  0.00  0.00     0.259 C 
ATOM     14  HN  UNK N   1      37.462  15.145  11.947  1.00  0.00     0.164 HD
BRANCH  13  15
HETATM   15  O   UNK N   1      34.598  13.803  12.440  0.00  0.00    -0.327 OA
HETATM   16  H   UNK N   1      33.708  13.743  12.152  0.00  0.00     0.221 HD
ENDBRANCH  13  15
BRANCH  13  17
HETATM   17  O   UNK N   1      36.218  14.380  13.956  0.00  0.00    -0.312 OA
BRANCH  17  18
HETATM   18  C   UNK N   1      36.609  13.277  14.666  0.00  0.00     0.218 C 
BRANCH  18  19
HETATM   19  C   UNK N   1      36.404  13.713  16.043  0.00  0.00    -0.034 A 
HETATM   20  C   UNK N   1      35.448  13.049  16.814  0.00  0.00     0.009 A 
HETATM   21  C   UNK N   1      35.025  13.601  18.019  0.00  0.00     0.001 A 
HETATM   22  C   UNK N   1      35.534  14.835  18.434  0.00  0.00     0.000 A 
HETATM   23  C   UNK N   1      36.478  15.508  17.650  0.00  0.00     0.001 A 
HETATM   24  C   UNK N   1      36.901  14.953  16.443  0.00  0.00     0.009 A 
ENDBRANCH  18  19
ENDBRANCH  17  18
ENDBRANCH  13  17
ENDBRANCH   4  12
ENDBRANCH   1   4
BRANCH   1  25
HETATM   25  O   UNK N   1      38.250  14.571   9.908  0.00  0.00    -0.348 OA
HETATM   26  H   UNK N   1      39.021  14.954  10.278  0.00  0.00     0.219 HD
ENDBRANCH   1  25
BRANCH   2  27
HETATM   27  C   UNK N   1      35.589  13.645   7.554  0.00  0.00     0.084 C 
BRANCH  27  28
HETATM   28  C   UNK N   1      35.344  14.639   6.421  0.00  0.00     0.029 C 
BRANCH  28  29
HETATM   29  C   UNK N   1      34.302  14.116   5.410  0.00  0.00     0.040 C 
BRANCH  29  30
HETATM   30  C   UNK N   1      33.329  15.165   4.980  0.00  0.00    -0.058 A 
HETATM   31  C   UNK N   1      33.743  16.476   4.700  0.00  0.00     0.007 A 
HETATM   32  C   UNK N   1      32.809  17.460   4.384  0.00  0.00     0.001 A 
HETATM   33  C   UNK N   1      31.454  17.131   4.321  0.00  0.00     0.000 A 
HETATM   34  C   UNK N   1      31.041  15.815   4.554  0.00  0.00     0.001 A 
HETATM   35  C   UNK N   1      31.978  14.835   4.888  0.00  0.00     0.007 A 
ENDBRANCH  29  30
ENDBRANCH  28  29
ENDBRANCH  27  28
BRANCH  27  36
HETATM   36  C   UNK N   1      35.265  12.159   7.343  0.00  0.00     0.040 C 
BRANCH  36  37
HETATM   37  C   UNK N   1      35.892  11.161   8.304  0.00  0.00     0.142 C 
BRANCH  37  38
HETATM   38  S   UNK N   1      35.188  11.079   9.995  0.00  0.00     0.148 S 
HETATM   39  O   UNK N   1      34.102  12.149  10.192  0.00  0.00    -0.228 OA
HETATM   40  O   UNK N   1      36.240  11.689  10.930  0.00  0.00    -0.228 OA
BRANCH  38  41
HETATM   41  C   UNK N   1      34.658   9.548  10.819  0.00  0.00     0.178 C 
BRANCH  41  42
HETATM   42  C   UNK N   1      34.744   9.686  12.295  0.00  0.00    -0.044 A 
HETATM   43  C   UNK N   1      33.787  10.446  12.973  0.00  0.00     0.008 A 
HETATM   44  C   UNK N   1      33.848  10.562  14.364  0.00  0.00     0.001 A 
HETATM   45  C   UNK N   1      34.862   9.912  15.076  0.00  0.00     0.000 A 
HETATM   46  C   UNK N   1      35.820   9.153  14.398  0.00  0.00     0.001 A 
HETATM   47  C   UNK N   1      35.764   9.044  13.008  0.00  0.00     0.008 A 
ENDBRANCH  41  42
ENDBRANCH  38  41
ENDBRANCH  37  38
ENDBRANCH  36  37
ENDBRANCH  27  36
ENDBRANCH   2  27
TORSDOF 18
ENDMDL
MODEL 2
REMARK VINA RESULT:      -7.3      2.812      7.145
REMARK  18 active torsions:
REMARK  status: ('A' for Active; 'I' for Inactive)
REMARK    1  A    between atoms: C_22  and  C_21 
REMARK    2  A    between atoms: C_28  and  C_21 
REMARK    3  A    between atoms: C_32  and  C_22 
REMARK    4  A    between atoms: C_24  and  C_23 
REMARK    5  A    between atoms: C_32  and  C_23 
REMARK    6  A    between atoms: S_45  and  C_24 
REMARK    7  A    between atoms: C_29  and  C_25 
REMARK    8  A    between atoms: C_33  and  C_25 
REMARK    9  A    between atoms: C_30  and  C_26 
REMARK   10  A    between atoms: O_44  and  C_26 
REMARK   11  A    between atoms: C_31  and  C_27 
REMARK   12  A    between atoms: S_45  and  C_27 
REMARK   13  A    between atoms: C_32  and  N_36 
REMARK   14  A    between atoms: C_34  and  C_33 
REMARK   15  A    between atoms: C_33  and  N_38 
REMARK   16  A    between atoms: C_34  and  O_40 
REMARK   17  A    between atoms: C_35  and  O_41 
REMARK   18  A    between atoms: O_44  and  C_35 
ROOT
HETATM    1  C   UNK N   1      34.451  17.891   8.587  0.00  0.00     0.135 C 
HETATM    2  N   UNK N   1      34.914  17.202   9.581  0.00  0.00    -0.368 N 
ATOM      3  HN  UNK N   1      35.670  17.679  10.075  1.00  0.00     0.161 HD
ENDROOT
BRANCH   1   4
HETATM    4  C   UNK N   1      33.339  17.533   7.596  0.00  0.00     0.164 C 
BRANCH   4   5
HETATM    5  C   UNK N   1      33.489  17.543   6.061  0.00  0.00     0.072 C 
BRANCH   5   6
HETATM    6  C   UNK N   1      32.445  16.652   5.460  0.00  0.00    -0.056 A 
HETATM    7  C   UNK N   1      32.069  16.858   4.130  0.00  0.00     0.007 A 
HETATM    8  C   UNK N   1      31.208  15.958   3.496  0.00  0.00     0.001 A 
HETATM    9  C   UNK N   1      30.729  14.843   4.189  0.00  0.00     0.000 A 
HETATM   10  C   UNK N   1      31.099  14.636   5.522  0.00  0.00     0.001 A 
HETATM   11  C   UNK N   1      31.964  15.534   6.157  0.00  0.00     0.007 A 
ENDBRANCH   5   6
ENDBRANCH   4   5
BRANCH   4  12
HETATM   12  N   UNK N   1      32.225  18.348   8.012  0.00  0.00    -0.338 N 
HETATM   13  C   UNK N   1      31.240  17.885   8.692  0.00  0.00     0.259 C 
ATOM     14  HN  UNK N   1      32.220  19.335   7.754  1.00  0.00     0.164 HD
BRANCH  13  15
HETATM   15  O   UNK N   1      31.296  16.660   9.252  0.00  0.00    -0.327 OA
HETATM   16  H   UNK N   1      31.452  15.738   9.319  0.00  0.00     0.221 HD
ENDBRANCH  13  15
BRANCH  13  17
HETATM   17  O   UNK N   1      30.111  18.576   8.825  0.00  0.00    -0.312 OA
BRANCH  17  18
HETATM   18  C   UNK N   1      28.866  18.102   8.510  0.00  0.00     0.218 C 
BRANCH  18  19
HETATM   19  C   UNK N   1      28.665  18.643   7.170  0.00  0.00    -0.034 A 
HETATM   20  C   UNK N   1      27.862  19.776   7.025  0.00  0.00     0.009 A 
HETATM   21  C   UNK N   1      27.419  20.155   5.762  0.00  0.00     0.001 A 
HETATM   22  C   UNK N   1      27.753  19.379   4.648  0.00  0.00     0.000 A 
HETATM   23  C   UNK N   1      28.543  18.234   4.798  0.00  0.00     0.001 A 
HETATM   24  C   UNK N   1      28.986  17.856   6.064  0.00  0.00     0.009 A 
ENDBRANCH  18  19
ENDBRANCH  17  18
ENDBRANCH  13  17
ENDBRANCH   4  12
ENDBRANCH   1   4
BRANCH   1  25
HETATM   25  O   UNK N   1      35.035  19.086   8.363  0.00  0.00    -0.348 OA
HETATM   26  H   UNK N   1      35.650  19.784   8.474  0.00  0.00     0.219 HD
ENDBRANCH   1  25
BRANCH   2  27
HETATM   27  C   UNK N   1      34.604  15.907  10.149  0.00  0.00     0.084 C 
BRANCH  27  28
HETATM   28  C   UNK N   1      34.323  14.811   9.124  0.00  0.00     0.029 C 
BRANCH  28  29
HETATM   29  C   UNK N   1      35.559  14.509   8.250  0.00  0.00     0.040 C 
BRANCH  29  30
HETATM   30  C   UNK N   1      35.201  14.019   6.885  0.00  0.00    -0.058 A 
HETATM   31  C   UNK N   1      35.605  14.708   5.731  0.00  0.00     0.007 A 
HETATM   32  C   UNK N   1      35.189  14.284   4.471  0.00  0.00     0.001 A 
HETATM   33  C   UNK N   1      34.387  13.148   4.356  0.00  0.00     0.000 A 
HETATM   34  C   UNK N   1      34.021  12.430   5.499  0.00  0.00     0.001 A 
HETATM   35  C   UNK N   1      34.424  12.869   6.762  0.00  0.00     0.007 A 
ENDBRANCH  29  30
ENDBRANCH  28  29
ENDBRANCH  27  28
BRANCH  27  36
HETATM   36  C   UNK N   1      35.347  15.560  11.446  0.00  0.00     0.040 C 
BRANCH  36  37
HETATM   37  C   UNK N   1      35.093  14.191  12.057  0.00  0.00     0.142 C 
BRANCH  37  38
HETATM   38  S   UNK N   1      36.458  12.971  11.961  0.00  0.00     0.148 S 
HETATM   39  O   UNK N   1      37.632  13.522  11.135  0.00  0.00    -0.228 OA
HETATM   40  O   UNK N   1      36.005  11.893  10.968  0.00  0.00    -0.228 OA
BRANCH  38  41
HETATM   41  C   UNK N   1      37.122  12.052  13.381  0.00  0.00     0.178 C 
BRANCH  41  42
HETATM   42  C   UNK N   1      36.512  12.525  14.649  0.00  0.00    -0.044 A 
HETATM   43  C   UNK N   1      35.583  11.717  15.312  0.00  0.00     0.008 A 
HETATM   44  C   UNK N   1      35.021  12.146  16.516  0.00  0.00     0.001 A 
HETATM   45  C   UNK N   1      35.392  13.380  17.061  0.00  0.00     0.000 A 
HETATM   46  C   UNK N   1      36.319  14.189  16.398  0.00  0.00     0.001 A 
HETATM   47  C   UNK N   1      36.875  13.764  15.191  0.00  0.00     0.008 A 
ENDBRANCH  41  42
ENDBRANCH  38  41
ENDBRANCH  37  38
ENDBRANCH  36  37
ENDBRANCH  27  36
ENDBRANCH   2  27
TORSDOF 18
ENDMDL
MODEL 3
REMARK VINA RESULT:      -7.3     16.929     20.888
REMARK  18 active torsions:
REMARK  status: ('A' for Active; 'I' for Inactive)
REMARK    1  A    between atoms: C_22  and  C_21 
REMARK    2  A    between atoms: C_28  and  C_21 
REMARK    3  A    between atoms: C_32  and  C_22 
REMARK    4  A    between atoms: C_24  and  C_23 
REMARK    5  A    between atoms: C_32  and  C_23 
REMARK    6  A    between atoms: S_45  and  C_24 
REMARK    7  A    between atoms: C_29  and  C_25 
REMARK    8  A    between atoms: C_33  and  C_25 
REMARK    9  A    between atoms: C_30  and  C_26 
REMARK   10  A    between atoms: O_44  and  C_26 
REMARK   11  A    between atoms: C_31  and  C_27 
REMARK   12  A    between atoms: S_45  and  C_27 
REMARK   13  A    between atoms: C_32  and  N_36 
REMARK   14  A    between atoms: C_34  and  C_33 
REMARK   15  A    between atoms: C_33  and  N_38 
REMARK   16  A    between atoms: C_34  and  O_40 
REMARK   17  A    between atoms: C_35  and  O_41 
REMARK   18  A    between atoms: O_44  and  C_35 
ROOT
HETATM    1  C   UNK N   1      27.145  24.268  -3.589  0.00  0.00     0.135 C 
HETATM    2  N   UNK N   1      26.086  24.125  -4.322  0.00  0.00    -0.368 N 
ATOM      3  HN  UNK N   1      25.236  24.009  -3.769  1.00  0.00     0.161 HD
ENDROOT
BRANCH   1   4
HETATM    4  C   UNK N   1      28.603  24.452  -4.021  0.00  0.00     0.164 C 
BRANCH   4   5
HETATM    5  C   UNK N   1      29.056  25.134  -5.328  0.00  0.00     0.072 C 
BRANCH   5   6
HETATM    6  C   UNK N   1      29.918  26.312  -4.993  0.00  0.00    -0.056 A 
HETATM    7  C   UNK N   1      30.650  26.924  -6.015  0.00  0.00     0.007 A 
HETATM    8  C   UNK N   1      31.348  28.108  -5.768  0.00  0.00     0.001 A 
HETATM    9  C   UNK N   1      31.307  28.691  -4.499  0.00  0.00     0.000 A 
HETATM   10  C   UNK N   1      30.580  28.081  -3.472  0.00  0.00     0.001 A 
HETATM   11  C   UNK N   1      29.877  26.896  -3.719  0.00  0.00     0.007 A 
ENDBRANCH   5   6
ENDBRANCH   4   5
BRANCH   4  12
HETATM   12  N   UNK N   1      29.171  23.133  -3.903  0.00  0.00    -0.338 N 
HETATM   13  C   UNK N   1      30.106  22.850  -3.070  0.00  0.00     0.259 C 
ATOM     14  HN  UNK N   1      28.816  22.393  -4.508  1.00  0.00     0.164 HD
BRANCH  13  15
HETATM   15  O   UNK N   1      30.457  23.715  -2.098  0.00  0.00    -0.327 OA
HETATM   16  H   UNK N   1      30.375  24.424  -1.490  0.00  0.00     0.221 HD
ENDBRANCH  13  15
BRANCH  13  17
HETATM   17  O   UNK N   1      30.795  21.716  -3.168  0.00  0.00    -0.312 OA
BRANCH  17  18
HETATM   18  C   UNK N   1      32.126  21.585  -2.874  0.00  0.00     0.218 C 
BRANCH  18  19
HETATM   19  C   UNK N   1      32.693  21.254  -4.177  0.00  0.00    -0.034 A 
HETATM   20  C   UNK N   1      32.917  19.910  -4.481  0.00  0.00     0.009 A 
HETATM   21  C   UNK N   1      33.703  19.569  -5.578  0.00  0.00     0.001 A 
HETATM   22  C   UNK N   1      34.292  20.576  -6.349  0.00  0.00     0.000 A 
HETATM   23  C   UNK N   1      34.081  21.922  -6.031  0.00  0.00     0.001 A 
HETATM   24  C   UNK N   1      33.293  22.261  -4.932  0.00  0.00     0.009 A 
ENDBRANCH  18  19
ENDBRANCH  17  18
ENDBRANCH  13  17
ENDBRANCH   4  12
ENDBRANCH   1   4
BRANCH   1  25
HETATM   25  O   UNK N   1      26.959  24.227  -2.254  0.00  0.00    -0.348 OA
HETATM   26  H   UNK N   1      26.526  24.037  -1.445  0.00  0.00     0.219 HD
ENDBRANCH   1  25
BRANCH   2  27
HETATM   27  C   UNK N   1      25.837  24.091  -5.748  0.00  0.00     0.084 C 
BRANCH  27  28
HETATM   28  C   UNK N   1      25.879  25.453  -6.435  0.00  0.00     0.029 C 
BRANCH  28  29
HETATM   29  C   UNK N   1      25.125  26.530  -5.628  0.00  0.00     0.040 C 
BRANCH  29  30
HETATM   30  C   UNK N   1      25.961  27.735  -5.342  0.00  0.00    -0.058 A 
HETATM   31  C   UNK N   1      26.954  28.165  -6.235  0.00  0.00     0.007 A 
HETATM   32  C   UNK N   1      27.780  29.240  -5.910  0.00  0.00     0.001 A 
HETATM   33  C   UNK N   1      27.598  29.909  -4.699  0.00  0.00     0.000 A 
HETATM   34  C   UNK N   1      26.578  29.514  -3.827  0.00  0.00     0.001 A 
HETATM   35  C   UNK N   1      25.764  28.425  -4.147  0.00  0.00     0.007 A 
ENDBRANCH  29  30
ENDBRANCH  28  29
ENDBRANCH  27  28
BRANCH  27  36
HETATM   36  C   UNK N   1      26.373  22.853  -6.481  0.00  0.00     0.040 C 
BRANCH  36  37
HETATM   37  C   UNK N   1      25.512  22.267  -7.589  0.00  0.00     0.142 C 
BRANCH  37  38
HETATM   38  S   UNK N   1      26.127  22.452  -9.307  0.00  0.00     0.148 S 
HETATM   39  O   UNK N   1      25.470  23.657 -10.000  0.00  0.00    -0.228 OA
HETATM   40  O   UNK N   1      25.444  21.352 -10.130  0.00  0.00    -0.228 OA
BRANCH  38  41
HETATM   41  C   UNK N   1      27.878  22.381  -9.789  0.00  0.00     0.178 C 
BRANCH  41  42
HETATM   42  C   UNK N   1      28.677  21.653  -8.772  0.00  0.00    -0.044 A 
HETATM   43  C   UNK N   1      29.608  22.350  -7.996  0.00  0.00     0.008 A 
HETATM   44  C   UNK N   1      30.347  21.676  -7.022  0.00  0.00     0.001 A 
HETATM   45  C   UNK N   1      30.152  20.305  -6.819  0.00  0.00     0.000 A 
HETATM   46  C   UNK N   1      29.223  19.608  -7.595  0.00  0.00     0.001 A 
HETATM   47  C   UNK N   1      28.489  20.279  -8.574  0.00  0.00     0.008 A 
ENDBRANCH  41  42
ENDBRANCH  38  41
ENDBRANCH  37  38
ENDBRANCH  36  37
ENDBRANCH  27  36
ENDBRANCH   2  27
TORSDOF 18
ENDMDL
MODEL 4
REMARK VINA RESULT:      -7.1      1.943      8.358
REMARK  18 active torsions:
REMARK  status: ('A' for Active; 'I' for Inactive)
REMARK    1  A    between atoms: C_22  and  C_21 
REMARK    2  A    between atoms: C_28  and  C_21 
REMARK    3  A    between atoms: C_32  and  C_22 
REMARK    4  A    between atoms: C_24  and  C_23 
REMARK    5  A    between atoms: C_32  and  C_23 
REMARK    6  A    between atoms: S_45  and  C_24 
REMARK    7  A    between atoms: C_29  and  C_25 
REMARK    8  A    between atoms: C_33  and  C_25 
REMARK    9  A    between atoms: C_30  and  C_26 
REMARK   10  A    between atoms: O_44  and  C_26 
REMARK   11  A    between atoms: C_31  and  C_27 
REMARK   12  A    between atoms: S_45  and  C_27 
REMARK   13  A    between atoms: C_32  and  N_36 
REMARK   14  A    between atoms: C_34  and  C_33 
REMARK   15  A    between atoms: C_33  and  N_38 
REMARK   16  A    between atoms: C_34  and  O_40 
REMARK   17  A    between atoms: C_35  and  O_41 
REMARK   18  A    between atoms: O_44  and  C_35 
ROOT
HETATM    1  C   UNK N   1      37.561  12.691  10.798  0.00  0.00     0.135 C 
HETATM    2  N   UNK N   1      37.637  11.615  10.079  0.00  0.00    -0.368 N 
ATOM      3  HN  UNK N   1      38.592  11.401   9.789  1.00  0.00     0.161 HD
ENDROOT
BRANCH   1   4
HETATM    4  C   UNK N   1      36.327  13.358  11.413  0.00  0.00     0.164 C 
BRANCH   4   5
HETATM    5  C   UNK N   1      35.246  12.625  12.234  0.00  0.00     0.072 C 
BRANCH   5   6
HETATM    6  C   UNK N   1      35.385  13.004  13.677  0.00  0.00    -0.056 A 
HETATM    7  C   UNK N   1      34.489  12.464  14.604  0.00  0.00     0.007 A 
HETATM    8  C   UNK N   1      34.679  12.679  15.971  0.00  0.00     0.001 A 
HETATM    9  C   UNK N   1      35.772  13.427  16.416  0.00  0.00     0.000 A 
HETATM   10  C   UNK N   1      36.669  13.973  15.491  0.00  0.00     0.001 A 
HETATM   11  C   UNK N   1      36.482  13.755  14.122  0.00  0.00     0.007 A 
ENDBRANCH   5   6
ENDBRANCH   4   5
BRANCH   4  12
HETATM   12  N   UNK N   1      35.739  14.084  10.315  0.00  0.00    -0.338 N 
HETATM   13  C   UNK N   1      35.967  15.329  10.104  0.00  0.00     0.259 C 
ATOM     14  HN  UNK N   1      35.115  13.587   9.680  1.00  0.00     0.164 HD
BRANCH  13  15
HETATM   15  O   UNK N   1      36.947  15.979  10.763  0.00  0.00    -0.327 OA
HETATM   16  H   UNK N   1      37.517  16.212  11.470  0.00  0.00     0.221 HD
ENDBRANCH  13  15
BRANCH  13  17
HETATM   17  O   UNK N   1      35.212  16.034   9.266  0.00  0.00    -0.312 OA
BRANCH  17  18
HETATM   18  C   UNK N   1      34.547  17.184   9.595  0.00  0.00     0.218 C 
BRANCH  18  19
HETATM   19  C   UNK N   1      33.729  17.413   8.408  0.00  0.00    -0.034 A 
HETATM   20  C   UNK N   1      32.361  17.147   8.484  0.00  0.00     0.009 A 
HETATM   21  C   UNK N   1      31.602  17.081   7.319  0.00  0.00     0.001 A 
HETATM   22  C   UNK N   1      32.222  17.247   6.077  0.00  0.00     0.000 A 
HETATM   23  C   UNK N   1      33.597  17.496   6.003  0.00  0.00     0.001 A 
HETATM   24  C   UNK N   1      34.355  17.561   7.171  0.00  0.00     0.009 A 
ENDBRANCH  18  19
ENDBRANCH  17  18
ENDBRANCH  13  17
ENDBRANCH   4  12
ENDBRANCH   1   4
BRANCH   1  25
HETATM   25  O   UNK N   1      38.720  13.341  11.026  0.00  0.00    -0.348 OA
HETATM   26  H   UNK N   1      39.329  14.053  11.021  0.00  0.00     0.219 HD
ENDBRANCH   1  25
BRANCH   2  27
HETATM   27  C   UNK N   1      36.674  10.649   9.595  0.00  0.00     0.084 C 
BRANCH  27  28
HETATM   28  C   UNK N   1      36.023   9.797  10.681  0.00  0.00     0.029 C 
BRANCH  28  29
HETATM   29  C   UNK N   1      37.065   8.991  11.483  0.00  0.00     0.040 C 
BRANCH  29  30
HETATM   30  C   UNK N   1      37.009   9.263  12.951  0.00  0.00    -0.058 A 
HETATM   31  C   UNK N   1      35.994   8.726  13.757  0.00  0.00     0.007 A 
HETATM   32  C   UNK N   1      35.909   9.062  15.107  0.00  0.00     0.001 A 
HETATM   33  C   UNK N   1      36.860   9.918  15.666  0.00  0.00     0.000 A 
HETATM   34  C   UNK N   1      37.901  10.418  14.877  0.00  0.00     0.001 A 
HETATM   35  C   UNK N   1      37.972  10.094  13.521  0.00  0.00     0.007 A 
ENDBRANCH  29  30
ENDBRANCH  28  29
ENDBRANCH  27  28
BRANCH  27  36
HETATM   36  C   UNK N   1      35.845  11.095   8.382  0.00  0.00     0.040 C 
BRANCH  36  37
HETATM   37  C   UNK N   1      36.540  11.131   7.031  0.00  0.00     0.142 C 
BRANCH  37  38
HETATM   38  S   UNK N   1      37.248  12.737   6.501  0.00  0.00     0.148 S 
HETATM   39  O   UNK N   1      38.026  12.588   5.182  0.00  0.00    -0.228 OA
HETATM   40  O   UNK N   1      38.453  13.000   7.414  0.00  0.00    -0.228 OA
BRANCH  38  41
HETATM   41  C   UNK N   1      36.333  14.307   6.467  0.00  0.00     0.178 C 
BRANCH  41  42
HETATM   42  C   UNK N   1      34.936  14.094   6.011  0.00  0.00    -0.044 A 
HETATM   43  C   UNK N   1      33.939  13.815   6.950  0.00  0.00     0.008 A 
HETATM   44  C   UNK N   1      32.618  13.636   6.531  0.00  0.00     0.001 A 
HETATM   45  C   UNK N   1      32.294  13.742   5.174  0.00  0.00     0.000 A 
HETATM   46  C   UNK N   1      33.292  14.019   4.235  0.00  0.00     0.001 A 
HETATM   47  C   UNK N   1      34.613  14.190   4.652  0.00  0.00     0.008 A 
ENDBRANCH  41  42
ENDBRANCH  38  41
ENDBRANCH  37  38
ENDBRANCH  36  37
ENDBRANCH  27  36
ENDBRANCH   2  27
TORSDOF 18
ENDMDL
MODEL 5
REMARK VINA RESULT:      -7.1      2.121      7.361
REMARK  18 active torsions:
REMARK  status: ('A' for Active; 'I' for Inactive)
REMARK    1  A    between atoms: C_22  and  C_21 
REMARK    2  A    between atoms: C_28  and  C_21 
REMARK    3  A    between atoms: C_32  and  C_22 
REMARK    4  A    between atoms: C_24  and  C_23 
REMARK    5  A    between atoms: C_32  and  C_23 
REMARK    6  A    between atoms: S_45  and  C_24 
REMARK    7  A    between atoms: C_29  and  C_25 
REMARK    8  A    between atoms: C_33  and  C_25 
REMARK    9  A    between atoms: C_30  and  C_26 
REMARK   10  A    between atoms: O_44  and  C_26 
REMARK   11  A    between atoms: C_31  and  C_27 
REMARK   12  A    between atoms: S_45  and  C_27 
REMARK   13  A    between atoms: C_32  and  N_36 
REMARK   14  A    between atoms: C_34  and  C_33 
REMARK   15  A    between atoms: C_33  and  N_38 
REMARK   16  A    between atoms: C_34  and  O_40 
REMARK   17  A    between atoms: C_35  and  O_41 
REMARK   18  A    between atoms: O_44  and  C_35 
ROOT
HETATM    1  C   UNK N   1      37.262  14.417  10.392  0.00  0.00     0.135 C 
HETATM    2  N   UNK N   1      37.329  14.110  11.649  0.00  0.00    -0.368 N 
ATOM      3  HN  UNK N   1      38.246  14.302  12.055  1.00  0.00     0.161 HD
ENDROOT
BRANCH   1   4
HETATM    4  C   UNK N   1      36.084  14.272   9.423  0.00  0.00     0.164 C 
BRANCH   4   5
HETATM    5  C   UNK N   1      36.127  13.490   8.094  0.00  0.00     0.072 C 
BRANCH   5   6
HETATM    6  C   UNK N   1      35.065  12.434   8.114  0.00  0.00    -0.056 A 
HETATM    7  C   UNK N   1      35.312  11.218   7.471  0.00  0.00     0.007 A 
HETATM    8  C   UNK N   1      34.407  10.161   7.593  0.00  0.00     0.001 A 
HETATM    9  C   UNK N   1      33.254  10.315   8.368  0.00  0.00     0.000 A 
HETATM   10  C   UNK N   1      32.999  11.532   9.009  0.00  0.00     0.001 A 
HETATM   11  C   UNK N   1      33.908  12.589   8.891  0.00  0.00     0.007 A 
ENDBRANCH   5   6
ENDBRANCH   4   5
BRANCH   4  12
HETATM   12  N   UNK N   1      35.640  15.627   9.211  0.00  0.00    -0.338 N 
HETATM   13  C   UNK N   1      34.645  16.139   9.840  0.00  0.00     0.259 C 
ATOM     14  HN  UNK N   1      36.137  16.203   8.532  1.00  0.00     0.164 HD
BRANCH  13  15
HETATM   15  O   UNK N   1      34.096  15.514  10.900  0.00  0.00    -0.327 OA
HETATM   16  H   UNK N   1      33.607  15.407  11.693  0.00  0.00     0.221 HD
ENDBRANCH  13  15
BRANCH  13  17
HETATM   17  O   UNK N   1      34.088  17.278   9.436  0.00  0.00    -0.312 OA
BRANCH  17  18
HETATM   18  C   UNK N   1      34.433  17.953   8.296  0.00  0.00     0.218 C 
BRANCH  18  19
HETATM   19  C   UNK N   1      33.421  17.491   7.352  0.00  0.00    -0.034 A 
HETATM   20  C   UNK N   1      33.743  17.464   5.994  0.00  0.00     0.009 A 
HETATM   21  C   UNK N   1      32.738  17.303   5.046  0.00  0.00     0.001 A 
HETATM   22  C   UNK N   1      31.405  17.204   5.457  0.00  0.00     0.000 A 
HETATM   23  C   UNK N   1      31.083  17.249   6.818  0.00  0.00     0.001 A 
HETATM   24  C   UNK N   1      32.092  17.410   7.767  0.00  0.00     0.009 A 
ENDBRANCH  18  19
ENDBRANCH  17  18
ENDBRANCH  13  17
ENDBRANCH   4  12
ENDBRANCH   1   4
BRANCH   1  25
HETATM   25  O   UNK N   1      38.386  14.913   9.836  0.00  0.00    -0.348 OA
HETATM   26  H   UNK N   1      38.910  15.419   9.248  0.00  0.00     0.219 HD
ENDBRANCH   1  25
BRANCH   2  27
HETATM   27  C   UNK N   1      36.398  13.554  12.609  0.00  0.00     0.084 C 
BRANCH  27  28
HETATM   28  C   UNK N   1      36.358  12.028  12.649  0.00  0.00     0.029 C 
BRANCH  28  29
HETATM   29  C   UNK N   1      34.987  11.476  12.206  0.00  0.00     0.040 C 
BRANCH  29  30
HETATM   30  C   UNK N   1      35.081  10.130  11.564  0.00  0.00    -0.058 A 
HETATM   31  C   UNK N   1      34.047   9.189  11.682  0.00  0.00     0.007 A 
HETATM   32  C   UNK N   1      34.191   7.909  11.149  0.00  0.00     0.001 A 
HETATM   33  C   UNK N   1      35.362   7.572  10.469  0.00  0.00     0.000 A 
HETATM   34  C   UNK N   1      36.376   8.522  10.307  0.00  0.00     0.001 A 
HETATM   35  C   UNK N   1      36.236   9.798  10.859  0.00  0.00     0.007 A 
ENDBRANCH  29  30
ENDBRANCH  28  29
ENDBRANCH  27  28
BRANCH  27  36
HETATM   36  C   UNK N   1      36.237  14.352  13.910  0.00  0.00     0.040 C 
BRANCH  36  37
HETATM   37  C   UNK N   1      36.727  13.705  15.196  0.00  0.00     0.142 C 
BRANCH  37  38
HETATM   38  S   UNK N   1      35.501  12.748  16.166  0.00  0.00     0.148 S 
HETATM   39  O   UNK N   1      34.154  12.671  15.429  0.00  0.00    -0.228 OA
HETATM   40  O   UNK N   1      35.048  13.664  17.312  0.00  0.00    -0.228 OA
BRANCH  38  41
HETATM   41  C   UNK N   1      35.832  11.143  16.951  0.00  0.00     0.178 C 
BRANCH  41  42
HETATM   42  C   UNK N   1      36.247  10.137  15.941  0.00  0.00    -0.044 A 
HETATM   43  C   UNK N   1      37.540  10.184  15.412  0.00  0.00     0.008 A 
HETATM   44  C   UNK N   1      37.946   9.227  14.478  0.00  0.00     0.001 A 
HETATM   45  C   UNK N   1      37.059   8.221  14.078  0.00  0.00     0.000 A 
HETATM   46  C   UNK N   1      35.766   8.175  14.606  0.00  0.00     0.001 A 
HETATM   47  C   UNK N   1      35.359   9.135  15.533  0.00  0.00     0.008 A 
ENDBRANCH  41  42
ENDBRANCH  38  41
ENDBRANCH  37  38
ENDBRANCH  36  37
ENDBRANCH  27  36
ENDBRANCH   2  27
TORSDOF 18
ENDMDL
MODEL 6
REMARK VINA RESULT:      -7.1      3.459      7.149
REMARK  18 active torsions:
REMARK  status: ('A' for Active; 'I' for Inactive)
REMARK    1  A    between atoms: C_22  and  C_21 
REMARK    2  A    between atoms: C_28  and  C_21 
REMARK    3  A    between atoms: C_32  and  C_22 
REMARK    4  A    between atoms: C_24  and  C_23 
REMARK    5  A    between atoms: C_32  and  C_23 
REMARK    6  A    between atoms: S_45  and  C_24 
REMARK    7  A    between atoms: C_29  and  C_25 
REMARK    8  A    between atoms: C_33  and  C_25 
REMARK    9  A    between atoms: C_30  and  C_26 
REMARK   10  A    between atoms: O_44  and  C_26 
REMARK   11  A    between atoms: C_31  and  C_27 
REMARK   12  A    between atoms: S_45  and  C_27 
REMARK   13  A    between atoms: C_32  and  N_36 
REMARK   14  A    between atoms: C_34  and  C_33 
REMARK   15  A    between atoms: C_33  and  N_38 
REMARK   16  A    between atoms: C_34  and  O_40 
REMARK   17  A    between atoms: C_35  and  O_41 
REMARK   18  A    between atoms: O_44  and  C_35 
ROOT
HETATM    1  C   UNK N   1      34.569  17.094   9.465  0.00  0.00     0.135 C 
HETATM    2  N   UNK N   1      33.813  17.977   8.894  0.00  0.00    -0.368 N 
ATOM      3  HN  UNK N   1      34.115  18.934   9.077  1.00  0.00     0.161 HD
ENDROOT
BRANCH   1   4
HETATM    4  C   UNK N   1      34.454  15.566   9.451  0.00  0.00     0.164 C 
BRANCH   4   5
HETATM    5  C   UNK N   1      33.503  14.762   8.540  0.00  0.00     0.072 C 
BRANCH   5   6
HETATM    6  C   UNK N   1      34.287  14.191   7.398  0.00  0.00    -0.056 A 
HETATM    7  C   UNK N   1      33.862  12.990   6.824  0.00  0.00     0.007 A 
HETATM    8  C   UNK N   1      34.479  12.506   5.668  0.00  0.00     0.001 A 
HETATM    9  C   UNK N   1      35.520  13.229   5.077  0.00  0.00     0.000 A 
HETATM   10  C   UNK N   1      35.951  14.429   5.651  0.00  0.00     0.001 A 
HETATM   11  C   UNK N   1      35.331  14.917   6.806  0.00  0.00     0.007 A 
ENDBRANCH   5   6
ENDBRANCH   4   5
BRANCH   4  12
HETATM   12  N   UNK N   1      34.258  15.218  10.837  0.00  0.00    -0.338 N 
HETATM   13  C   UNK N   1      35.190  14.722  11.567  0.00  0.00     0.259 C 
ATOM     14  HN  UNK N   1      33.341  15.374  11.254  1.00  0.00     0.164 HD
BRANCH  13  15
HETATM   15  O   UNK N   1      36.470  14.704  11.145  0.00  0.00    -0.327 OA
HETATM   16  H   UNK N   1      37.290  14.350  10.861  0.00  0.00     0.221 HD
ENDBRANCH  13  15
BRANCH  13  17
HETATM   17  O   UNK N   1      34.917  14.161  12.742  0.00  0.00    -0.312 OA
BRANCH  17  18
HETATM   18  C   UNK N   1      35.370  12.933  13.143  0.00  0.00     0.218 C 
BRANCH  18  19
HETATM   19  C   UNK N   1      35.675  13.166  14.551  0.00  0.00    -0.034 A 
HETATM   20  C   UNK N   1      34.764  12.718  15.510  0.00  0.00     0.009 A 
HETATM   21  C   UNK N   1      34.870  13.158  16.825  0.00  0.00     0.001 A 
HETATM   22  C   UNK N   1      35.867  14.074  17.172  0.00  0.00     0.000 A 
HETATM   23  C   UNK N   1      36.767  14.536  16.205  0.00  0.00     0.001 A 
HETATM   24  C   UNK N   1      36.660  14.094  14.888  0.00  0.00     0.009 A 
ENDBRANCH  18  19
ENDBRANCH  17  18
ENDBRANCH  13  17
ENDBRANCH   4  12
ENDBRANCH   1   4
BRANCH   1  25
HETATM   25  O   UNK N   1      35.594  17.570  10.201  0.00  0.00    -0.348 OA
HETATM   26  H   UNK N   1      36.137  17.689  10.955  0.00  0.00     0.219 HD
ENDBRANCH   1  25
BRANCH   2  27
HETATM   27  C   UNK N   1      32.635  17.912   8.054  0.00  0.00     0.084 C 
BRANCH  27  28
HETATM   28  C   UNK N   1      32.909  17.543   6.598  0.00  0.00     0.029 C 
BRANCH  28  29
HETATM   29  C   UNK N   1      31.716  16.805   5.956  0.00  0.00     0.040 C 
BRANCH  29  30
HETATM   30  C   UNK N   1      32.114  15.955   4.794  0.00  0.00    -0.058 A 
HETATM   31  C   UNK N   1      31.477  14.733   4.529  0.00  0.00     0.007 A 
HETATM   32  C   UNK N   1      31.920  13.914   3.492  0.00  0.00     0.001 A 
HETATM   33  C   UNK N   1      32.989  14.327   2.695  0.00  0.00     0.000 A 
HETATM   34  C   UNK N   1      33.596  15.566   2.925  0.00  0.00     0.001 A 
HETATM   35  C   UNK N   1      33.161  16.376   3.977  0.00  0.00     0.007 A 
ENDBRANCH  29  30
ENDBRANCH  28  29
ENDBRANCH  27  28
BRANCH  27  36
HETATM   36  C   UNK N   1      31.363  17.397   8.741  0.00  0.00     0.040 C 
BRANCH  36  37
HETATM   37  C   UNK N   1      30.259  18.404   9.022  0.00  0.00     0.142 C 
BRANCH  37  38
HETATM   38  S   UNK N   1      28.602  18.038   8.330  0.00  0.00     0.148 S 
HETATM   39  O   UNK N   1      27.753  19.316   8.226  0.00  0.00    -0.228 OA
HETATM   40  O   UNK N   1      27.805  17.361   9.453  0.00  0.00    -0.228 OA
BRANCH  38  41
HETATM   41  C   UNK N   1      28.302  17.014   6.858  0.00  0.00     0.178 C 
BRANCH  41  42
HETATM   42  C   UNK N   1      27.669  17.813   5.779  0.00  0.00    -0.044 A 
HETATM   43  C   UNK N   1      26.350  17.545   5.404  0.00  0.00     0.008 A 
HETATM   44  C   UNK N   1      25.740  18.308   4.404  0.00  0.00     0.001 A 
HETATM   45  C   UNK N   1      26.449  19.342   3.784  0.00  0.00     0.000 A 
HETATM   46  C   UNK N   1      27.769  19.610   4.158  0.00  0.00     0.001 A 
HETATM   47  C   UNK N   1      28.381  18.843   5.151  0.00  0.00     0.008 A 
ENDBRANCH  41  42
ENDBRANCH  38  41
ENDBRANCH  37  38
ENDBRANCH  36  37
ENDBRANCH  27  36
ENDBRANCH   2  27
TORSDOF 18
ENDMDL
MODEL 7
REMARK VINA RESULT:      -7.0      2.321      7.483
REMARK  18 active torsions:
REMARK  status: ('A' for Active; 'I' for Inactive)
REMARK    1  A    between atoms: C_22  and  C_21 
REMARK    2  A    between atoms: C_28  and  C_21 
REMARK    3  A    between atoms: C_32  and  C_22 
REMARK    4  A    between atoms: C_24  and  C_23 
REMARK    5  A    between atoms: C_32  and  C_23 
REMARK    6  A    between atoms: S_45  and  C_24 
REMARK    7  A    between atoms: C_29  and  C_25 
REMARK    8  A    between atoms: C_33  and  C_25 
REMARK    9  A    between atoms: C_30  and  C_26 
REMARK   10  A    between atoms: O_44  and  C_26 
REMARK   11  A    between atoms: C_31  and  C_27 
REMARK   12  A    between atoms: S_45  and  C_27 
REMARK   13  A    between atoms: C_32  and  N_36 
REMARK   14  A    between atoms: C_34  and  C_33 
REMARK   15  A    between atoms: C_33  and  N_38 
REMARK   16  A    between atoms: C_34  and  O_40 
REMARK   17  A    between atoms: C_35  and  O_41 
REMARK   18  A    between atoms: O_44  and  C_35 
ROOT
HETATM    1  C   UNK N   1      35.583  16.092  11.061  0.00  0.00     0.135 C 
HETATM    2  N   UNK N   1      36.327  15.633  12.017  0.00  0.00    -0.368 N 
ATOM      3  HN  UNK N   1      37.134  16.227  12.210  1.00  0.00     0.161 HD
ENDROOT
BRANCH   1   4
HETATM    4  C   UNK N   1      34.302  15.501  10.463  0.00  0.00     0.164 C 
BRANCH   4   5
HETATM    5  C   UNK N   1      34.103  14.016  10.097  0.00  0.00     0.072 C 
BRANCH   5   6
HETATM    6  C   UNK N   1      34.887  13.707   8.858  0.00  0.00    -0.056 A 
HETATM    7  C   UNK N   1      36.219  14.124   8.782  0.00  0.00     0.007 A 
HETATM    8  C   UNK N   1      37.019  13.728   7.708  0.00  0.00     0.001 A 
HETATM    9  C   UNK N   1      36.490  12.905   6.709  0.00  0.00     0.000 A 
HETATM   10  C   UNK N   1      35.156  12.490   6.778  0.00  0.00     0.001 A 
HETATM   11  C   UNK N   1      34.355  12.882   7.856  0.00  0.00     0.007 A 
ENDBRANCH   5   6
ENDBRANCH   4   5
BRANCH   4  12
HETATM   12  N   UNK N   1      34.019  16.353   9.335  0.00  0.00    -0.338 N 
HETATM   13  C   UNK N   1      32.844  16.474   8.832  0.00  0.00     0.259 C 
ATOM     14  HN  UNK N   1      34.785  16.883   8.920  1.00  0.00     0.164 HD
BRANCH  13  15
HETATM   15  O   UNK N   1      31.762  15.983   9.468  0.00  0.00    -0.327 OA
HETATM   16  H   UNK N   1      30.951  15.986   9.938  0.00  0.00     0.221 HD
ENDBRANCH  13  15
BRANCH  13  17
HETATM   17  O   UNK N   1      32.660  17.039   7.642  0.00  0.00    -0.312 OA
BRANCH  17  18
HETATM   18  C   UNK N   1      33.581  17.824   7.001  0.00  0.00     0.218 C 
BRANCH  18  19
HETATM   19  C   UNK N   1      33.678  17.175   5.698  0.00  0.00    -0.034 A 
HETATM   20  C   UNK N   1      32.869  17.646   4.661  0.00  0.00     0.009 A 
HETATM   21  C   UNK N   1      32.723  16.893   3.500  0.00  0.00     0.001 A 
HETATM   22  C   UNK N   1      33.359  15.652   3.393  0.00  0.00     0.000 A 
HETATM   23  C   UNK N   1      34.154  15.175   4.441  0.00  0.00     0.001 A 
HETATM   24  C   UNK N   1      34.300  15.931   5.603  0.00  0.00     0.009 A 
ENDBRANCH  18  19
ENDBRANCH  17  18
ENDBRANCH  13  17
ENDBRANCH   4  12
ENDBRANCH   1   4
BRANCH   1  25
HETATM   25  O   UNK N   1      35.993  17.239  10.483  0.00  0.00    -0.348 OA
HETATM   26  H   UNK N   1      36.261  17.813   9.793  0.00  0.00     0.219 HD
ENDBRANCH   1  25
BRANCH   2  27
HETATM   27  C   UNK N   1      36.272  14.466  12.874  0.00  0.00     0.084 C 
BRANCH  27  28
HETATM   28  C   UNK N   1      36.919  13.214  12.288  0.00  0.00     0.029 C 
BRANCH  28  29
HETATM   29  C   UNK N   1      35.938  12.024  12.244  0.00  0.00     0.040 C 
BRANCH  29  30
HETATM   30  C   UNK N   1      36.112  11.168  11.032  0.00  0.00    -0.058 A 
HETATM   31  C   UNK N   1      35.062  10.384  10.532  0.00  0.00     0.007 A 
HETATM   32  C   UNK N   1      35.270   9.527   9.453  0.00  0.00     0.001 A 
HETATM   33  C   UNK N   1      36.527   9.471   8.849  0.00  0.00     0.000 A 
HETATM   34  C   UNK N   1      37.564  10.286   9.313  0.00  0.00     0.001 A 
HETATM   35  C   UNK N   1      37.358  11.130  10.407  0.00  0.00     0.007 A 
ENDBRANCH  29  30
ENDBRANCH  28  29
ENDBRANCH  27  28
BRANCH  27  36
HETATM   36  C   UNK N   1      36.386  14.746  14.378  0.00  0.00     0.040 C 
BRANCH  36  37
HETATM   37  C   UNK N   1      36.874  13.614  15.269  0.00  0.00     0.142 C 
BRANCH  37  38
HETATM   38  S   UNK N   1      35.593  12.565  16.057  0.00  0.00     0.148 S 
HETATM   39  O   UNK N   1      34.247  12.694  15.323  0.00  0.00    -0.228 OA
HETATM   40  O   UNK N   1      35.183  13.283  17.350  0.00  0.00    -0.228 OA
BRANCH  38  41
HETATM   41  C   UNK N   1      35.834  10.830  16.540  0.00  0.00     0.178 C 
BRANCH  41  42
HETATM   42  C   UNK N   1      36.281  10.016  15.381  0.00  0.00    -0.044 A 
HETATM   43  C   UNK N   1      35.361   9.203  14.713  0.00  0.00     0.008 A 
HETATM   44  C   UNK N   1      35.769   8.452  13.609  0.00  0.00     0.001 A 
HETATM   45  C   UNK N   1      37.095   8.519  13.168  0.00  0.00     0.000 A 
HETATM   46  C   UNK N   1      38.015   9.331  13.837  0.00  0.00     0.001 A 
HETATM   47  C   UNK N   1      37.610  10.076  14.945  0.00  0.00     0.008 A 
ENDBRANCH  41  42
ENDBRANCH  38  41
ENDBRANCH  37  38
ENDBRANCH  36  37
ENDBRANCH  27  36
ENDBRANCH   2  27
TORSDOF 18
ENDMDL
MODEL 8
REMARK VINA RESULT:      -6.9     16.888     21.619
REMARK  18 active torsions:
REMARK  status: ('A' for Active; 'I' for Inactive)
REMARK    1  A    between atoms: C_22  and  C_21 
REMARK    2  A    between atoms: C_28  and  C_21 
REMARK    3  A    between atoms: C_32  and  C_22 
REMARK    4  A    between atoms: C_24  and  C_23 
REMARK    5  A    between atoms: C_32  and  C_23 
REMARK    6  A    between atoms: S_45  and  C_24 
REMARK    7  A    between atoms: C_29  and  C_25 
REMARK    8  A    between atoms: C_33  and  C_25 
REMARK    9  A    between atoms: C_30  and  C_26 
REMARK   10  A    between atoms: O_44  and  C_26 
REMARK   11  A    between atoms: C_31  and  C_27 
REMARK   12  A    between atoms: S_45  and  C_27 
REMARK   13  A    between atoms: C_32  and  N_36 
REMARK   14  A    between atoms: C_34  and  C_33 
REMARK   15  A    between atoms: C_33  and  N_38 
REMARK   16  A    between atoms: C_34  and  O_40 
REMARK   17  A    between atoms: C_35  and  O_41 
REMARK   18  A    between atoms: O_44  and  C_35 
ROOT
HETATM    1  C   UNK N   1      27.302  24.157  -3.528  0.00  0.00     0.135 C 
HETATM    2  N   UNK N   1      26.210  24.055  -4.218  0.00  0.00    -0.368 N 
ATOM      3  HN  UNK N   1      25.386  23.905  -3.634  1.00  0.00     0.161 HD
ENDROOT
BRANCH   1   4
HETATM    4  C   UNK N   1      28.738  24.371  -4.016  0.00  0.00     0.164 C 
BRANCH   4   5
HETATM    5  C   UNK N   1      29.125  25.035  -5.354  0.00  0.00     0.072 C 
BRANCH   5   6
HETATM    6  C   UNK N   1      29.778  26.354  -5.075  0.00  0.00    -0.056 A 
HETATM    7  C   UNK N   1      29.780  26.840  -3.765  0.00  0.00     0.007 A 
HETATM    8  C   UNK N   1      30.504  27.991  -3.443  0.00  0.00     0.001 A 
HETATM    9  C   UNK N   1      31.236  28.654  -4.431  0.00  0.00     0.000 A 
HETATM   10  C   UNK N   1      31.234  28.174  -5.745  0.00  0.00     0.001 A 
HETATM   11  C   UNK N   1      30.512  27.019  -6.067  0.00  0.00     0.007 A 
ENDBRANCH   5   6
ENDBRANCH   4   5
BRANCH   4  12
HETATM   12  N   UNK N   1      29.347  23.070  -3.890  0.00  0.00    -0.338 N 
HETATM   13  C   UNK N   1      30.197  22.786  -2.972  0.00  0.00     0.259 C 
ATOM     14  HN  UNK N   1      29.090  22.344  -4.559  1.00  0.00     0.164 HD
BRANCH  13  15
HETATM   15  O   UNK N   1      30.404  23.620  -1.933  0.00  0.00    -0.327 OA
HETATM   16  H   UNK N   1      30.748  23.930  -1.118  0.00  0.00     0.221 HD
ENDBRANCH  13  15
BRANCH  13  17
HETATM   17  O   UNK N   1      30.941  21.685  -3.039  0.00  0.00    -0.312 OA
BRANCH  17  18
HETATM   18  C   UNK N   1      30.856  20.747  -4.033  0.00  0.00     0.218 C 
BRANCH  18  19
HETATM   19  C   UNK N   1      32.261  20.440  -4.280  0.00  0.00    -0.034 A 
HETATM   20  C   UNK N   1      33.209  20.876  -3.352  0.00  0.00     0.009 A 
HETATM   21  C   UNK N   1      34.561  20.853  -3.680  0.00  0.00     0.001 A 
HETATM   22  C   UNK N   1      34.960  20.427  -4.950  0.00  0.00     0.000 A 
HETATM   23  C   UNK N   1      34.006  20.008  -5.885  0.00  0.00     0.001 A 
HETATM   24  C   UNK N   1      32.652  20.031  -5.554  0.00  0.00     0.009 A 
ENDBRANCH  18  19
ENDBRANCH  17  18
ENDBRANCH  13  17
ENDBRANCH   4  12
ENDBRANCH   1   4
BRANCH   1  25
HETATM   25  O   UNK N   1      27.179  24.037  -2.191  0.00  0.00    -0.348 OA
HETATM   26  H   UNK N   1      27.161  23.608  -1.358  0.00  0.00     0.219 HD
ENDBRANCH   1  25
BRANCH   2  27
HETATM   27  C   UNK N   1      25.894  24.105  -5.630  0.00  0.00     0.084 C 
BRANCH  27  28
HETATM   28  C   UNK N   1      26.022  25.488  -6.263  0.00  0.00     0.029 C 
BRANCH  28  29
HETATM   29  C   UNK N   1      25.189  26.547  -5.511  0.00  0.00     0.040 C 
BRANCH  29  30
HETATM   30  C   UNK N   1      25.976  27.767  -5.161  0.00  0.00    -0.058 A 
HETATM   31  C   UNK N   1      26.914  28.313  -6.050  0.00  0.00     0.007 A 
HETATM   32  C   UNK N   1      27.700  29.400  -5.671  0.00  0.00     0.001 A 
HETATM   33  C   UNK N   1      27.531  29.965  -4.406  0.00  0.00     0.000 A 
HETATM   34  C   UNK N   1      26.565  29.454  -3.533  0.00  0.00     0.001 A 
HETATM   35  C   UNK N   1      25.792  28.353  -3.910  0.00  0.00     0.007 A 
ENDBRANCH  29  30
ENDBRANCH  28  29
ENDBRANCH  27  28
BRANCH  27  36
HETATM   36  C   UNK N   1      26.287  22.861  -6.439  0.00  0.00     0.040 C 
BRANCH  36  37
HETATM   37  C   UNK N   1      27.012  23.080  -7.757  0.00  0.00     0.142 C 
BRANCH  37  38
HETATM   38  S   UNK N   1      25.972  23.334  -9.246  0.00  0.00     0.148 S 
HETATM   39  O   UNK N   1      24.516  23.638  -8.856  0.00  0.00    -0.228 OA
HETATM   40  O   UNK N   1      25.731  21.942  -9.846  0.00  0.00    -0.228 OA
BRANCH  38  41
HETATM   41  C   UNK N   1      26.431  24.381 -10.659  0.00  0.00     0.178 C 
BRANCH  41  42
HETATM   42  C   UNK N   1      27.536  25.304 -10.295  0.00  0.00    -0.044 A 
HETATM   43  C   UNK N   1      27.249  26.483  -9.601  0.00  0.00     0.008 A 
HETATM   44  C   UNK N   1      28.286  27.346  -9.236  0.00  0.00     0.001 A 
HETATM   45  C   UNK N   1      29.609  27.026  -9.560  0.00  0.00     0.000 A 
HETATM   46  C   UNK N   1      29.895  25.848 -10.255  0.00  0.00     0.001 A 
HETATM   47  C   UNK N   1      28.859  24.989 -10.626  0.00  0.00     0.008 A 
ENDBRANCH  41  42
ENDBRANCH  38  41
ENDBRANCH  37  38
ENDBRANCH  36  37
ENDBRANCH  27  36
ENDBRANCH   2  27
TORSDOF 18
ENDMDL
MODEL 9
REMARK VINA RESULT:      -6.9      4.799      8.760
REMARK  18 active torsions:
REMARK  status: ('A' for Active; 'I' for Inactive)
REMARK    1  A    between atoms: C_22  and  C_21 
REMARK    2  A    between atoms: C_28  and  C_21 
REMARK    3  A    between atoms: C_32  and  C_22 
REMARK    4  A    between atoms: C_24  and  C_23 
REMARK    5  A    between atoms: C_32  and  C_23 
REMARK    6  A    between atoms: S_45  and  C_24 
REMARK    7  A    between atoms: C_29  and  C_25 
REMARK    8  A    between atoms: C_33  and  C_25 
REMARK    9  A    between atoms: C_30  and  C_26 
REMARK   10  A    between atoms: O_44  and  C_26 
REMARK   11  A    between atoms: C_31  and  C_27 
REMARK   12  A    between atoms: S_45  and  C_27 
REMARK   13  A    between atoms: C_32  and  N_36 
REMARK   14  A    between atoms: C_34  and  C_33 
REMARK   15  A    between atoms: C_33  and  N_38 
REMARK   16  A    between atoms: C_34  and  O_40 
REMARK   17  A    between atoms: C_35  and  O_41 
REMARK   18  A    between atoms: O_44  and  C_35 
ROOT
HETATM    1  C   UNK N   1      30.983  16.470   8.889  0.00  0.00     0.135 C 
HETATM    2  N   UNK N   1      29.873  17.039   8.537  0.00  0.00    -0.368 N 
ATOM      3  HN  UNK N   1      29.188  17.071   9.293  1.00  0.00     0.161 HD
ENDROOT
BRANCH   1   4
HETATM    4  C   UNK N   1      32.244  16.211   8.057  0.00  0.00     0.164 C 
BRANCH   4   5
HETATM    5  C   UNK N   1      32.408  15.064   7.039  0.00  0.00     0.072 C 
BRANCH   5   6
HETATM    6  C   UNK N   1      32.467  15.641   5.657  0.00  0.00    -0.056 A 
HETATM    7  C   UNK N   1      32.460  17.031   5.508  0.00  0.00     0.007 A 
HETATM    8  C   UNK N   1      32.660  17.603   4.249  0.00  0.00     0.001 A 
HETATM    9  C   UNK N   1      32.879  16.786   3.137  0.00  0.00     0.000 A 
HETATM   10  C   UNK N   1      32.882  15.395   3.281  0.00  0.00     0.001 A 
HETATM   11  C   UNK N   1      32.685  14.820   4.542  0.00  0.00     0.007 A 
ENDBRANCH   5   6
ENDBRANCH   4   5
BRANCH   4  12
HETATM   12  N   UNK N   1      33.306  16.192   9.032  0.00  0.00    -0.338 N 
HETATM   13  C   UNK N   1      34.292  17.013   9.001  0.00  0.00     0.259 C 
ATOM     14  HN  UNK N   1      33.272  15.498   9.777  1.00  0.00     0.164 HD
BRANCH  13  15
HETATM   15  O   UNK N   1      34.278  18.087   8.186  0.00  0.00    -0.327 OA
HETATM   16  H   UNK N   1      34.324  18.987   7.929  0.00  0.00     0.221 HD
ENDBRANCH  13  15
BRANCH  13  17
HETATM   17  O   UNK N   1      35.383  16.805   9.732  0.00  0.00    -0.312 OA
BRANCH  17  18
HETATM   18  C   UNK N   1      35.385  16.566  11.080  0.00  0.00     0.218 C 
BRANCH  18  19
HETATM   19  C   UNK N   1      35.953  15.224  11.150  0.00  0.00    -0.034 A 
HETATM   20  C   UNK N   1      35.841  14.517  12.349  0.00  0.00     0.009 A 
HETATM   21  C   UNK N   1      36.600  13.368  12.550  0.00  0.00     0.001 A 
HETATM   22  C   UNK N   1      37.495  12.947  11.563  0.00  0.00     0.000 A 
HETATM   23  C   UNK N   1      37.619  13.667  10.369  0.00  0.00     0.001 A 
HETATM   24  C   UNK N   1      36.858  14.818  10.170  0.00  0.00     0.009 A 
ENDBRANCH  18  19
ENDBRANCH  17  18
ENDBRANCH  13  17
ENDBRANCH   4  12
ENDBRANCH   1   4
BRANCH   1  25
HETATM   25  O   UNK N   1      31.045  16.013  10.156  0.00  0.00    -0.348 OA
HETATM   26  H   UNK N   1      30.735  15.653  10.963  0.00  0.00     0.219 HD
ENDBRANCH   1  25
BRANCH   2  27
HETATM   27  C   UNK N   1      29.385  17.638   7.312  0.00  0.00     0.084 C 
BRANCH  27  28
HETATM   28  C   UNK N   1      28.604  16.691   6.405  0.00  0.00     0.029 C 
BRANCH  28  29
HETATM   29  C   UNK N   1      28.997  16.857   4.923  0.00  0.00     0.040 C 
BRANCH  29  30
HETATM   30  C   UNK N   1      29.116  15.553   4.202  0.00  0.00    -0.058 A 
HETATM   31  C   UNK N   1      29.296  15.500   2.811  0.00  0.00     0.007 A 
HETATM   32  C   UNK N   1      29.317  14.276   2.147  0.00  0.00     0.001 A 
HETATM   33  C   UNK N   1      29.185  13.093   2.876  0.00  0.00     0.000 A 
HETATM   34  C   UNK N   1      29.053  13.139   4.267  0.00  0.00     0.001 A 
HETATM   35  C   UNK N   1      29.013  14.368   4.928  0.00  0.00     0.007 A 
ENDBRANCH  29  30
ENDBRANCH  28  29
ENDBRANCH  27  28
BRANCH  27  36
HETATM   36  C   UNK N   1      28.957  19.108   7.422  0.00  0.00     0.040 C 
BRANCH  36  37
HETATM   37  C   UNK N   1      27.473  19.418   7.305  0.00  0.00     0.142 C 
BRANCH  37  38
HETATM   38  S   UNK N   1      26.886  20.076   5.698  0.00  0.00     0.148 S 
HETATM   39  O   UNK N   1      28.030  20.128   4.672  0.00  0.00    -0.228 OA
HETATM   40  O   UNK N   1      26.719  21.590   5.886  0.00  0.00    -0.228 OA
BRANCH  38  41
HETATM   41  C   UNK N   1      25.368  19.538   4.855  0.00  0.00     0.178 C 
BRANCH  41  42
HETATM   42  C   UNK N   1      25.456  18.106   4.472  0.00  0.00    -0.044 A 
HETATM   43  C   UNK N   1      25.164  17.119   5.417  0.00  0.00     0.008 A 
HETATM   44  C   UNK N   1      25.223  15.771   5.057  0.00  0.00     0.001 A 
HETATM   45  C   UNK N   1      25.568  15.410   3.750  0.00  0.00     0.000 A 
HETATM   46  C   UNK N   1      25.862  16.397   2.805  0.00  0.00     0.001 A 
HETATM   47  C   UNK N   1      25.810  17.744   3.166  0.00  0.00     0.008 A 
ENDBRANCH  41  42
ENDBRANCH  38  41
ENDBRANCH  37  38
ENDBRANCH  36  37
ENDBRANCH  27  36
ENDBRANCH   2  27
TORSDOF 18
ENDMDL
