MODEL 1
REMARK VINA RESULT:      -7.6      0.000      0.000
REMARK  11 active torsions:
REMARK  status: ('A' for Active; 'I' for Inactive)
REMARK    1  A    between atoms: C_15  and  C_11 
REMARK    2  A    between atoms: C_21  and  C_11 
REMARK    3  A    between atoms: C_23  and  C_12 
REMARK    4  A    between atoms: C_15  and  C_13 
REMARK    5  A    between atoms: C_16  and  C_14 
REMARK    6  A    between atoms: C_15  and  C_25 
REMARK    7  A    between atoms: C_24  and  C_17 
REMARK    8  A    between atoms: O_38  and  C_20 
REMARK    9  A    between atoms: O_34  and  C_22 
REMARK   10  A    between atoms: N_28  and  C_23 
REMARK   11  A    between atoms: O_37  and  C_25 
ROOT
HETATM    1  C   UNK N   1      28.372  18.359   4.765  0.00  0.00     0.023 A 
HETATM    2  C   UNK N   1      26.480  17.390   5.857  0.00  0.00     0.026 A 
HETATM    3  C   UNK N   1      27.048  18.479   5.227  0.00  0.00    -0.042 A 
HETATM    4  C   UNK N   1      29.115  17.164   4.929  0.00  0.00     0.011 A 
HETATM    5  C   UNK N   1      27.142  16.183   6.014  0.00  0.00     0.043 A 
HETATM    6  C   UNK N   1      28.468  16.054   5.559  0.00  0.00     0.090 A 
ENDROOT
BRANCH   5   7
HETATM    7  C   UNK N   1      26.373  15.097   6.650  0.00  0.00     0.119 A 
HETATM    8  N   UNK N   1      25.850  14.013   6.019  0.00  0.00    -0.340 N 
HETATM    9  C   UNK N   1      25.215  13.349   7.003  0.00  0.00     0.060 A 
ATOM     10  HN  UNK N   1      25.922  13.762   5.032  1.00  0.00     0.167 HD
HETATM   11  C   UNK N   1      24.492  12.164   6.927  0.00  0.00     0.033 A 
HETATM   12  C   UNK N   1      25.359  14.024   8.173  0.00  0.00     0.061 A 
HETATM   13  C   UNK N   1      23.906  11.684   8.119  0.00  0.00     0.017 A 
HETATM   14  C   UNK N   1      24.056  12.396   9.342  0.00  0.00     0.009 A 
HETATM   15  C   UNK N   1      24.801  13.589   9.363  0.00  0.00     0.047 A 
HETATM   16  N   UNK N   1      26.083  15.122   7.977  0.00  0.00    -0.340 N 
HETATM   17  H   UNK N   1      26.348  15.798   8.642  0.00  0.00     0.167 HD
BRANCH  14  18
HETATM   18  C   UNK N   1      23.438  11.908  10.592  0.00  0.00     0.102 C 
HETATM   19  N   UNK N   1      22.302  11.315  10.567  0.00  0.00    -0.385 N 
HETATM   20  H   UNK N   1      21.867  11.041  11.407  0.00  0.00     0.157 HD
ATOM     21  HN  UNK N   1      21.847  11.125   9.674  1.00  0.00     0.157 HD
BRANCH  18  22
HETATM   22  N   UNK N   1      24.091  12.106  11.832  0.00  0.00    -0.385 N 
HETATM   23  H   UNK N   1      24.863  12.714  11.891  0.00  0.00     0.157 HD
HETATM   24  H   UNK N   1      23.773  11.635  12.636  0.00  0.00     0.157 HD
ENDBRANCH  18  22
ENDBRANCH  14  18
ENDBRANCH   5   7
BRANCH   6  25
HETATM   25  O   UNK N   1      29.103  14.881   5.727  0.00  0.00    -0.359 OA
ATOM     26  HO  UNK N   1      30.014  14.773   5.477  1.00  0.00     0.217 HD
ENDBRANCH   6  25
BRANCH   3  27
HETATM   27  C   UNK N   1      26.202  19.751   5.129  0.00  0.00     0.126 C 
BRANCH  27  28
HETATM   28  C   UNK N   1      26.315  20.410   3.736  0.00  0.00     0.133 C 
BRANCH  28  29
HETATM   29  C   UNK N   1      25.011  20.521   2.985  0.00  0.00     0.173 C 
HETATM   30  O   UNK N   1      25.025  20.750   1.786  0.00  0.00    -0.648 OA
HETATM   31  O   UNK N   1      23.834  20.305   3.601  0.00  0.00    -0.648 OA
ENDBRANCH  28  29
ENDBRANCH  27  28
BRANCH  27  32
HETATM   32  C   UNK N   1      26.476  20.841   6.146  0.00  0.00     0.148 C 
HETATM   33  O   UNK N   1      27.195  21.778   5.833  0.00  0.00    -0.649 OA
BRANCH  32  34
HETATM   34  O   UNK N   1      25.970  20.797   7.392  0.00  0.00    -0.776 OA
HETATM   35  H   UNK N   1      26.414  21.187   8.119  0.00  0.00     0.167 HD
ENDBRANCH  32  34
ENDBRANCH  27  32
ENDBRANCH   3  27
BRANCH   4  36
HETATM   36  C   UNK N   1      30.559  17.097   4.467  0.00  0.00     0.010 A 
HETATM   37  C   UNK N   1      30.835  16.861   3.107  0.00  0.00     0.015 A 
HETATM   38  C   UNK N   1      32.140  16.760   2.626  0.00  0.00     0.001 A 
HETATM   39  C   UNK N   1      33.213  16.895   3.499  0.00  0.00     0.003 A 
HETATM   40  C   UNK N   1      32.979  17.133   4.851  0.00  0.00     0.037 A 
HETATM   41  C   UNK N   1      31.666  17.236   5.355  0.00  0.00     0.079 A 
BRANCH  41  42
HETATM   42  O   UNK N   1      31.469  17.466   6.677  0.00  0.00    -0.355 OA
HETATM   43  C   UNK N   1      31.686  16.519   7.654  0.00  0.00     0.210 C 
ENDBRANCH  41  42
ENDBRANCH   4  36
TORSDOF 11
ENDMDL
MODEL 2
REMARK VINA RESULT:      -7.6      4.579      6.707
REMARK  11 active torsions:
REMARK  status: ('A' for Active; 'I' for Inactive)
REMARK    1  A    between atoms: C_15  and  C_11 
REMARK    2  A    between atoms: C_21  and  C_11 
REMARK    3  A    between atoms: C_23  and  C_12 
REMARK    4  A    between atoms: C_15  and  C_13 
REMARK    5  A    between atoms: C_16  and  C_14 
REMARK    6  A    between atoms: C_15  and  C_25 
REMARK    7  A    between atoms: C_24  and  C_17 
REMARK    8  A    between atoms: O_38  and  C_20 
REMARK    9  A    between atoms: O_34  and  C_22 
REMARK   10  A    between atoms: N_28  and  C_23 
REMARK   11  A    between atoms: O_37  and  C_25 
ROOT
HETATM    1  C   UNK N   1      31.593  16.093   5.774  0.00  0.00     0.023 A 
HETATM    2  C   UNK N   1      29.637  17.426   6.098  0.00  0.00     0.026 A 
HETATM    3  C   UNK N   1      30.771  16.848   6.631  0.00  0.00    -0.042 A 
HETATM    4  C   UNK N   1      31.284  15.922   4.402  0.00  0.00     0.011 A 
HETATM    5  C   UNK N   1      29.301  17.326   4.758  0.00  0.00     0.043 A 
HETATM    6  C   UNK N   1      30.114  16.569   3.893  0.00  0.00     0.090 A 
ENDROOT
BRANCH   5   7
HETATM    7  C   UNK N   1      28.090  18.055   4.333  0.00  0.00     0.119 A 
HETATM    8  N   UNK N   1      28.058  19.301   3.792  0.00  0.00    -0.340 N 
HETATM    9  C   UNK N   1      26.743  19.537   3.618  0.00  0.00     0.060 A 
ATOM     10  HN  UNK N   1      28.844  19.913   3.568  1.00  0.00     0.167 HD
HETATM   11  C   UNK N   1      26.124  20.669   3.103  0.00  0.00     0.033 A 
HETATM   12  C   UNK N   1      26.030  18.464   4.047  0.00  0.00     0.061 A 
HETATM   13  C   UNK N   1      24.712  20.666   3.043  0.00  0.00     0.017 A 
HETATM   14  C   UNK N   1      23.967  19.541   3.497  0.00  0.00     0.009 A 
HETATM   15  C   UNK N   1      24.645  18.420   4.008  0.00  0.00     0.047 A 
HETATM   16  N   UNK N   1      26.852  17.522   4.499  0.00  0.00    -0.340 N 
HETATM   17  H   UNK N   1      26.617  16.640   4.868  0.00  0.00     0.167 HD
BRANCH  14  18
HETATM   18  C   UNK N   1      22.491  19.533   3.449  0.00  0.00     0.102 C 
HETATM   19  N   UNK N   1      21.824  18.653   4.101  0.00  0.00    -0.385 N 
HETATM   20  H   UNK N   1      20.843  18.616   4.023  0.00  0.00     0.157 HD
ATOM     21  HN  UNK N   1      22.311  17.990   4.705  1.00  0.00     0.157 HD
BRANCH  18  22
HETATM   22  N   UNK N   1      21.799  20.491   2.670  0.00  0.00    -0.385 N 
HETATM   23  H   UNK N   1      21.914  20.506   1.692  0.00  0.00     0.157 HD
HETATM   24  H   UNK N   1      21.204  21.142   3.106  0.00  0.00     0.157 HD
ENDBRANCH  18  22
ENDBRANCH  14  18
ENDBRANCH   5   7
BRANCH   6  25
HETATM   25  O   UNK N   1      29.771  16.471   2.596  0.00  0.00    -0.359 OA
ATOM     26  HO  UNK N   1      29.778  15.633   2.147  1.00  0.00     0.217 HD
ENDBRANCH   6  25
BRANCH   3  27
HETATM   27  C   UNK N   1      31.014  17.036   8.131  0.00  0.00     0.126 C 
BRANCH  27  28
HETATM   28  C   UNK N   1      30.032  18.056   8.749  0.00  0.00     0.133 C 
BRANCH  28  29
HETATM   29  C   UNK N   1      28.988  17.454   9.656  0.00  0.00     0.173 C 
HETATM   30  O   UNK N   1      29.337  16.765  10.600  0.00  0.00    -0.648 OA
HETATM   31  O   UNK N   1      27.680  17.721   9.482  0.00  0.00    -0.648 OA
ENDBRANCH  28  29
ENDBRANCH  27  28
BRANCH  27  32
HETATM   32  C   UNK N   1      32.405  17.464   8.554  0.00  0.00     0.148 C 
HETATM   33  O   UNK N   1      32.896  18.466   8.057  0.00  0.00    -0.649 OA
BRANCH  32  34
HETATM   34  O   UNK N   1      33.126  16.761   9.446  0.00  0.00    -0.776 OA
HETATM   35  H   UNK N   1      34.005  17.000   9.669  0.00  0.00     0.167 HD
ENDBRANCH  32  34
ENDBRANCH  27  32
ENDBRANCH   3  27
BRANCH   4  36
HETATM   36  C   UNK N   1      32.167  15.052   3.527  0.00  0.00     0.010 A 
HETATM   37  C   UNK N   1      33.471  15.485   3.219  0.00  0.00     0.015 A 
HETATM   38  C   UNK N   1      34.320  14.745   2.398  0.00  0.00     0.001 A 
HETATM   39  C   UNK N   1      33.885  13.542   1.857  0.00  0.00     0.003 A 
HETATM   40  C   UNK N   1      32.603  13.078   2.140  0.00  0.00     0.037 A 
HETATM   41  C   UNK N   1      31.730  13.815   2.968  0.00  0.00     0.079 A 
BRANCH  41  42
HETATM   42  O   UNK N   1      30.486  13.340   3.225  0.00  0.00    -0.355 OA
HETATM   43  C   UNK N   1      30.189  12.532   4.301  0.00  0.00     0.210 C 
ENDBRANCH  41  42
ENDBRANCH   4  36
TORSDOF 11
ENDMDL
MODEL 3
REMARK VINA RESULT:      -7.6      8.871     13.290
REMARK  11 active torsions:
REMARK  status: ('A' for Active; 'I' for Inactive)
REMARK    1  A    between atoms: C_15  and  C_11 
REMARK    2  A    between atoms: C_21  and  C_11 
REMARK    3  A    between atoms: C_23  and  C_12 
REMARK    4  A    between atoms: C_15  and  C_13 
REMARK    5  A    between atoms: C_16  and  C_14 
REMARK    6  A    between atoms: C_15  and  C_25 
REMARK    7  A    between atoms: C_24  and  C_17 
REMARK    8  A    between atoms: O_38  and  C_20 
REMARK    9  A    between atoms: O_34  and  C_22 
REMARK   10  A    between atoms: N_28  and  C_23 
REMARK   11  A    between atoms: O_37  and  C_25 
ROOT
HETATM    1  C   UNK N   1      34.868  14.363  11.172  0.00  0.00     0.023 A 
HETATM    2  C   UNK N   1      36.296  14.328   9.257  0.00  0.00     0.026 A 
HETATM    3  C   UNK N   1      35.125  14.758   9.846  0.00  0.00    -0.042 A 
HETATM    4  C   UNK N   1      35.774  13.552  11.898  0.00  0.00     0.011 A 
HETATM    5  C   UNK N   1      37.239  13.565   9.927  0.00  0.00     0.043 A 
HETATM    6  C   UNK N   1      36.990  13.162  11.252  0.00  0.00     0.090 A 
ENDROOT
BRANCH   5   7
HETATM    7  C   UNK N   1      38.468  13.242   9.177  0.00  0.00     0.119 A 
HETATM    8  N   UNK N   1      39.339  12.241   9.468  0.00  0.00    -0.340 N 
HETATM    9  C   UNK N   1      40.303  12.380   8.537  0.00  0.00     0.060 A 
ATOM     10  HN  UNK N   1      39.278  11.548  10.214  1.00  0.00     0.167 HD
HETATM   11  C   UNK N   1      41.457  11.626   8.361  0.00  0.00     0.033 A 
HETATM   12  C   UNK N   1      40.006  13.431   7.730  0.00  0.00     0.061 A 
HETATM   13  C   UNK N   1      42.319  11.996   7.304  0.00  0.00     0.017 A 
HETATM   14  C   UNK N   1      42.006  13.100   6.463  0.00  0.00     0.009 A 
HETATM   15  C   UNK N   1      40.823  13.828   6.684  0.00  0.00     0.047 A 
HETATM   16  N   UNK N   1      38.859  13.987   8.111  0.00  0.00    -0.340 N 
HETATM   17  H   UNK N   1      38.400  14.759   7.710  0.00  0.00     0.167 HD
BRANCH  14  18
HETATM   18  C   UNK N   1      42.906  13.502   5.362  0.00  0.00     0.102 C 
HETATM   19  N   UNK N   1      42.563  14.431   4.548  0.00  0.00    -0.385 N 
HETATM   20  H   UNK N   1      43.141  14.657   3.783  0.00  0.00     0.157 HD
ATOM     21  HN  UNK N   1      41.690  14.938   4.693  1.00  0.00     0.157 HD
BRANCH  18  22
HETATM   22  N   UNK N   1      44.152  12.853   5.191  0.00  0.00    -0.385 N 
HETATM   23  H   UNK N   1      44.203  11.871   5.214  0.00  0.00     0.157 HD
HETATM   24  H   UNK N   1      44.968  13.385   5.048  0.00  0.00     0.157 HD
ENDBRANCH  18  22
ENDBRANCH  14  18
ENDBRANCH   5   7
BRANCH   6  25
HETATM   25  O   UNK N   1      37.908  12.412  11.888  0.00  0.00    -0.359 OA
ATOM     26  HO  UNK N   1      37.774  11.481  12.025  1.00  0.00     0.217 HD
ENDBRANCH   6  25
BRANCH   3  27
HETATM   27  C   UNK N   1      34.171  15.591   8.984  0.00  0.00     0.126 C 
BRANCH  27  28
HETATM   28  C   UNK N   1      34.247  17.094   9.334  0.00  0.00     0.133 C 
BRANCH  28  29
HETATM   29  C   UNK N   1      34.620  17.991   8.179  0.00  0.00     0.173 C 
HETATM   30  O   UNK N   1      35.081  19.098   8.402  0.00  0.00    -0.648 OA
HETATM   31  O   UNK N   1      34.515  17.564   6.907  0.00  0.00    -0.648 OA
ENDBRANCH  28  29
ENDBRANCH  27  28
BRANCH  27  32
HETATM   32  C   UNK N   1      32.704  15.213   9.017  0.00  0.00     0.148 C 
HETATM   33  O   UNK N   1      32.365  14.109   8.619  0.00  0.00    -0.649 OA
BRANCH  32  34
HETATM   34  O   UNK N   1      31.758  16.066   9.452  0.00  0.00    -0.776 OA
HETATM   35  H   UNK N   1      31.968  16.936   9.731  0.00  0.00     0.167 HD
ENDBRANCH  32  34
ENDBRANCH  27  32
ENDBRANCH   3  27
BRANCH   4  36
HETATM   36  C   UNK N   1      35.432  13.102  13.306  0.00  0.00     0.010 A 
HETATM   37  C   UNK N   1      34.579  11.997  13.487  0.00  0.00     0.015 A 
HETATM   38  C   UNK N   1      34.204  11.552  14.754  0.00  0.00     0.001 A 
HETATM   39  C   UNK N   1      34.676  12.206  15.885  0.00  0.00     0.003 A 
HETATM   40  C   UNK N   1      35.525  13.302  15.747  0.00  0.00     0.037 A 
HETATM   41  C   UNK N   1      35.913  13.766  14.474  0.00  0.00     0.079 A 
BRANCH  41  42
HETATM   42  O   UNK N   1      36.739  14.837  14.370  0.00  0.00    -0.355 OA
HETATM   43  C   UNK N   1      37.296  15.474  15.458  0.00  0.00     0.210 C 
ENDBRANCH  41  42
ENDBRANCH   4  36
TORSDOF 11
ENDMDL
MODEL 4
REMARK VINA RESULT:      -7.6      4.574      6.960
REMARK  11 active torsions:
REMARK  status: ('A' for Active; 'I' for Inactive)
REMARK    1  A    between atoms: C_15  and  C_11 
REMARK    2  A    between atoms: C_21  and  C_11 
REMARK    3  A    between atoms: C_23  and  C_12 
REMARK    4  A    between atoms: C_15  and  C_13 
REMARK    5  A    between atoms: C_16  and  C_14 
REMARK    6  A    between atoms: C_15  and  C_25 
REMARK    7  A    between atoms: C_24  and  C_17 
REMARK    8  A    between atoms: O_38  and  C_20 
REMARK    9  A    between atoms: O_34  and  C_22 
REMARK   10  A    between atoms: N_28  and  C_23 
REMARK   11  A    between atoms: O_37  and  C_25 
ROOT
HETATM    1  C   UNK N   1      31.831  16.158   5.839  0.00  0.00     0.023 A 
HETATM    2  C   UNK N   1      30.034  17.717   6.061  0.00  0.00     0.026 A 
HETATM    3  C   UNK N   1      31.217  17.205   6.552  0.00  0.00    -0.042 A 
HETATM    4  C   UNK N   1      31.267  15.634   4.650  0.00  0.00     0.011 A 
HETATM    5  C   UNK N   1      29.453  17.273   4.885  0.00  0.00     0.043 A 
HETATM    6  C   UNK N   1      30.056  16.223   4.166  0.00  0.00     0.090 A 
ENDROOT
BRANCH   5   7
HETATM    7  C   UNK N   1      28.222  17.968   4.463  0.00  0.00     0.119 A 
HETATM    8  N   UNK N   1      28.153  19.216   3.930  0.00  0.00    -0.340 N 
HETATM    9  C   UNK N   1      26.832  19.413   3.755  0.00  0.00     0.060 A 
ATOM     10  HN  UNK N   1      28.921  19.853   3.712  1.00  0.00     0.167 HD
HETATM   11  C   UNK N   1      26.180  20.530   3.246  0.00  0.00     0.033 A 
HETATM   12  C   UNK N   1      26.150  18.317   4.176  0.00  0.00     0.061 A 
HETATM   13  C   UNK N   1      24.769  20.485   3.183  0.00  0.00     0.017 A 
HETATM   14  C   UNK N   1      24.057  19.335   3.628  0.00  0.00     0.009 A 
HETATM   15  C   UNK N   1      24.768  18.231   4.133  0.00  0.00     0.047 A 
HETATM   16  N   UNK N   1      27.000  17.397   4.622  0.00  0.00    -0.340 N 
HETATM   17  H   UNK N   1      26.791  16.506   4.984  0.00  0.00     0.167 HD
BRANCH  14  18
HETATM   18  C   UNK N   1      22.582  19.282   3.578  0.00  0.00     0.102 C 
HETATM   19  N   UNK N   1      21.940  18.394   4.242  0.00  0.00    -0.385 N 
HETATM   20  H   UNK N   1      20.961  18.326   4.162  0.00  0.00     0.157 HD
ATOM     21  HN  UNK N   1      22.445  17.755   4.857  1.00  0.00     0.157 HD
BRANCH  18  22
HETATM   22  N   UNK N   1      21.865  20.207   2.781  0.00  0.00    -0.385 N 
HETATM   23  H   UNK N   1      21.841  21.158   3.031  0.00  0.00     0.157 HD
HETATM   24  H   UNK N   1      21.391  19.897   1.976  0.00  0.00     0.157 HD
ENDBRANCH  18  22
ENDBRANCH  14  18
ENDBRANCH   5   7
BRANCH   6  25
HETATM   25  O   UNK N   1      29.477  15.793   3.032  0.00  0.00    -0.359 OA
ATOM     26  HO  UNK N   1      29.991  15.615   2.253  1.00  0.00     0.217 HD
ENDBRANCH   6  25
BRANCH   3  27
HETATM   27  C   UNK N   1      31.741  17.789   7.868  0.00  0.00     0.126 C 
BRANCH  27  28
HETATM   28  C   UNK N   1      32.969  17.011   8.392  0.00  0.00     0.133 C 
BRANCH  28  29
HETATM   29  C   UNK N   1      34.283  17.736   8.247  0.00  0.00     0.173 C 
HETATM   30  O   UNK N   1      34.581  18.231   7.173  0.00  0.00    -0.648 OA
HETATM   31  O   UNK N   1      35.103  17.906   9.302  0.00  0.00    -0.648 OA
ENDBRANCH  28  29
ENDBRANCH  27  28
BRANCH  27  32
HETATM   32  C   UNK N   1      30.761  17.878   9.020  0.00  0.00     0.148 C 
HETATM   33  O   UNK N   1      30.276  18.963   9.306  0.00  0.00    -0.649 OA
BRANCH  32  34
HETATM   34  O   UNK N   1      30.426  16.802   9.755  0.00  0.00    -0.776 OA
HETATM   35  H   UNK N   1      30.670  15.934   9.500  0.00  0.00     0.167 HD
ENDBRANCH  32  34
ENDBRANCH  27  32
ENDBRANCH   3  27
BRANCH   4  36
HETATM   36  C   UNK N   1      31.931  14.467   3.945  0.00  0.00     0.010 A 
HETATM   37  C   UNK N   1      33.001  14.714   3.063  0.00  0.00     0.015 A 
HETATM   38  C   UNK N   1      33.633  13.687   2.364  0.00  0.00     0.001 A 
HETATM   39  C   UNK N   1      33.210  12.374   2.528  0.00  0.00     0.003 A 
HETATM   40  C   UNK N   1      32.157  12.089   3.394  0.00  0.00     0.037 A 
HETATM   41  C   UNK N   1      31.505  13.115   4.108  0.00  0.00     0.079 A 
BRANCH  41  42
HETATM   42  O   UNK N   1      30.481  12.808   4.943  0.00  0.00    -0.355 OA
HETATM   43  C   UNK N   1      29.206  12.520   4.507  0.00  0.00     0.210 C 
ENDBRANCH  41  42
ENDBRANCH   4  36
TORSDOF 11
ENDMDL
MODEL 5
REMARK VINA RESULT:      -7.6      4.075      4.712
REMARK  11 active torsions:
REMARK  status: ('A' for Active; 'I' for Inactive)
REMARK    1  A    between atoms: C_15  and  C_11 
REMARK    2  A    between atoms: C_21  and  C_11 
REMARK    3  A    between atoms: C_23  and  C_12 
REMARK    4  A    between atoms: C_15  and  C_13 
REMARK    5  A    between atoms: C_16  and  C_14 
REMARK    6  A    between atoms: C_15  and  C_25 
REMARK    7  A    between atoms: C_24  and  C_17 
REMARK    8  A    between atoms: O_38  and  C_20 
REMARK    9  A    between atoms: O_34  and  C_22 
REMARK   10  A    between atoms: N_28  and  C_23 
REMARK   11  A    between atoms: O_37  and  C_25 
ROOT
HETATM    1  C   UNK N   1      28.566  18.512   4.946  0.00  0.00     0.023 A 
HETATM    2  C   UNK N   1      26.628  17.532   3.952  0.00  0.00     0.026 A 
HETATM    3  C   UNK N   1      27.197  18.589   4.631  0.00  0.00    -0.042 A 
HETATM    4  C   UNK N   1      29.354  17.393   4.582  0.00  0.00     0.011 A 
HETATM    5  C   UNK N   1      27.353  16.427   3.536  0.00  0.00     0.043 A 
HETATM    6  C   UNK N   1      28.723  16.338   3.849  0.00  0.00     0.090 A 
ENDROOT
BRANCH   5   7
HETATM    7  C   UNK N   1      26.611  15.413   2.764  0.00  0.00     0.119 A 
HETATM    8  N   UNK N   1      25.496  15.635   2.019  0.00  0.00    -0.340 N 
HETATM    9  C   UNK N   1      25.177  14.412   1.554  0.00  0.00     0.060 A 
ATOM     10  HN  UNK N   1      25.015  16.519   1.851  1.00  0.00     0.167 HD
HETATM   11  C   UNK N   1      24.114  14.042   0.740  0.00  0.00     0.033 A 
HETATM   12  C   UNK N   1      26.075  13.503   2.015  0.00  0.00     0.061 A 
HETATM   13  C   UNK N   1      23.997  12.673   0.407  0.00  0.00     0.017 A 
HETATM   14  C   UNK N   1      24.938  11.723   0.894  0.00  0.00     0.009 A 
HETATM   15  C   UNK N   1      25.997  12.153   1.713  0.00  0.00     0.047 A 
HETATM   16  N   UNK N   1      26.984  14.107   2.774  0.00  0.00    -0.340 N 
HETATM   17  H   UNK N   1      27.752  13.700   3.236  0.00  0.00     0.167 HD
BRANCH  14  18
HETATM   18  C   UNK N   1      24.818  10.289   0.561  0.00  0.00     0.102 C 
HETATM   19  N   UNK N   1      25.689   9.448   0.984  0.00  0.00    -0.385 N 
HETATM   20  H   UNK N   1      25.637   8.503   0.714  0.00  0.00     0.157 HD
ATOM     21  HN  UNK N   1      26.438   9.760   1.604  1.00  0.00     0.157 HD
BRANCH  18  22
HETATM   22  N   UNK N   1      23.745   9.833  -0.241  0.00  0.00    -0.385 N 
HETATM   23  H   UNK N   1      22.960  10.408  -0.387  0.00  0.00     0.157 HD
HETATM   24  H   UNK N   1      23.785   8.940  -0.654  0.00  0.00     0.157 HD
ENDBRANCH  18  22
ENDBRANCH  14  18
ENDBRANCH   5   7
BRANCH   6  25
HETATM   25  O   UNK N   1      29.414  15.256   3.450  0.00  0.00    -0.359 OA
ATOM     26  HO  UNK N   1      29.337  14.426   3.906  1.00  0.00     0.217 HD
ENDBRANCH   6  25
BRANCH   3  27
HETATM   27  C   UNK N   1      26.273  19.742   5.033  0.00  0.00     0.126 C 
BRANCH  27  28
HETATM   28  C   UNK N   1      25.972  20.679   3.842  0.00  0.00     0.133 C 
BRANCH  28  29
HETATM   29  C   UNK N   1      24.654  20.421   3.155  0.00  0.00     0.173 C 
HETATM   30  O   UNK N   1      24.457  20.877   2.041  0.00  0.00    -0.648 OA
HETATM   31  O   UNK N   1      23.717  19.639   3.723  0.00  0.00    -0.648 OA
ENDBRANCH  28  29
ENDBRANCH  27  28
BRANCH  27  32
HETATM   32  C   UNK N   1      26.733  20.628   6.174  0.00  0.00     0.148 C 
HETATM   33  O   UNK N   1      27.168  21.742   5.924  0.00  0.00    -0.649 OA
BRANCH  32  34
HETATM   34  O   UNK N   1      26.699  20.216   7.454  0.00  0.00    -0.776 OA
HETATM   35  H   UNK N   1      27.270  19.545   7.773  0.00  0.00     0.167 HD
ENDBRANCH  32  34
ENDBRANCH  27  32
ENDBRANCH   3  27
BRANCH   4  36
HETATM   36  C   UNK N   1      30.814  17.325   4.992  0.00  0.00     0.010 A 
HETATM   37  C   UNK N   1      31.808  17.661   4.053  0.00  0.00     0.015 A 
HETATM   38  C   UNK N   1      33.167  17.591   4.361  0.00  0.00     0.001 A 
HETATM   39  C   UNK N   1      33.571  17.181   5.624  0.00  0.00     0.003 A 
HETATM   40  C   UNK N   1      32.617  16.844   6.581  0.00  0.00     0.037 A 
HETATM   41  C   UNK N   1      31.239  16.907   6.288  0.00  0.00     0.079 A 
BRANCH  41  42
HETATM   42  O   UNK N   1      30.333  16.570   7.239  0.00  0.00    -0.355 OA
HETATM   43  C   UNK N   1      29.994  17.394   8.291  0.00  0.00     0.210 C 
ENDBRANCH  41  42
ENDBRANCH   4  36
TORSDOF 11
ENDMDL
MODEL 6
REMARK VINA RESULT:      -7.5      4.068      8.335
REMARK  11 active torsions:
REMARK  status: ('A' for Active; 'I' for Inactive)
REMARK    1  A    between atoms: C_15  and  C_11 
REMARK    2  A    between atoms: C_21  and  C_11 
REMARK    3  A    between atoms: C_23  and  C_12 
REMARK    4  A    between atoms: C_15  and  C_13 
REMARK    5  A    between atoms: C_16  and  C_14 
REMARK    6  A    between atoms: C_15  and  C_25 
REMARK    7  A    between atoms: C_24  and  C_17 
REMARK    8  A    between atoms: O_38  and  C_20 
REMARK    9  A    between atoms: O_34  and  C_22 
REMARK   10  A    between atoms: N_28  and  C_23 
REMARK   11  A    between atoms: O_37  and  C_25 
ROOT
HETATM    1  C   UNK N   1      21.613  16.751   5.259  0.00  0.00     0.023 A 
HETATM    2  C   UNK N   1      23.565  17.310   4.001  0.00  0.00     0.026 A 
HETATM    3  C   UNK N   1      22.196  17.393   4.150  0.00  0.00    -0.042 A 
HETATM    4  C   UNK N   1      22.390  16.038   6.204  0.00  0.00     0.011 A 
HETATM    5  C   UNK N   1      24.383  16.661   4.910  0.00  0.00     0.043 A 
HETATM    6  C   UNK N   1      23.809  16.011   6.020  0.00  0.00     0.090 A 
ENDROOT
BRANCH   5   7
HETATM    7  C   UNK N   1      25.832  16.718   4.640  0.00  0.00     0.119 A 
HETATM    8  N   UNK N   1      26.440  16.387   3.471  0.00  0.00    -0.340 N 
HETATM    9  C   UNK N   1      27.749  16.563   3.733  0.00  0.00     0.060 A 
ATOM     10  HN  UNK N   1      26.007  16.080   2.599  1.00  0.00     0.167 HD
HETATM   11  C   UNK N   1      28.838  16.363   2.893  0.00  0.00     0.033 A 
HETATM   12  C   UNK N   1      27.903  16.979   5.016  0.00  0.00     0.061 A 
HETATM   13  C   UNK N   1      30.123  16.609   3.428  0.00  0.00     0.017 A 
HETATM   14  C   UNK N   1      30.281  17.042   4.775  0.00  0.00     0.009 A 
HETATM   15  C   UNK N   1      29.143  17.230   5.580  0.00  0.00     0.047 A 
HETATM   16  N   UNK N   1      26.715  17.085   5.605  0.00  0.00    -0.340 N 
HETATM   17  H   UNK N   1      26.521  17.366   6.528  0.00  0.00     0.167 HD
BRANCH  14  18
HETATM   18  C   UNK N   1      31.620  17.290   5.346  0.00  0.00     0.102 C 
HETATM   19  N   UNK N   1      31.802  17.258   6.614  0.00  0.00    -0.385 N 
HETATM   20  H   UNK N   1      32.683  17.479   6.995  0.00  0.00     0.157 HD
ATOM     21  HN  UNK N   1      31.031  17.002   7.233  1.00  0.00     0.157 HD
BRANCH  18  22
HETATM   22  N   UNK N   1      32.713  17.580   4.495  0.00  0.00    -0.385 N 
HETATM   23  H   UNK N   1      33.244  16.847   4.108  0.00  0.00     0.157 HD
HETATM   24  H   UNK N   1      32.942  18.515   4.290  0.00  0.00     0.157 HD
ENDBRANCH  18  22
ENDBRANCH  14  18
ENDBRANCH   5   7
BRANCH   6  25
HETATM   25  O   UNK N   1      24.613  15.375   6.890  0.00  0.00    -0.359 OA
ATOM     26  HO  UNK N   1      24.607  15.591   7.815  1.00  0.00     0.217 HD
ENDBRANCH   6  25
BRANCH   3  27
HETATM   27  C   UNK N   1      21.416  18.138   3.064  0.00  0.00     0.126 C 
BRANCH  27  28
HETATM   28  C   UNK N   1      21.081  19.586   3.489  0.00  0.00     0.133 C 
BRANCH  28  29
HETATM   29  C   UNK N   1      21.640  20.653   2.581  0.00  0.00     0.173 C 
HETATM   30  O   UNK N   1      22.674  21.222   2.888  0.00  0.00    -0.648 OA
HETATM   31  O   UNK N   1      21.053  20.941   1.404  0.00  0.00    -0.648 OA
ENDBRANCH  28  29
ENDBRANCH  27  28
BRANCH  27  32
HETATM   32  C   UNK N   1      20.116  17.513   2.598  0.00  0.00     0.148 C 
HETATM   33  O   UNK N   1      20.154  16.580   1.810  0.00  0.00    -0.649 OA
BRANCH  32  34
HETATM   34  O   UNK N   1      18.919  17.970   3.007  0.00  0.00    -0.776 OA
HETATM   35  H   UNK N   1      18.572  17.759   3.852  0.00  0.00     0.167 HD
ENDBRANCH  32  34
ENDBRANCH  27  32
ENDBRANCH   3  27
BRANCH   4  36
HETATM   36  C   UNK N   1      21.715  15.312   7.352  0.00  0.00     0.010 A 
HETATM   37  C   UNK N   1      21.893  13.922   7.486  0.00  0.00     0.015 A 
HETATM   38  C   UNK N   1      21.277  13.194   8.503  0.00  0.00     0.001 A 
HETATM   39  C   UNK N   1      20.458  13.840   9.420  0.00  0.00     0.003 A 
HETATM   40  C   UNK N   1      20.260  15.215   9.322  0.00  0.00     0.037 A 
HETATM   41  C   UNK N   1      20.874  15.968   8.300  0.00  0.00     0.079 A 
BRANCH  41  42
HETATM   42  O   UNK N   1      20.661  17.305   8.228  0.00  0.00    -0.355 OA
HETATM   43  C   UNK N   1      19.581  17.935   8.808  0.00  0.00     0.210 C 
ENDBRANCH  41  42
ENDBRANCH   4  36
TORSDOF 11
ENDMDL
MODEL 7
REMARK VINA RESULT:      -7.4      3.984      4.814
REMARK  11 active torsions:
REMARK  status: ('A' for Active; 'I' for Inactive)
REMARK    1  A    between atoms: C_15  and  C_11 
REMARK    2  A    between atoms: C_21  and  C_11 
REMARK    3  A    between atoms: C_23  and  C_12 
REMARK    4  A    between atoms: C_15  and  C_13 
REMARK    5  A    between atoms: C_16  and  C_14 
REMARK    6  A    between atoms: C_15  and  C_25 
REMARK    7  A    between atoms: C_24  and  C_17 
REMARK    8  A    between atoms: O_38  and  C_20 
REMARK    9  A    between atoms: O_34  and  C_22 
REMARK   10  A    between atoms: N_28  and  C_23 
REMARK   11  A    between atoms: O_37  and  C_25 
ROOT
HETATM    1  C   UNK N   1      28.885  18.427   5.395  0.00  0.00     0.023 A 
HETATM    2  C   UNK N   1      27.106  17.278   4.290  0.00  0.00     0.026 A 
HETATM    3  C   UNK N   1      27.565  18.423   4.907  0.00  0.00    -0.042 A 
HETATM    4  C   UNK N   1      29.733  17.300   5.265  0.00  0.00     0.011 A 
HETATM    5  C   UNK N   1      27.898  16.158   4.098  0.00  0.00     0.043 A 
HETATM    6  C   UNK N   1      29.218  16.149   4.587  0.00  0.00     0.090 A 
ENDROOT
BRANCH   5   7
HETATM    7  C   UNK N   1      27.278  15.039   3.364  0.00  0.00     0.119 A 
HETATM    8  N   UNK N   1      27.864  13.844   3.087  0.00  0.00    -0.340 N 
HETATM    9  C   UNK N   1      26.927  13.190   2.373  0.00  0.00     0.060 A 
ATOM     10  HN  UNK N   1      28.793  13.518   3.358  1.00  0.00     0.167 HD
HETATM   11  C   UNK N   1      26.989  11.918   1.818  0.00  0.00     0.033 A 
HETATM   12  C   UNK N   1      25.831  13.979   2.234  0.00  0.00     0.061 A 
HETATM   13  C   UNK N   1      25.861  11.470   1.094  0.00  0.00     0.017 A 
HETATM   14  C   UNK N   1      24.715  12.301   0.947  0.00  0.00     0.009 A 
HETATM   15  C   UNK N   1      24.705  13.580   1.532  0.00  0.00     0.047 A 
HETATM   16  N   UNK N   1      26.026  15.142   2.847  0.00  0.00    -0.340 N 
HETATM   17  H   UNK N   1      25.405  15.903   2.912  0.00  0.00     0.167 HD
BRANCH  14  18
HETATM   18  C   UNK N   1      23.535  11.847   0.182  0.00  0.00     0.102 C 
HETATM   19  N   UNK N   1      23.596  10.792  -0.542  0.00  0.00    -0.385 N 
HETATM   20  H   UNK N   1      22.825  10.524  -1.093  0.00  0.00     0.157 HD
ATOM     21  HN  UNK N   1      24.445  10.226  -0.547  1.00  0.00     0.157 HD
BRANCH  18  22
HETATM   22  N   UNK N   1      22.328  12.585   0.234  0.00  0.00    -0.385 N 
HETATM   23  H   UNK N   1      21.477  12.126   0.419  0.00  0.00     0.157 HD
HETATM   24  H   UNK N   1      22.340  13.558   0.085  0.00  0.00     0.157 HD
ENDBRANCH  18  22
ENDBRANCH  14  18
ENDBRANCH   5   7
BRANCH   6  25
HETATM   25  O   UNK N   1      29.974  15.052   4.405  0.00  0.00    -0.359 OA
ATOM     26  HO  UNK N   1      29.667  14.324   3.877  1.00  0.00     0.217 HD
ENDBRANCH   6  25
BRANCH   3  27
HETATM   27  C   UNK N   1      26.577  19.584   5.054  0.00  0.00     0.126 C 
BRANCH  27  28
HETATM   28  C   UNK N   1      26.457  20.405   3.751  0.00  0.00     0.133 C 
BRANCH  28  29
HETATM   29  C   UNK N   1      25.120  20.299   3.061  0.00  0.00     0.173 C 
HETATM   30  O   UNK N   1      24.937  20.893   2.011  0.00  0.00    -0.648 OA
HETATM   31  O   UNK N   1      24.148  19.506   3.549  0.00  0.00    -0.648 OA
ENDBRANCH  28  29
ENDBRANCH  27  28
BRANCH  27  32
HETATM   32  C   UNK N   1      26.842  20.577   6.168  0.00  0.00     0.148 C 
HETATM   33  O   UNK N   1      27.250  21.693   5.885  0.00  0.00    -0.649 OA
BRANCH  32  34
HETATM   34  O   UNK N   1      26.664  20.259   7.463  0.00  0.00    -0.776 OA
HETATM   35  H   UNK N   1      26.339  19.420   7.726  0.00  0.00     0.167 HD
ENDBRANCH  32  34
ENDBRANCH  27  32
ENDBRANCH   3  27
BRANCH   4  36
HETATM   36  C   UNK N   1      31.130  17.327   5.857  0.00  0.00     0.010 A 
HETATM   37  C   UNK N   1      31.283  17.354   7.257  0.00  0.00     0.015 A 
HETATM   38  C   UNK N   1      32.538  17.407   7.860  0.00  0.00     0.001 A 
HETATM   39  C   UNK N   1      33.684  17.435   7.076  0.00  0.00     0.003 A 
HETATM   40  C   UNK N   1      33.573  17.406   5.688  0.00  0.00     0.037 A 
HETATM   41  C   UNK N   1      32.312  17.354   5.060  0.00  0.00     0.079 A 
BRANCH  41  42
HETATM   42  O   UNK N   1      32.235  17.329   3.706  0.00  0.00    -0.355 OA
HETATM   43  C   UNK N   1      32.921  16.426   2.922  0.00  0.00     0.210 C 
ENDBRANCH  41  42
ENDBRANCH   4  36
TORSDOF 11
ENDMDL
MODEL 8
REMARK VINA RESULT:      -7.4      6.334     10.610
REMARK  11 active torsions:
REMARK  status: ('A' for Active; 'I' for Inactive)
REMARK    1  A    between atoms: C_15  and  C_11 
REMARK    2  A    between atoms: C_21  and  C_11 
REMARK    3  A    between atoms: C_23  and  C_12 
REMARK    4  A    between atoms: C_15  and  C_13 
REMARK    5  A    between atoms: C_16  and  C_14 
REMARK    6  A    between atoms: C_15  and  C_25 
REMARK    7  A    between atoms: C_24  and  C_17 
REMARK    8  A    between atoms: O_38  and  C_20 
REMARK    9  A    between atoms: O_34  and  C_22 
REMARK   10  A    between atoms: N_28  and  C_23 
REMARK   11  A    between atoms: O_37  and  C_25 
ROOT
HETATM    1  C   UNK N   1      36.506  13.663  10.100  0.00  0.00     0.023 A 
HETATM    2  C   UNK N   1      35.235  14.639   8.328  0.00  0.00     0.026 A 
HETATM    3  C   UNK N   1      36.390  14.008   8.741  0.00  0.00    -0.042 A 
HETATM    4  C   UNK N   1      35.477  13.944  11.032  0.00  0.00     0.011 A 
HETATM    5  C   UNK N   1      34.178  14.907   9.183  0.00  0.00     0.043 A 
HETATM    6  C   UNK N   1      34.285  14.570  10.546  0.00  0.00     0.090 A 
ENDROOT
BRANCH   5   7
HETATM    7  C   UNK N   1      32.988  15.528   8.573  0.00  0.00     0.119 A 
HETATM    8  N   UNK N   1      32.671  15.518   7.252  0.00  0.00    -0.340 N 
HETATM    9  C   UNK N   1      31.536  16.240   7.192  0.00  0.00     0.060 A 
ATOM     10  HN  UNK N   1      33.173  15.068   6.485  1.00  0.00     0.167 HD
HETATM   11  C   UNK N   1      30.769  16.564   6.080  0.00  0.00     0.033 A 
HETATM   12  C   UNK N   1      31.202  16.663   8.439  0.00  0.00     0.061 A 
HETATM   13  C   UNK N   1      29.619  17.357   6.293  0.00  0.00     0.017 A 
HETATM   14  C   UNK N   1      29.273  17.801   7.600  0.00  0.00     0.009 A 
HETATM   15  C   UNK N   1      30.085  17.442   8.692  0.00  0.00     0.047 A 
HETATM   16  N   UNK N   1      32.096  16.228   9.321  0.00  0.00    -0.340 N 
HETATM   17  H   UNK N   1      32.108  16.378  10.294  0.00  0.00     0.167 HD
BRANCH  14  18
HETATM   18  C   UNK N   1      28.080  18.641   7.833  0.00  0.00     0.102 C 
HETATM   19  N   UNK N   1      27.546  18.704   8.996  0.00  0.00    -0.385 N 
HETATM   20  H   UNK N   1      26.719  19.220   9.134  0.00  0.00     0.157 HD
ATOM     21  HN  UNK N   1      27.980  18.219   9.782  1.00  0.00     0.157 HD
BRANCH  18  22
HETATM   22  N   UNK N   1      27.508  19.373   6.765  0.00  0.00    -0.385 N 
HETATM   23  H   UNK N   1      27.228  20.306   6.901  0.00  0.00     0.157 HD
HETATM   24  H   UNK N   1      27.391  18.948   5.884  0.00  0.00     0.157 HD
ENDBRANCH  18  22
ENDBRANCH  14  18
ENDBRANCH   5   7
BRANCH   6  25
HETATM   25  O   UNK N   1      33.258  14.845  11.368  0.00  0.00    -0.359 OA
ATOM     26  HO  UNK N   1      33.171  15.697  11.780  1.00  0.00     0.217 HD
ENDBRANCH   6  25
BRANCH   3  27
HETATM   27  C   UNK N   1      37.479  13.780   7.688  0.00  0.00     0.126 C 
BRANCH  27  28
HETATM   28  C   UNK N   1      36.977  14.105   6.263  0.00  0.00     0.133 C 
BRANCH  28  29
HETATM   29  C   UNK N   1      38.067  14.261   5.232  0.00  0.00     0.173 C 
HETATM   30  O   UNK N   1      38.882  15.161   5.350  0.00  0.00    -0.648 OA
HETATM   31  O   UNK N   1      38.197  13.383   4.220  0.00  0.00    -0.648 OA
ENDBRANCH  28  29
ENDBRANCH  27  28
BRANCH  27  32
HETATM   32  C   UNK N   1      38.096  12.397   7.623  0.00  0.00     0.148 C 
HETATM   33  O   UNK N   1      39.282  12.262   7.883  0.00  0.00    -0.649 OA
BRANCH  32  34
HETATM   34  O   UNK N   1      37.382  11.314   7.265  0.00  0.00    -0.776 OA
HETATM   35  H   UNK N   1      37.129  11.161   6.375  0.00  0.00     0.167 HD
ENDBRANCH  32  34
ENDBRANCH  27  32
ENDBRANCH   3  27
BRANCH   4  36
HETATM   36  C   UNK N   1      35.667  13.607  12.499  0.00  0.00     0.010 A 
HETATM   37  C   UNK N   1      36.362  14.509  13.328  0.00  0.00     0.015 A 
HETATM   38  C   UNK N   1      36.593  14.244  14.677  0.00  0.00     0.001 A 
HETATM   39  C   UNK N   1      36.132  13.060  15.239  0.00  0.00     0.003 A 
HETATM   40  C   UNK N   1      35.438  12.145  14.453  0.00  0.00     0.037 A 
HETATM   41  C   UNK N   1      35.196  12.395  13.086  0.00  0.00     0.079 A 
BRANCH  41  42
HETATM   42  O   UNK N   1      34.519  11.484  12.344  0.00  0.00    -0.355 OA
HETATM   43  C   UNK N   1      34.178  10.231  12.806  0.00  0.00     0.210 C 
ENDBRANCH  41  42
ENDBRANCH   4  36
TORSDOF 11
ENDMDL
MODEL 9
REMARK VINA RESULT:      -7.4      3.426      7.049
REMARK  11 active torsions:
REMARK  status: ('A' for Active; 'I' for Inactive)
REMARK    1  A    between atoms: C_15  and  C_11 
REMARK    2  A    between atoms: C_21  and  C_11 
REMARK    3  A    between atoms: C_23  and  C_12 
REMARK    4  A    between atoms: C_15  and  C_13 
REMARK    5  A    between atoms: C_16  and  C_14 
REMARK    6  A    between atoms: C_15  and  C_25 
REMARK    7  A    between atoms: C_24  and  C_17 
REMARK    8  A    between atoms: O_38  and  C_20 
REMARK    9  A    between atoms: O_34  and  C_22 
REMARK   10  A    between atoms: N_28  and  C_23 
REMARK   11  A    between atoms: O_37  and  C_25 
ROOT
HETATM    1  C   UNK N   1      25.862  17.609   3.464  0.00  0.00     0.023 A 
HETATM    2  C   UNK N   1      27.855  18.542   4.393  0.00  0.00     0.026 A 
HETATM    3  C   UNK N   1      26.560  18.728   3.955  0.00  0.00    -0.042 A 
HETATM    4  C   UNK N   1      26.452  16.323   3.414  0.00  0.00     0.011 A 
HETATM    5  C   UNK N   1      28.474  17.304   4.405  0.00  0.00     0.043 A 
HETATM    6  C   UNK N   1      27.787  16.179   3.911  0.00  0.00     0.090 A 
ENDROOT
BRANCH   5   7
HETATM    7  C   UNK N   1      29.839  17.263   4.964  0.00  0.00     0.119 A 
HETATM    8  N   UNK N   1      30.984  17.562   4.297  0.00  0.00    -0.340 N 
HETATM    9  C   UNK N   1      31.950  17.336   5.208  0.00  0.00     0.060 A 
ATOM     10  HN  UNK N   1      31.088  17.884   3.334  1.00  0.00     0.167 HD
HETATM   11  C   UNK N   1      33.326  17.473   5.069  0.00  0.00     0.033 A 
HETATM   12  C   UNK N   1      31.387  16.915   6.370  0.00  0.00     0.061 A 
HETATM   13  C   UNK N   1      34.126  17.153   6.188  0.00  0.00     0.017 A 
HETATM   14  C   UNK N   1      33.534  16.707   7.403  0.00  0.00     0.009 A 
HETATM   15  C   UNK N   1      32.135  16.589   7.490  0.00  0.00     0.047 A 
HETATM   16  N   UNK N   1      30.065  16.862   6.242  0.00  0.00    -0.340 N 
HETATM   17  H   UNK N   1      29.402  16.594   6.919  0.00  0.00     0.167 HD
BRANCH  14  18
HETATM   18  C   UNK N   1      34.363  16.359   8.576  0.00  0.00     0.102 C 
HETATM   19  N   UNK N   1      35.146  15.345   8.540  0.00  0.00    -0.385 N 
HETATM   20  H   UNK N   1      35.654  15.084   9.342  0.00  0.00     0.157 HD
ATOM     21  HN  UNK N   1      35.244  14.808   7.678  1.00  0.00     0.157 HD
BRANCH  18  22
HETATM   22  N   UNK N   1      34.287  17.137   9.756  0.00  0.00    -0.385 N 
HETATM   23  H   UNK N   1      33.418  17.481  10.064  0.00  0.00     0.157 HD
HETATM   24  H   UNK N   1      35.104  17.334  10.268  0.00  0.00     0.157 HD
ENDBRANCH  18  22
ENDBRANCH  14  18
ENDBRANCH   5   7
BRANCH   6  25
HETATM   25  O   UNK N   1      28.403  14.984   3.918  0.00  0.00    -0.359 OA
ATOM     26  HO  UNK N   1      27.929  14.186   4.122  1.00  0.00     0.217 HD
ENDBRANCH   6  25
BRANCH   3  27
HETATM   27  C   UNK N   1      26.004  20.154   3.994  0.00  0.00     0.126 C 
BRANCH  27  28
HETATM   28  C   UNK N   1      25.452  20.518   5.391  0.00  0.00     0.133 C 
BRANCH  28  29
HETATM   29  C   UNK N   1      26.416  21.274   6.271  0.00  0.00     0.173 C 
HETATM   30  O   UNK N   1      26.100  21.541   7.419  0.00  0.00    -0.648 OA
HETATM   31  O   UNK N   1      27.646  21.601   5.832  0.00  0.00    -0.648 OA
ENDBRANCH  28  29
ENDBRANCH  27  28
BRANCH  27  32
HETATM   32  C   UNK N   1      24.915  20.497   2.997  0.00  0.00     0.148 C 
HETATM   33  O   UNK N   1      25.226  20.784   1.852  0.00  0.00    -0.649 OA
BRANCH  32  34
HETATM   34  O   UNK N   1      23.614  20.516   3.341  0.00  0.00    -0.776 OA
HETATM   35  H   UNK N   1      22.951  20.811   2.748  0.00  0.00     0.167 HD
ENDBRANCH  32  34
ENDBRANCH  27  32
ENDBRANCH   3  27
BRANCH   4  36
HETATM   36  C   UNK N   1      25.684  15.155   2.823  0.00  0.00     0.010 A 
HETATM   37  C   UNK N   1      25.304  15.198   1.467  0.00  0.00     0.015 A 
HETATM   38  C   UNK N   1      24.574  14.169   0.874  0.00  0.00     0.001 A 
HETATM   39  C   UNK N   1      24.200  13.062   1.624  0.00  0.00     0.003 A 
HETATM   40  C   UNK N   1      24.561  12.982   2.967  0.00  0.00     0.037 A 
HETATM   41  C   UNK N   1      25.298  14.013   3.585  0.00  0.00     0.079 A 
BRANCH  41  42
HETATM   42  O   UNK N   1      25.633  13.909   4.894  0.00  0.00    -0.355 OA
HETATM   43  C   UNK N   1      24.724  13.625   5.891  0.00  0.00     0.210 C 
ENDBRANCH  41  42
ENDBRANCH   4  36
TORSDOF 11
ENDMDL
