MODEL 1
REMARK VINA RESULT:      -4.3      0.000      0.000
REMARK  1 active torsions:
REMARK  status: ('A' for Active; 'I' for Inactive)
REMARK    1  A    between atoms: C_10  and  N_11 
ROOT
HETATM    1  C   UNK N   1      20.197  12.031  11.709  0.00  0.00     0.054 C 
HETATM    2  C   UNK N   1      21.475  12.384  11.026  0.00  0.00    -0.003 A 
HETATM    3  C   UNK N   1      21.442  12.964   9.761  0.00  0.00     0.099 A 
HETATM    4  N   UNK N   1      22.600  13.289   9.131  0.00  0.00    -0.355 N 
ATOM      5  HN  UNK N   1      22.567  13.713   8.204  1.00  0.00     0.166 HD
HETATM    6  C   UNK N   1      23.803  13.055   9.720  0.00  0.00     0.078 A 
HETATM    7  C   UNK N   1      25.057  13.420   9.009  0.00  0.00     0.089 C 
HETATM    8  N   UNK N   1      23.859  12.490  10.955  0.00  0.00    -0.332 N 
ATOM      9  HN  UNK N   1      24.767  12.319  11.388  1.00  0.00     0.168 HD
HETATM   10  C   UNK N   1      22.724  12.149  11.621  0.00  0.00     0.107 A 
ENDROOT
BRANCH  10  11
HETATM   11  N   UNK N   1      22.815  11.564  12.902  0.00  0.00    -0.385 N 
HETATM   12  H   UNK N   1      22.216  10.821  13.147  0.00  0.00     0.157 HD
HETATM   13  H   UNK N   1      23.477  11.897  13.550  0.00  0.00     0.157 HD
ENDBRANCH  10  11
TORSDOF 1
ENDMDL
MODEL 2
REMARK VINA RESULT:      -4.3      1.555      2.375
REMARK  1 active torsions:
REMARK  status: ('A' for Active; 'I' for Inactive)
REMARK    1  A    between atoms: C_10  and  N_11 
ROOT
HETATM    1  C   UNK N   1      23.172  11.812  12.957  0.00  0.00     0.054 C 
HETATM    2  C   UNK N   1      22.809  12.196  11.563  0.00  0.00    -0.003 A 
HETATM    3  C   UNK N   1      21.470  12.214  11.180  0.00  0.00     0.099 A 
HETATM    4  N   UNK N   1      21.129  12.562   9.913  0.00  0.00    -0.355 N 
ATOM      5  HN  UNK N   1      20.146  12.572   9.642  1.00  0.00     0.166 HD
HETATM    6  C   UNK N   1      22.081  12.897   9.003  0.00  0.00     0.078 A 
HETATM    7  C   UNK N   1      21.682  13.275   7.621  0.00  0.00     0.089 C 
HETATM    8  N   UNK N   1      23.395  12.887   9.354  0.00  0.00    -0.332 N 
ATOM      9  HN  UNK N   1      24.101  13.140   8.663  1.00  0.00     0.168 HD
HETATM   10  C   UNK N   1      23.779  12.545  10.612  0.00  0.00     0.107 A 
ENDROOT
BRANCH  10  11
HETATM   11  N   UNK N   1      25.151  12.544  10.946  0.00  0.00    -0.385 N 
HETATM   12  H   UNK N   1      25.443  12.877  11.826  0.00  0.00     0.157 HD
HETATM   13  H   UNK N   1      25.815  12.211  10.301  0.00  0.00     0.157 HD
ENDBRANCH  10  11
TORSDOF 1
ENDMDL
MODEL 3
REMARK VINA RESULT:      -4.2      1.610      2.384
REMARK  1 active torsions:
REMARK  status: ('A' for Active; 'I' for Inactive)
REMARK    1  A    between atoms: C_10  and  N_11 
ROOT
HETATM    1  C   UNK N   1      23.283  11.908  13.217  0.00  0.00     0.054 C 
HETATM    2  C   UNK N   1      23.233  12.032  11.731  0.00  0.00    -0.003 A 
HETATM    3  C   UNK N   1      24.419  12.129  11.009  0.00  0.00     0.099 A 
HETATM    4  N   UNK N   1      24.385  12.243   9.657  0.00  0.00    -0.355 N 
ATOM      5  HN  UNK N   1      25.259  12.313   9.135  1.00  0.00     0.166 HD
HETATM    6  C   UNK N   1      23.201  12.264   8.989  0.00  0.00     0.078 A 
HETATM    7  C   UNK N   1      23.190  12.390   7.508  0.00  0.00     0.089 C 
HETATM    8  N   UNK N   1      22.030  12.171   9.674  0.00  0.00    -0.332 N 
ATOM      9  HN  UNK N   1      21.147  12.188   9.164  1.00  0.00     0.168 HD
HETATM   10  C   UNK N   1      22.020  12.056  11.029  0.00  0.00     0.107 A 
ENDROOT
BRANCH  10  11
HETATM   11  N   UNK N   1      20.788  11.961  11.711  0.00  0.00    -0.385 N 
HETATM   12  H   UNK N   1      20.212  12.756  11.800  0.00  0.00     0.157 HD
HETATM   13  H   UNK N   1      20.503  11.102  12.098  0.00  0.00     0.157 HD
ENDBRANCH  10  11
TORSDOF 1
ENDMDL
MODEL 4
REMARK VINA RESULT:      -4.1     12.361     14.081
REMARK  1 active torsions:
REMARK  status: ('A' for Active; 'I' for Inactive)
REMARK    1  A    between atoms: C_10  and  N_11 
ROOT
HETATM    1  C   UNK N   1      37.288  15.048  15.744  0.00  0.00     0.054 C 
HETATM    2  C   UNK N   1      36.336  13.950  15.406  0.00  0.00    -0.003 A 
HETATM    3  C   UNK N   1      35.670  13.279  16.428  0.00  0.00     0.099 A 
HETATM    4  N   UNK N   1      34.802  12.279  16.130  0.00  0.00    -0.355 N 
ATOM      5  HN  UNK N   1      34.318  11.792  16.885  1.00  0.00     0.166 HD
HETATM    6  C   UNK N   1      34.570  11.917  14.841  0.00  0.00     0.078 A 
HETATM    7  C   UNK N   1      33.615  10.818  14.542  0.00  0.00     0.089 C 
HETATM    8  N   UNK N   1      35.210  12.558  13.827  0.00  0.00    -0.332 N 
ATOM      9  HN  UNK N   1      35.030  12.279  12.863  1.00  0.00     0.168 HD
HETATM   10  C   UNK N   1      36.087  13.566  14.080  0.00  0.00     0.107 A 
ENDROOT
BRANCH  10  11
HETATM   11  N   UNK N   1      36.736  14.212  13.007  0.00  0.00    -0.385 N 
HETATM   12  H   UNK N   1      36.272  14.925  12.509  0.00  0.00     0.157 HD
HETATM   13  H   UNK N   1      37.651  13.953  12.755  0.00  0.00     0.157 HD
ENDBRANCH  10  11
TORSDOF 1
ENDMDL
MODEL 5
REMARK VINA RESULT:      -4.0      1.596      3.300
REMARK  1 active torsions:
REMARK  status: ('A' for Active; 'I' for Inactive)
REMARK    1  A    between atoms: C_10  and  N_11 
ROOT
HETATM    1  C   UNK N   1      22.922  12.687   7.664  0.00  0.00     0.054 C 
HETATM    2  C   UNK N   1      23.034  12.488   9.138  0.00  0.00    -0.003 A 
HETATM    3  C   UNK N   1      21.976  11.913   9.837  0.00  0.00     0.099 A 
HETATM    4  N   UNK N   1      22.068  11.727  11.178  0.00  0.00    -0.355 N 
ATOM      5  HN  UNK N   1      21.288  11.306  11.682  1.00  0.00     0.166 HD
HETATM    6  C   UNK N   1      23.185  12.096  11.858  0.00  0.00     0.078 A 
HETATM    7  C   UNK N   1      23.262  11.882  13.327  0.00  0.00     0.089 C 
HETATM    8  N   UNK N   1      24.232  12.659  11.196  0.00  0.00    -0.332 N 
ATOM      9  HN  UNK N   1      25.066  12.932  11.715  1.00  0.00     0.168 HD
HETATM   10  C   UNK N   1      24.181  12.863   9.853  0.00  0.00     0.107 A 
ENDROOT
BRANCH  10  11
HETATM   11  N   UNK N   1      25.283  13.450   9.195  0.00  0.00    -0.385 N 
HETATM   12  H   UNK N   1      25.237  14.389   8.901  0.00  0.00     0.157 HD
HETATM   13  H   UNK N   1      26.097  12.922   9.029  0.00  0.00     0.157 HD
ENDBRANCH  10  11
TORSDOF 1
ENDMDL
MODEL 6
REMARK VINA RESULT:      -4.0      1.661      3.641
REMARK  1 active torsions:
REMARK  status: ('A' for Active; 'I' for Inactive)
REMARK    1  A    between atoms: C_10  and  N_11 
ROOT
HETATM    1  C   UNK N   1      24.114  13.180   7.703  0.00  0.00     0.054 C 
HETATM    2  C   UNK N   1      23.875  12.829   9.133  0.00  0.00    -0.003 A 
HETATM    3  C   UNK N   1      24.949  12.769  10.016  0.00  0.00     0.099 A 
HETATM    4  N   UNK N   1      24.742  12.450  11.319  0.00  0.00    -0.355 N 
ATOM      5  HN  UNK N   1      25.535  12.408  11.959  1.00  0.00     0.166 HD
HETATM    6  C   UNK N   1      23.491  12.186  11.781  0.00  0.00     0.078 A 
HETATM    7  C   UNK N   1      23.290  11.839  13.213  0.00  0.00     0.089 C 
HETATM    8  N   UNK N   1      22.427  12.238  10.937  0.00  0.00    -0.332 N 
ATOM      9  HN  UNK N   1      21.492  12.038  11.294  1.00  0.00     0.168 HD
HETATM   10  C   UNK N   1      22.590  12.553   9.624  0.00  0.00     0.107 A 
ENDROOT
BRANCH  10  11
HETATM   11  N   UNK N   1      21.465  12.600   8.773  0.00  0.00    -0.385 N 
HETATM   12  H   UNK N   1      20.558  12.547   9.154  0.00  0.00     0.157 HD
HETATM   13  H   UNK N   1      21.586  12.685   7.800  0.00  0.00     0.157 HD
ENDBRANCH  10  11
TORSDOF 1
ENDMDL
MODEL 7
REMARK VINA RESULT:      -3.9      9.087     10.126
REMARK  1 active torsions:
REMARK  status: ('A' for Active; 'I' for Inactive)
REMARK    1  A    between atoms: C_10  and  N_11 
ROOT
HETATM    1  C   UNK N   1      26.610  20.347   3.546  0.00  0.00     0.054 C 
HETATM    2  C   UNK N   1      27.111  19.874   4.869  0.00  0.00    -0.003 A 
HETATM    3  C   UNK N   1      26.642  20.471   6.036  0.00  0.00     0.099 A 
HETATM    4  N   UNK N   1      27.092  20.048   7.244  0.00  0.00    -0.355 N 
ATOM      5  HN  UNK N   1      26.744  20.491   8.094  1.00  0.00     0.166 HD
HETATM    6  C   UNK N   1      28.001  19.042   7.337  0.00  0.00     0.078 A 
HETATM    7  C   UNK N   1      28.479  18.596   8.672  0.00  0.00     0.089 C 
HETATM    8  N   UNK N   1      28.473  18.443   6.210  0.00  0.00    -0.332 N 
ATOM      9  HN  UNK N   1      29.155  17.689   6.290  1.00  0.00     0.168 HD
HETATM   10  C   UNK N   1      28.049  18.836   4.980  0.00  0.00     0.107 A 
ENDROOT
BRANCH  10  11
HETATM   11  N   UNK N   1      28.558  18.196   3.829  0.00  0.00    -0.385 N 
HETATM   12  H   UNK N   1      28.520  17.214   3.756  0.00  0.00     0.157 HD
HETATM   13  H   UNK N   1      28.949  18.729   3.101  0.00  0.00     0.157 HD
ENDBRANCH  10  11
TORSDOF 1
ENDMDL
MODEL 8
REMARK VINA RESULT:      -3.9     11.448     12.438
REMARK  1 active torsions:
REMARK  status: ('A' for Active; 'I' for Inactive)
REMARK    1  A    between atoms: C_10  and  N_11 
ROOT
HETATM    1  C   UNK N   1      35.045  14.094  12.087  0.00  0.00     0.054 C 
HETATM    2  C   UNK N   1      34.766  15.133  11.054  0.00  0.00    -0.003 A 
HETATM    3  C   UNK N   1      35.336  16.397  11.178  0.00  0.00     0.099 A 
HETATM    4  N   UNK N   1      35.087  17.350  10.244  0.00  0.00    -0.355 N 
ATOM      5  HN  UNK N   1      35.510  18.273  10.343  1.00  0.00     0.166 HD
HETATM    6  C   UNK N   1      34.284  17.090   9.179  0.00  0.00     0.078 A 
HETATM    7  C   UNK N   1      34.027  18.150   8.170  0.00  0.00     0.089 C 
HETATM    8  N   UNK N   1      33.716  15.862   9.037  0.00  0.00    -0.332 N 
ATOM      9  HN  UNK N   1      33.114  15.676   8.235  1.00  0.00     0.168 HD
HETATM   10  C   UNK N   1      33.938  14.879   9.950  0.00  0.00     0.107 A 
ENDROOT
BRANCH  10  11
HETATM   11  N   UNK N   1      33.335  13.616   9.775  0.00  0.00    -0.385 N 
HETATM   12  H   UNK N   1      32.807  13.431   8.964  0.00  0.00     0.157 HD
HETATM   13  H   UNK N   1      33.440  12.919  10.462  0.00  0.00     0.157 HD
ENDBRANCH  10  11
TORSDOF 1
ENDMDL
MODEL 9
REMARK VINA RESULT:      -3.9      8.701     10.347
REMARK  1 active torsions:
REMARK  status: ('A' for Active; 'I' for Inactive)
REMARK    1  A    between atoms: C_10  and  N_11 
ROOT
HETATM    1  C   UNK N   1      28.407  17.449   7.738  0.00  0.00     0.054 C 
HETATM    2  C   UNK N   1      29.893  17.563   7.761  0.00  0.00    -0.003 A 
HETATM    3  C   UNK N   1      30.634  17.128   6.666  0.00  0.00     0.099 A 
HETATM    4  N   UNK N   1      31.988  17.227   6.677  0.00  0.00    -0.355 N 
ATOM      5  HN  UNK N   1      32.522  16.906   5.870  1.00  0.00     0.166 HD
HETATM    6  C   UNK N   1      32.639  17.750   7.749  0.00  0.00     0.078 A 
HETATM    7  C   UNK N   1      34.122  17.848   7.737  0.00  0.00     0.089 C 
HETATM    8  N   UNK N   1      31.936  18.181   8.830  0.00  0.00    -0.332 N 
ATOM      9  HN  UNK N   1      32.435  18.572   9.630  1.00  0.00     0.168 HD
HETATM   10  C   UNK N   1      30.580  18.100   8.860  0.00  0.00     0.107 A 
ENDROOT
BRANCH  10  11
HETATM   11  N   UNK N   1      29.879  18.557   9.997  0.00  0.00    -0.385 N 
HETATM   12  H   UNK N   1      29.511  17.908  10.641  0.00  0.00     0.157 HD
HETATM   13  H   UNK N   1      29.757  19.522  10.147  0.00  0.00     0.157 HD
ENDBRANCH  10  11
TORSDOF 1
ENDMDL
