MODEL 1
REMARK VINA RESULT:      -4.7      0.000      0.000
REMARK  6 active torsions:
REMARK  status: ('A' for Active; 'I' for Inactive)
REMARK    1  A    between atoms: O_1  and  C_2 
REMARK    2  A    between atoms: C_3  and  C_2 
REMARK    3  A    between atoms: C_5  and  C_6 
REMARK    4  A    between atoms: C_6  and  O_7 
REMARK    5  A    between atoms: C_8  and  O_9 
REMARK    6  A    between atoms: C_10  and  O_11 
ROOT
HETATM    1  C   UNK N   1      34.615  16.915   8.406  0.00  0.00     0.132 C 
HETATM    2  N   UNK N   1      33.628  16.018   7.803  0.00  0.00    -0.404 N 
HETATM    3  C   UNK N   1      33.188  15.152   8.895  0.00  0.00     0.132 C 
HETATM    4  C   UNK N   1      34.202  15.308  10.005  0.00  0.00     0.173 C 
HETATM    5  C   UNK N   1      34.458  16.777   9.904  0.00  0.00     0.173 C 
HETATM    6  H   UNK N   1      33.314  16.002   6.832  0.00  0.00     0.154 HD
ENDROOT
BRANCH   1   7
HETATM    7  C   UNK N   1      34.404  18.342   7.936  0.00  0.00     0.191 C 
BRANCH   7   8
HETATM    8  O   UNK N   1      35.338  19.183   8.540  0.00  0.00    -0.399 OA
HETATM    9  H   UNK N   1      35.511  20.089   8.240  0.00  0.00     0.209 HD
ENDBRANCH   7   8
ENDBRANCH   1   7
BRANCH   5  10
HETATM   10  O   UNK N   1      35.621  17.145  10.581  0.00  0.00    -0.391 OA
HETATM   11  H   UNK N   1      36.278  16.548  10.973  0.00  0.00     0.210 HD
ENDBRANCH   5  10
BRANCH   3  12
HETATM   12  C   UNK N   1      33.065  13.710   8.437  0.00  0.00     0.191 C 
BRANCH  12  13
HETATM   13  O   UNK N   1      32.240  13.010   9.318  0.00  0.00    -0.399 OA
HETATM   14  H   UNK N   1      31.316  12.778   9.134  0.00  0.00     0.209 HD
ENDBRANCH  12  13
ENDBRANCH   3  12
BRANCH   4  15
HETATM   15  O   UNK N   1      33.662  14.968  11.244  0.00  0.00    -0.391 OA
HETATM   16  H   UNK N   1      32.731  14.807  11.465  0.00  0.00     0.210 HD
ENDBRANCH   4  15
TORSDOF 6
ENDMDL
MODEL 2
REMARK VINA RESULT:      -4.7      0.064      4.012
REMARK  6 active torsions:
REMARK  status: ('A' for Active; 'I' for Inactive)
REMARK    1  A    between atoms: O_1  and  C_2 
REMARK    2  A    between atoms: C_3  and  C_2 
REMARK    3  A    between atoms: C_5  and  C_6 
REMARK    4  A    between atoms: C_6  and  O_7 
REMARK    5  A    between atoms: C_8  and  O_9 
REMARK    6  A    between atoms: C_10  and  O_11 
ROOT
HETATM    1  C   UNK N   1      33.136  15.138   8.890  0.00  0.00     0.132 C 
HETATM    2  N   UNK N   1      33.532  16.035   7.803  0.00  0.00    -0.404 N 
HETATM    3  C   UNK N   1      34.529  16.926   8.393  0.00  0.00     0.132 C 
HETATM    4  C   UNK N   1      34.407  16.778   9.892  0.00  0.00     0.173 C 
HETATM    5  C   UNK N   1      34.171  15.306   9.979  0.00  0.00     0.173 C 
HETATM    6  H   UNK N   1      33.189  16.037   6.842  0.00  0.00     0.154 HD
ENDROOT
BRANCH   1   7
HETATM    7  C   UNK N   1      33.044  13.706   8.400  0.00  0.00     0.191 C 
BRANCH   7   8
HETATM    8  O   UNK N   1      32.266  12.953   9.279  0.00  0.00    -0.399 OA
HETATM    9  H   UNK N   1      32.452  12.025   9.492  0.00  0.00     0.209 HD
ENDBRANCH   7   8
ENDBRANCH   1   7
BRANCH   5  10
HETATM   10  O   UNK N   1      33.669  14.937  11.228  0.00  0.00    -0.391 OA
HETATM   11  H   UNK N   1      33.685  14.051  11.622  0.00  0.00     0.210 HD
ENDBRANCH   5  10
BRANCH   3  12
HETATM   12  C   UNK N   1      34.319  18.360   7.944  0.00  0.00     0.191 C 
BRANCH  12  13
HETATM   13  O   UNK N   1      35.293  19.177   8.521  0.00  0.00    -0.399 OA
HETATM   14  H   UNK N   1      35.183  20.128   8.681  0.00  0.00     0.209 HD
ENDBRANCH  12  13
ENDBRANCH   3  12
BRANCH   4  15
HETATM   15  O   UNK N   1      35.584  17.147  10.542  0.00  0.00    -0.391 OA
HETATM   16  H   UNK N   1      36.036  16.684  11.264  0.00  0.00     0.210 HD
ENDBRANCH   4  15
TORSDOF 6
ENDMDL
MODEL 3
REMARK VINA RESULT:      -4.6     15.362     16.308
REMARK  6 active torsions:
REMARK  status: ('A' for Active; 'I' for Inactive)
REMARK    1  A    between atoms: O_1  and  C_2 
REMARK    2  A    between atoms: C_3  and  C_2 
REMARK    3  A    between atoms: C_5  and  C_6 
REMARK    4  A    between atoms: C_6  and  O_7 
REMARK    5  A    between atoms: C_8  and  O_9 
REMARK    6  A    between atoms: C_10  and  O_11 
ROOT
HETATM    1  C   UNK N   1      19.721  17.552   1.574  0.00  0.00     0.132 C 
HETATM    2  N   UNK N   1      20.424  18.578   0.802  0.00  0.00    -0.404 N 
HETATM    3  C   UNK N   1      20.824  19.583   1.786  0.00  0.00     0.132 C 
HETATM    4  C   UNK N   1      20.016  19.310   3.034  0.00  0.00     0.173 C 
HETATM    5  C   UNK N   1      20.044  17.817   3.028  0.00  0.00     0.173 C 
HETATM    6  H   UNK N   1      20.598  18.589  -0.203  0.00  0.00     0.154 HD
ENDROOT
BRANCH   1   7
HETATM    7  C   UNK N   1      20.146  16.163   1.136  0.00  0.00     0.191 C 
BRANCH   7   8
HETATM    8  O   UNK N   1      19.287  15.210   1.682  0.00  0.00    -0.399 OA
HETATM    9  H   UNK N   1      18.776  14.585   1.145  0.00  0.00     0.209 HD
ENDBRANCH   7   8
ENDBRANCH   1   7
BRANCH   5  10
HETATM   10  O   UNK N   1      19.075  17.280   3.877  0.00  0.00    -0.391 OA
HETATM   11  H   UNK N   1      18.307  16.746   3.618  0.00  0.00     0.210 HD
ENDBRANCH   5  10
BRANCH   3  12
HETATM   12  C   UNK N   1      20.599  20.988   1.258  0.00  0.00     0.191 C 
BRANCH  12  13
HETATM   13  O   UNK N   1      20.748  20.994  -0.129  0.00  0.00    -0.399 OA
HETATM   14  H   UNK N   1      21.224  20.313  -0.630  0.00  0.00     0.209 HD
ENDBRANCH  12  13
ENDBRANCH   3  12
BRANCH   4  15
HETATM   15  O   UNK N   1      20.636  19.829   4.170  0.00  0.00    -0.391 OA
HETATM   16  H   UNK N   1      20.345  19.759   5.092  0.00  0.00     0.210 HD
ENDBRANCH   4  15
TORSDOF 6
ENDMDL
MODEL 4
REMARK VINA RESULT:      -4.6     15.355     15.850
REMARK  6 active torsions:
REMARK  status: ('A' for Active; 'I' for Inactive)
REMARK    1  A    between atoms: O_1  and  C_2 
REMARK    2  A    between atoms: C_3  and  C_2 
REMARK    3  A    between atoms: C_5  and  C_6 
REMARK    4  A    between atoms: C_6  and  O_7 
REMARK    5  A    between atoms: C_8  and  O_9 
REMARK    6  A    between atoms: C_10  and  O_11 
ROOT
HETATM    1  C   UNK N   1      20.840  19.604   1.794  0.00  0.00     0.132 C 
HETATM    2  N   UNK N   1      20.457  18.590   0.810  0.00  0.00    -0.404 N 
HETATM    3  C   UNK N   1      19.739  17.573   1.576  0.00  0.00     0.132 C 
HETATM    4  C   UNK N   1      20.054  17.827   3.032  0.00  0.00     0.173 C 
HETATM    5  C   UNK N   1      20.026  19.321   3.036  0.00  0.00     0.173 C 
HETATM    6  H   UNK N   1      20.649  18.592  -0.192  0.00  0.00     0.154 HD
ENDROOT
BRANCH   1   7
HETATM    7  C   UNK N   1      20.594  20.999   1.252  0.00  0.00     0.191 C 
BRANCH   7   8
HETATM    8  O   UNK N   1      20.730  20.999  -0.136  0.00  0.00    -0.399 OA
HETATM    9  H   UNK N   1      21.271  20.354  -0.617  0.00  0.00     0.209 HD
ENDBRANCH   7   8
ENDBRANCH   1   7
BRANCH   5  10
HETATM   10  O   UNK N   1      20.632  19.844   4.180  0.00  0.00    -0.391 OA
HETATM   11  H   UNK N   1      20.421  19.625   5.101  0.00  0.00     0.210 HD
ENDBRANCH   5  10
BRANCH   3  12
HETATM   12  C   UNK N   1      20.139  16.174   1.143  0.00  0.00     0.191 C 
BRANCH  12  13
HETATM   13  O   UNK N   1      19.288  15.242   1.738  0.00  0.00    -0.399 OA
HETATM   14  H   UNK N   1      18.383  15.436   2.028  0.00  0.00     0.209 HD
ENDBRANCH  12  13
ENDBRANCH   3  12
BRANCH   4  15
HETATM   15  O   UNK N   1      19.074  17.295   3.869  0.00  0.00    -0.391 OA
HETATM   16  H   UNK N   1      19.128  17.137   4.824  0.00  0.00     0.210 HD
ENDBRANCH   4  15
TORSDOF 6
ENDMDL
MODEL 5
REMARK VINA RESULT:      -4.5     14.227     14.860
REMARK  6 active torsions:
REMARK  status: ('A' for Active; 'I' for Inactive)
REMARK    1  A    between atoms: O_1  and  C_2 
REMARK    2  A    between atoms: C_3  and  C_2 
REMARK    3  A    between atoms: C_5  and  C_6 
REMARK    4  A    between atoms: C_6  and  O_7 
REMARK    5  A    between atoms: C_8  and  O_9 
REMARK    6  A    between atoms: C_10  and  O_11 
ROOT
HETATM    1  C   UNK N   1      21.974  19.325   3.669  0.00  0.00     0.132 C 
HETATM    2  N   UNK N   1      21.964  17.877   3.457  0.00  0.00    -0.404 N 
HETATM    3  C   UNK N   1      20.640  17.585   2.910  0.00  0.00     0.132 C 
HETATM    4  C   UNK N   1      19.785  18.801   3.178  0.00  0.00     0.173 C 
HETATM    5  C   UNK N   1      20.788  19.876   2.910  0.00  0.00     0.173 C 
HETATM    6  H   UNK N   1      22.717  17.216   3.647  0.00  0.00     0.154 HD
ENDROOT
BRANCH   1   7
HETATM    7  C   UNK N   1      23.285  19.929   3.203  0.00  0.00     0.191 C 
BRANCH   7   8
HETATM    8  O   UNK N   1      23.106  21.280   2.908  0.00  0.00    -0.399 OA
HETATM    9  H   UNK N   1      23.725  21.972   3.189  0.00  0.00     0.209 HD
ENDBRANCH   7   8
ENDBRANCH   1   7
BRANCH   5  10
HETATM   10  O   UNK N   1      20.374  21.106   3.422  0.00  0.00    -0.391 OA
HETATM   11  H   UNK N   1      19.677  21.679   3.064  0.00  0.00     0.210 HD
ENDBRANCH   5  10
BRANCH   3  12
HETATM   12  C   UNK N   1      20.054  16.330   3.531  0.00  0.00     0.191 C 
BRANCH  12  13
HETATM   13  O   UNK N   1      18.864  16.646   4.187  0.00  0.00    -0.399 OA
HETATM   14  H   UNK N   1      18.002  16.722   3.747  0.00  0.00     0.209 HD
ENDBRANCH  12  13
ENDBRANCH   3  12
BRANCH   4  15
HETATM   15  O   UNK N   1      18.708  18.875   2.296  0.00  0.00    -0.391 OA
HETATM   16  H   UNK N   1      18.549  18.340   1.503  0.00  0.00     0.210 HD
ENDBRANCH   4  15
TORSDOF 6
ENDMDL
MODEL 6
REMARK VINA RESULT:      -4.5     14.182     15.287
REMARK  6 active torsions:
REMARK  status: ('A' for Active; 'I' for Inactive)
REMARK    1  A    between atoms: O_1  and  C_2 
REMARK    2  A    between atoms: C_3  and  C_2 
REMARK    3  A    between atoms: C_5  and  C_6 
REMARK    4  A    between atoms: C_6  and  O_7 
REMARK    5  A    between atoms: C_8  and  O_9 
REMARK    6  A    between atoms: C_10  and  O_11 
ROOT
HETATM    1  C   UNK N   1      20.690  17.558   2.959  0.00  0.00     0.132 C 
HETATM    2  N   UNK N   1      22.019  17.871   3.489  0.00  0.00    -0.404 N 
HETATM    3  C   UNK N   1      22.024  19.322   3.661  0.00  0.00     0.132 C 
HETATM    4  C   UNK N   1      20.851  19.855   2.873  0.00  0.00     0.173 C 
HETATM    5  C   UNK N   1      19.844  18.793   3.174  0.00  0.00     0.173 C 
HETATM    6  H   UNK N   1      22.775  17.218   3.695  0.00  0.00     0.154 HD
ENDROOT
BRANCH   1   7
HETATM    7  C   UNK N   1      20.110  16.337   3.646  0.00  0.00     0.191 C 
BRANCH   7   8
HETATM    8  O   UNK N   1      18.842  16.632   4.145  0.00  0.00    -0.399 OA
HETATM    9  H   UNK N   1      18.516  17.538   4.266  0.00  0.00     0.209 HD
ENDBRANCH   7   8
ENDBRANCH   1   7
BRANCH   5  10
HETATM   10  O   UNK N   1      18.766  18.839   2.290  0.00  0.00    -0.391 OA
HETATM   11  H   UNK N   1      17.824  18.788   2.519  0.00  0.00     0.210 HD
ENDBRANCH   5  10
BRANCH   3  12
HETATM   12  C   UNK N   1      23.339  19.925   3.202  0.00  0.00     0.191 C 
BRANCH  12  13
HETATM   13  O   UNK N   1      23.156  21.278   2.914  0.00  0.00    -0.399 OA
HETATM   14  H   UNK N   1      22.672  21.611   2.142  0.00  0.00     0.209 HD
ENDBRANCH  12  13
ENDBRANCH   3  12
BRANCH   4  15
HETATM   15  O   UNK N   1      20.437  21.100   3.345  0.00  0.00    -0.391 OA
HETATM   16  H   UNK N   1      20.168  21.874   2.827  0.00  0.00     0.210 HD
ENDBRANCH   4  15
TORSDOF 6
ENDMDL
MODEL 7
REMARK VINA RESULT:      -4.4     11.094     12.629
REMARK  6 active torsions:
REMARK  status: ('A' for Active; 'I' for Inactive)
REMARK    1  A    between atoms: O_1  and  C_2 
REMARK    2  A    between atoms: C_3  and  C_2 
REMARK    3  A    between atoms: C_5  and  C_6 
REMARK    4  A    between atoms: C_6  and  O_7 
REMARK    5  A    between atoms: C_8  and  O_9 
REMARK    6  A    between atoms: C_10  and  O_11 
ROOT
HETATM    1  C   UNK N   1      43.611  21.581   3.677  0.00  0.00     0.132 C 
HETATM    2  N   UNK N   1      42.917  20.621   2.816  0.00  0.00    -0.404 N 
HETATM    3  C   UNK N   1      42.077  21.438   1.941  0.00  0.00     0.132 C 
HETATM    4  C   UNK N   1      42.011  22.812   2.566  0.00  0.00     0.173 C 
HETATM    5  C   UNK N   1      43.422  22.939   3.039  0.00  0.00     0.173 C 
HETATM    6  H   UNK N   1      43.002  19.604   2.824  0.00  0.00     0.154 HD
ENDROOT
BRANCH   1   7
HETATM    7  C   UNK N   1      45.075  21.213   3.822  0.00  0.00     0.191 C 
BRANCH   7   8
HETATM    8  O   UNK N   1      45.806  22.330   4.225  0.00  0.00    -0.399 OA
HETATM    9  H   UNK N   1      46.774  22.336   4.290  0.00  0.00     0.209 HD
ENDBRANCH   7   8
ENDBRANCH   1   7
BRANCH   5  10
HETATM   10  O   UNK N   1      43.562  23.969   3.970  0.00  0.00    -0.391 OA
HETATM   11  H   UNK N   1      43.123  24.834   3.949  0.00  0.00     0.210 HD
ENDBRANCH   5  10
BRANCH   3  12
HETATM   12  C   UNK N   1      40.700  20.823   1.772  0.00  0.00     0.191 C 
BRANCH  12  13
HETATM   13  O   UNK N   1      39.796  21.461   2.622  0.00  0.00    -0.399 OA
HETATM   14  H   UNK N   1      40.054  22.042   3.356  0.00  0.00     0.209 HD
ENDBRANCH  12  13
ENDBRANCH   3  12
BRANCH   4  15
HETATM   15  O   UNK N   1      41.698  23.790   1.622  0.00  0.00    -0.391 OA
HETATM   16  H   UNK N   1      40.957  24.415   1.636  0.00  0.00     0.210 HD
ENDBRANCH   4  15
TORSDOF 6
ENDMDL
MODEL 8
REMARK VINA RESULT:      -4.4     11.102     12.874
REMARK  6 active torsions:
REMARK  status: ('A' for Active; 'I' for Inactive)
REMARK    1  A    between atoms: O_1  and  C_2 
REMARK    2  A    between atoms: C_3  and  C_2 
REMARK    3  A    between atoms: C_5  and  C_6 
REMARK    4  A    between atoms: C_6  and  O_7 
REMARK    5  A    between atoms: C_8  and  O_9 
REMARK    6  A    between atoms: C_10  and  O_11 
ROOT
HETATM    1  C   UNK N   1      42.083  21.460   1.933  0.00  0.00     0.132 C 
HETATM    2  N   UNK N   1      42.940  20.635   2.786  0.00  0.00    -0.404 N 
HETATM    3  C   UNK N   1      43.614  21.581   3.673  0.00  0.00     0.132 C 
HETATM    4  C   UNK N   1      43.427  22.951   3.064  0.00  0.00     0.173 C 
HETATM    5  C   UNK N   1      42.017  22.822   2.586  0.00  0.00     0.173 C 
HETATM    6  H   UNK N   1      43.043  19.620   2.767  0.00  0.00     0.154 HD
ENDROOT
BRANCH   1   7
HETATM    7  C   UNK N   1      40.711  20.831   1.778  0.00  0.00     0.191 C 
BRANCH   7   8
HETATM    8  O   UNK N   1      39.802  21.463   2.625  0.00  0.00    -0.399 OA
HETATM    9  H   UNK N   1      39.039  21.011   3.018  0.00  0.00     0.209 HD
ENDBRANCH   7   8
ENDBRANCH   1   7
BRANCH   5  10
HETATM   10  O   UNK N   1      41.692  23.820   1.666  0.00  0.00    -0.391 OA
HETATM   11  H   UNK N   1      40.965  23.802   1.023  0.00  0.00     0.210 HD
ENDBRANCH   5  10
BRANCH   3  12
HETATM   12  C   UNK N   1      45.080  21.228   3.841  0.00  0.00     0.191 C 
BRANCH  12  13
HETATM   13  O   UNK N   1      45.796  22.370   4.205  0.00  0.00    -0.399 OA
HETATM   14  H   UNK N   1      45.418  23.263   4.239  0.00  0.00     0.209 HD
ENDBRANCH  12  13
ENDBRANCH   3  12
BRANCH   4  15
HETATM   15  O   UNK N   1      43.553  23.959   4.019  0.00  0.00    -0.391 OA
HETATM   16  H   UNK N   1      43.390  24.908   3.908  0.00  0.00     0.210 HD
ENDBRANCH   4  15
TORSDOF 6
ENDMDL
MODEL 9
REMARK VINA RESULT:      -4.3     14.308     15.374
REMARK  6 active torsions:
REMARK  status: ('A' for Active; 'I' for Inactive)
REMARK    1  A    between atoms: O_1  and  C_2 
REMARK    2  A    between atoms: C_3  and  C_2 
REMARK    3  A    between atoms: C_5  and  C_6 
REMARK    4  A    between atoms: C_6  and  O_7 
REMARK    5  A    between atoms: C_8  and  O_9 
REMARK    6  A    between atoms: C_10  and  O_11 
ROOT
HETATM    1  C   UNK N   1      21.127  17.806   4.342  0.00  0.00     0.132 C 
HETATM    2  N   UNK N   1      21.413  19.226   4.125  0.00  0.00    -0.404 N 
HETATM    3  C   UNK N   1      20.320  19.706   3.282  0.00  0.00     0.132 C 
HETATM    4  C   UNK N   1      19.641  18.481   2.715  0.00  0.00     0.173 C 
HETATM    5  C   UNK N   1      19.692  17.590   3.914  0.00  0.00     0.173 C 
HETATM    6  H   UNK N   1      22.202  19.762   4.485  0.00  0.00     0.154 HD
ENDROOT
BRANCH   1   7
HETATM    7  C   UNK N   1      21.356  17.426   5.792  0.00  0.00     0.191 C 
BRANCH   7   8
HETATM    8  O   UNK N   1      21.369  18.573   6.586  0.00  0.00    -0.399 OA
HETATM    9  H   UNK N   1      21.539  18.556   7.541  0.00  0.00     0.209 HD
ENDBRANCH   7   8
ENDBRANCH   1   7
BRANCH   5  10
HETATM   10  O   UNK N   1      19.450  16.258   3.576  0.00  0.00    -0.391 OA
HETATM   11  H   UNK N   1      20.020  15.681   3.045  0.00  0.00     0.210 HD
ENDBRANCH   5  10
BRANCH   3  12
HETATM   12  C   UNK N   1      20.833  20.628   2.190  0.00  0.00     0.191 C 
BRANCH  12  13
HETATM   13  O   UNK N   1      21.676  21.589   2.750  0.00  0.00    -0.399 OA
HETATM   14  H   UNK N   1      22.036  21.542   3.650  0.00  0.00     0.209 HD
ENDBRANCH  12  13
ENDBRANCH   3  12
BRANCH   4  15
HETATM   15  O   UNK N   1      18.327  18.752   2.336  0.00  0.00    -0.391 OA
HETATM   16  H   UNK N   1      17.654  19.244   2.830  0.00  0.00     0.210 HD
ENDBRANCH   4  15
TORSDOF 6
ENDMDL
