MODEL 1
REMARK VINA RESULT:      -8.9      0.000      0.000
REMARK  10 active torsions:
REMARK  status: ('A' for Active; 'I' for Inactive)
REMARK    1  A    between atoms: C_22  and  C_8 
REMARK    2  A    between atoms: C_23  and  C_9 
REMARK    3  A    between atoms: C_12  and  C_10 
REMARK    4  A    between atoms: C_24  and  C_10 
REMARK    5  A    between atoms: C_13  and  C_11 
REMARK    6  A    between atoms: C_25  and  C_11 
REMARK    7  A    between atoms: C_34  and  C_12 
REMARK    8  A    between atoms: C_35  and  C_13 
REMARK    9  A    between atoms: O_41  and  C_34 
REMARK   10  A    between atoms: O_43  and  C_35 
ROOT
HETATM    1  C   UNK N   1      25.594  19.743   3.319  0.00  0.00     0.051 C 
HETATM    2  C   UNK N   1      30.488  19.091   9.118  0.00  0.00     0.051 C 
HETATM    3  C   UNK N   1      31.594  11.642   2.913  0.00  0.00     0.051 C 
HETATM    4  C   UNK N   1      26.517  12.332   1.233  0.00  0.00     0.051 C 
HETATM    5  C   UNK N   1      28.673  15.859   3.138  0.00  0.00     0.325 C 
HETATM    6  C   UNK N   1      28.368  18.390   7.188  0.00  0.00     0.064 C 
HETATM    7  C   UNK N   1      31.520  15.109   6.546  0.00  0.00     0.064 C 
HETATM    8  C   UNK N   1      28.833  12.950   3.221  0.00  0.00     0.073 C 
HETATM    9  C   UNK N   1      25.807  16.683   3.364  0.00  0.00     0.073 C 
HETATM   10  C   UNK N   1      26.255  18.914   4.367  0.00  0.00    -0.025 C 
HETATM   11  C   UNK N   1      30.362  17.865   8.267  0.00  0.00    -0.025 A 
HETATM   12  C   UNK N   1      31.134  12.630   3.937  0.00  0.00    -0.025 A 
HETATM   13  C   UNK N   1      26.602  13.528   2.125  0.00  0.00    -0.016 C 
HETATM   14  C   UNK N   1      26.994  19.366   5.416  0.00  0.00    -0.021 C 
HETATM   15  C   UNK N   1      25.789  14.572   2.110  0.00  0.00    -0.013 C 
HETATM   16  C   UNK N   1      31.331  16.944   8.027  0.00  0.00    -0.021 A 
HETATM   17  C   UNK N   1      31.897  13.318   4.770  0.00  0.00    -0.021 A 
HETATM   18  C   UNK N   1      29.320  17.541   7.431  0.00  0.00     0.066 A 
HETATM   19  C   UNK N   1      29.805  13.191   4.070  0.00  0.00     0.066 A 
HETATM   20  C   UNK N   1      26.395  17.549   4.363  0.00  0.00     0.066 C 
HETATM   21  C   UNK N   1      27.500  18.266   6.055  0.00  0.00     0.066 C 
HETATM   22  C   UNK N   1      30.812  16.064   7.094  0.00  0.00     0.066 A 
HETATM   23  C   UNK N   1      31.024  14.247   5.503  0.00  0.00     0.066 A 
HETATM   24  C   UNK N   1      27.662  13.815   3.110  0.00  0.00     0.183 C 
HETATM   25  C   UNK N   1      26.319  15.503   3.093  0.00  0.00     0.184 C 
HETATM   26 Cu   UNK N   1      28.187  15.360   5.507  0.00  0.00     0.000 Cu
HETATM   27  N   UNK N   1      29.537  16.381   6.763  0.00  0.00    -0.248 N 
HETATM   28  N   UNK N   1      27.242  17.154   5.349  0.00  0.00    -0.248 N 
HETATM   29  N   UNK N   1      29.820  14.204   5.051  0.00  0.00    -0.248 N 
HETATM   30  N   UNK N   1      27.571  15.018   3.571  0.00  0.00     0.157 N 
ENDROOT
BRANCH  16  31
HETATM   31  C   UNK N   1      32.729  16.978   8.555  0.00  0.00     0.052 C 
BRANCH  31  32
HETATM   32  C   UNK N   1      33.606  17.935   7.774  0.00  0.00     0.115 C 
BRANCH  32  33
HETATM   33  C   UNK N   1      34.781  18.311   8.609  0.00  0.00     0.139 C 
HETATM   34  O   UNK N   1      35.361  19.368   8.415  0.00  0.00    -0.650 OA
BRANCH  33  35
HETATM   35  O   UNK N   1      35.207  17.480   9.578  0.00  0.00    -0.776 OA
HETATM   36  H   UNK N   1      35.392  17.753  10.455  0.00  0.00     0.167 HD
ENDBRANCH  33  35
ENDBRANCH  32  33
ENDBRANCH  31  32
ENDBRANCH  16  31
BRANCH  17  37
HETATM   37  C   UNK N   1      33.392  13.303   4.815  0.00  0.00     0.052 C 
BRANCH  37  38
HETATM   38  C   UNK N   1      34.000  14.594   4.324  0.00  0.00     0.115 C 
BRANCH  38  39
HETATM   39  C   UNK N   1      33.614  14.875   2.908  0.00  0.00     0.139 C 
HETATM   40  O   UNK N   1      33.971  14.142   1.997  0.00  0.00    -0.650 OA
BRANCH  39  41
HETATM   41  O   UNK N   1      32.866  15.958   2.639  0.00  0.00    -0.776 OA
HETATM   42  H   UNK N   1      33.125  16.836   2.437  0.00  0.00     0.167 HD
ENDBRANCH  39  41
ENDBRANCH  38  39
ENDBRANCH  37  38
ENDBRANCH  17  37
BRANCH  14  43
HETATM   43  C   UNK N   1      27.418  20.770   5.671  0.00  0.00     0.037 C 
HETATM   44  C   UNK N   1      26.370  21.371   6.617  0.00  0.00     0.010 C 
ENDBRANCH  14  43
BRANCH  15  45
HETATM   45  C   UNK N   1      24.618  14.802   1.195  0.00  0.00     0.037 C 
HETATM   46  C   UNK N   1      23.323  14.279   1.782  0.00  0.00     0.010 C 
ENDBRANCH  15  45
TORSDOF 10
ENDMDL
MODEL 2
REMARK VINA RESULT:      -8.0      4.330      7.598
REMARK  10 active torsions:
REMARK  status: ('A' for Active; 'I' for Inactive)
REMARK    1  A    between atoms: C_22  and  C_8 
REMARK    2  A    between atoms: C_23  and  C_9 
REMARK    3  A    between atoms: C_12  and  C_10 
REMARK    4  A    between atoms: C_24  and  C_10 
REMARK    5  A    between atoms: C_13  and  C_11 
REMARK    6  A    between atoms: C_25  and  C_11 
REMARK    7  A    between atoms: C_34  and  C_12 
REMARK    8  A    between atoms: C_35  and  C_13 
REMARK    9  A    between atoms: O_41  and  C_34 
REMARK   10  A    between atoms: O_43  and  C_35 
ROOT
HETATM    1  C   UNK N   1      31.523  16.300   8.688  0.00  0.00     0.051 C 
HETATM    2  C   UNK N   1      26.050  20.662   5.681  0.00  0.00     0.051 C 
HETATM    3  C   UNK N   1      26.067  11.870   1.450  0.00  0.00     0.051 C 
HETATM    4  C   UNK N   1      31.255  11.270   2.793  0.00  0.00     0.051 C 
HETATM    5  C   UNK N   1      28.705  14.163   5.211  0.00  0.00     0.325 C 
HETATM    6  C   UNK N   1      28.410  18.897   5.848  0.00  0.00     0.064 C 
HETATM    7  C   UNK N   1      25.538  16.580   3.110  0.00  0.00     0.064 C 
HETATM    8  C   UNK N   1      28.699  13.029   2.526  0.00  0.00     0.073 C 
HETATM    9  C   UNK N   1      31.476  15.064   5.881  0.00  0.00     0.073 C 
HETATM   10  C   UNK N   1      30.796  16.826   7.497  0.00  0.00    -0.025 C 
HETATM   11  C   UNK N   1      26.340  19.407   4.916  0.00  0.00    -0.025 A 
HETATM   12  C   UNK N   1      26.353  13.256   1.929  0.00  0.00    -0.025 A 
HETATM   13  C   UNK N   1      31.003  12.554   3.515  0.00  0.00    -0.016 C 
HETATM   14  C   UNK N   1      29.918  17.866   7.474  0.00  0.00    -0.021 C 
HETATM   15  C   UNK N   1      31.754  13.070   4.475  0.00  0.00    -0.013 C 
HETATM   16  C   UNK N   1      25.456  18.692   4.172  0.00  0.00    -0.021 A 
HETATM   17  C   UNK N   1      25.464  14.194   2.210  0.00  0.00    -0.021 A 
HETATM   18  C   UNK N   1      27.486  18.650   4.970  0.00  0.00     0.066 A 
HETATM   19  C   UNK N   1      27.625  13.773   2.391  0.00  0.00     0.066 A 
HETATM   20  C   UNK N   1      30.733  16.248   6.256  0.00  0.00     0.066 C 
HETATM   21  C   UNK N   1      29.406  17.931   6.206  0.00  0.00     0.066 C 
HETATM   22  C   UNK N   1      26.126  17.554   3.757  0.00  0.00     0.066 A 
HETATM   23  C   UNK N   1      26.196  15.346   2.758  0.00  0.00     0.066 A 
HETATM   24  C   UNK N   1      29.824  13.429   3.366  0.00  0.00     0.183 C 
HETATM   25  C   UNK N   1      31.065  14.272   4.915  0.00  0.00     0.184 C 
HETATM   26 Cu   UNK N   1      28.948  16.161   3.782  0.00  0.00     0.000 Cu
HETATM   27  N   UNK N   1      27.410  17.544   4.188  0.00  0.00    -0.248 N 
HETATM   28  N   UNK N   1      29.804  16.871   5.485  0.00  0.00    -0.248 N 
HETATM   29  N   UNK N   1      27.443  15.071   2.910  0.00  0.00    -0.248 N 
HETATM   30  N   UNK N   1      29.796  14.349   4.272  0.00  0.00     0.157 N 
ENDROOT
BRANCH  16  31
HETATM   31  C   UNK N   1      24.008  19.008   3.979  0.00  0.00     0.052 C 
BRANCH  31  32
HETATM   32  C   UNK N   1      23.803  20.180   3.044  0.00  0.00     0.115 C 
BRANCH  32  33
HETATM   33  C   UNK N   1      22.342  20.418   2.872  0.00  0.00     0.139 C 
HETATM   34  O   UNK N   1      21.559  19.482   2.896  0.00  0.00    -0.650 OA
BRANCH  33  35
HETATM   35  O   UNK N   1      21.886  21.670   2.685  0.00  0.00    -0.776 OA
HETATM   36  H   UNK N   1      21.148  21.881   2.148  0.00  0.00     0.167 HD
ENDBRANCH  33  35
ENDBRANCH  32  33
ENDBRANCH  31  32
ENDBRANCH  16  31
BRANCH  17  37
HETATM   37  C   UNK N   1      23.976  14.042   2.172  0.00  0.00     0.052 C 
BRANCH  37  38
HETATM   38  C   UNK N   1      23.414  14.193   0.780  0.00  0.00     0.115 C 
BRANCH  38  39
HETATM   39  C   UNK N   1      21.920  14.237   0.797  0.00  0.00     0.139 C 
HETATM   40  O   UNK N   1      21.318  15.301   0.794  0.00  0.00    -0.650 OA
BRANCH  39  41
HETATM   41  O   UNK N   1      21.235  13.082   0.822  0.00  0.00    -0.776 OA
HETATM   42  H   UNK N   1      21.521  12.206   0.654  0.00  0.00     0.167 HD
ENDBRANCH  39  41
ENDBRANCH  38  39
ENDBRANCH  37  38
ENDBRANCH  17  37
BRANCH  14  43
HETATM   43  C   UNK N   1      29.391  18.617   8.646  0.00  0.00     0.037 C 
HETATM   44  C   UNK N   1      28.184  17.820   9.160  0.00  0.00     0.010 C 
ENDBRANCH  14  43
BRANCH  15  45
HETATM   45  C   UNK N   1      33.005  12.483   5.067  0.00  0.00     0.037 C 
HETATM   46  C   UNK N   1      34.254  12.980   4.369  0.00  0.00     0.010 C 
ENDBRANCH  15  45
TORSDOF 10
ENDMDL
MODEL 3
REMARK VINA RESULT:      -7.9      1.645      5.889
REMARK  10 active torsions:
REMARK  status: ('A' for Active; 'I' for Inactive)
REMARK    1  A    between atoms: C_22  and  C_8 
REMARK    2  A    between atoms: C_23  and  C_9 
REMARK    3  A    between atoms: C_12  and  C_10 
REMARK    4  A    between atoms: C_24  and  C_10 
REMARK    5  A    between atoms: C_13  and  C_11 
REMARK    6  A    between atoms: C_25  and  C_11 
REMARK    7  A    between atoms: C_34  and  C_12 
REMARK    8  A    between atoms: C_35  and  C_13 
REMARK    9  A    between atoms: O_41  and  C_34 
REMARK   10  A    between atoms: O_43  and  C_35 
ROOT
HETATM    1  C   UNK N   1      24.611  14.429   1.918  0.00  0.00     0.051 C 
HETATM    2  C   UNK N   1      31.691  11.713   2.625  0.00  0.00     0.051 C 
HETATM    3  C   UNK N   1      30.061  18.661   9.279  0.00  0.00     0.051 C 
HETATM    4  C   UNK N   1      26.228  20.748   6.111  0.00  0.00     0.051 C 
HETATM    5  C   UNK N   1      27.323  16.360   5.595  0.00  0.00     0.325 C 
HETATM    6  C   UNK N   1      29.483  13.644   2.300  0.00  0.00     0.064 C 
HETATM    7  C   UNK N   1      31.615  15.095   6.102  0.00  0.00     0.064 C 
HETATM    8  C   UNK N   1      28.601  18.787   6.579  0.00  0.00     0.073 C 
HETATM    9  C   UNK N   1      25.941  16.967   3.013  0.00  0.00     0.073 C 
HETATM   10  C   UNK N   1      26.073  14.659   2.096  0.00  0.00    -0.025 C 
HETATM   11  C   UNK N   1      31.427  12.975   3.388  0.00  0.00    -0.025 A 
HETATM   12  C   UNK N   1      30.304  17.855   8.043  0.00  0.00    -0.025 A 
HETATM   13  C   UNK N   1      26.518  19.525   5.302  0.00  0.00    -0.016 C 
HETATM   14  C   UNK N   1      27.067  13.744   1.934  0.00  0.00    -0.021 C 
HETATM   15  C   UNK N   1      25.745  19.010   4.361  0.00  0.00    -0.013 C 
HETATM   16  C   UNK N   1      32.014  13.352   4.554  0.00  0.00    -0.021 A 
HETATM   17  C   UNK N   1      31.040  16.760   7.947  0.00  0.00    -0.021 A 
HETATM   18  C   UNK N   1      30.425  13.887   3.159  0.00  0.00     0.066 A 
HETATM   19  C   UNK N   1      29.616  17.977   6.774  0.00  0.00     0.066 A 
HETATM   20  C   UNK N   1      26.666  15.774   2.632  0.00  0.00     0.066 C 
HETATM   21  C   UNK N   1      28.236  14.350   2.308  0.00  0.00     0.066 C 
HETATM   22  C   UNK N   1      31.378  14.514   4.953  0.00  0.00     0.066 A 
HETATM   23  C   UNK N   1      30.892  16.249   6.576  0.00  0.00     0.066 A 
HETATM   24  C   UNK N   1      27.664  18.611   5.474  0.00  0.00     0.183 C 
HETATM   25  C   UNK N   1      26.406  17.791   3.926  0.00  0.00     0.184 C 
HETATM   26 Cu   UNK N   1      29.230  16.629   4.050  0.00  0.00     0.000 Cu
HETATM   27  N   UNK N   1      30.432  14.898   4.063  0.00  0.00    -0.248 N 
HETATM   28  N   UNK N   1      27.988  15.551   2.853  0.00  0.00    -0.248 N 
HETATM   29  N   UNK N   1      30.021  16.931   5.920  0.00  0.00    -0.248 N 
HETATM   30  N   UNK N   1      27.527  17.537   4.770  0.00  0.00     0.157 N 
ENDROOT
BRANCH  16  31
HETATM   31  C   UNK N   1      33.034  12.573   5.319  0.00  0.00     0.052 C 
BRANCH  31  32
HETATM   32  C   UNK N   1      34.445  13.027   5.008  0.00  0.00     0.115 C 
BRANCH  32  33
HETATM   33  C   UNK N   1      34.967  13.819   6.157  0.00  0.00     0.139 C 
HETATM   34  O   UNK N   1      35.210  15.008   6.025  0.00  0.00    -0.650 OA
BRANCH  33  35
HETATM   35  O   UNK N   1      35.175  13.219   7.343  0.00  0.00    -0.776 OA
HETATM   36  H   UNK N   1      35.989  12.828   7.594  0.00  0.00     0.167 HD
ENDBRANCH  33  35
ENDBRANCH  32  33
ENDBRANCH  31  32
ENDBRANCH  16  31
BRANCH  17  37
HETATM   37  C   UNK N   1      31.730  16.057   9.073  0.00  0.00     0.052 C 
BRANCH  37  38
HETATM   38  C   UNK N   1      33.223  16.275   9.064  0.00  0.00     0.115 C 
BRANCH  38  39
HETATM   39  C   UNK N   1      33.920  15.310   9.966  0.00  0.00     0.139 C 
HETATM   40  O   UNK N   1      35.017  14.854   9.679  0.00  0.00    -0.650 OA
BRANCH  39  41
HETATM   41  O   UNK N   1      33.321  14.938  11.109  0.00  0.00    -0.776 OA
HETATM   42  H   UNK N   1      33.232  14.089  11.496  0.00  0.00     0.167 HD
ENDBRANCH  39  41
ENDBRANCH  38  39
ENDBRANCH  37  38
ENDBRANCH  17  37
BRANCH  14  43
HETATM   43  C   UNK N   1      26.906  12.286   1.678  0.00  0.00     0.037 C 
HETATM   44  C   UNK N   1      26.630  11.638   3.041  0.00  0.00     0.010 C 
ENDBRANCH  14  43
BRANCH  15  45
HETATM   45  C   UNK N   1      24.405  19.517   3.904  0.00  0.00     0.037 C 
HETATM   46  C   UNK N   1      24.531  20.562   2.816  0.00  0.00     0.010 C 
ENDBRANCH  15  45
TORSDOF 10
ENDMDL
MODEL 4
REMARK VINA RESULT:      -7.8      3.889      9.254
REMARK  10 active torsions:
REMARK  status: ('A' for Active; 'I' for Inactive)
REMARK    1  A    between atoms: C_22  and  C_8 
REMARK    2  A    between atoms: C_23  and  C_9 
REMARK    3  A    between atoms: C_12  and  C_10 
REMARK    4  A    between atoms: C_24  and  C_10 
REMARK    5  A    between atoms: C_13  and  C_11 
REMARK    6  A    between atoms: C_25  and  C_11 
REMARK    7  A    between atoms: C_34  and  C_12 
REMARK    8  A    between atoms: C_35  and  C_13 
REMARK    9  A    between atoms: O_41  and  C_34 
REMARK   10  A    between atoms: O_43  and  C_35 
ROOT
HETATM    1  C   UNK N   1      33.336  13.510   4.259  0.00  0.00     0.051 C 
HETATM    2  C   UNK N   1      26.512  12.021   1.222  0.00  0.00     0.051 C 
HETATM    3  C   UNK N   1      26.303  20.535   5.984  0.00  0.00     0.051 C 
HETATM    4  C   UNK N   1      30.441  18.895   9.028  0.00  0.00     0.051 C 
HETATM    5  C   UNK N   1      29.850  16.970   4.946  0.00  0.00     0.325 C 
HETATM    6  C   UNK N   1      28.564  12.689   3.236  0.00  0.00     0.064 C 
HETATM    7  C   UNK N   1      25.665  16.248   3.446  0.00  0.00     0.064 C 
HETATM    8  C   UNK N   1      28.206  18.321   6.938  0.00  0.00     0.073 C 
HETATM    9  C   UNK N   1      31.612  14.985   6.324  0.00  0.00     0.073 C 
HETATM   10  C   UNK N   1      31.851  13.454   4.380  0.00  0.00    -0.025 C 
HETATM   11  C   UNK N   1      26.523  13.142   2.215  0.00  0.00    -0.025 A 
HETATM   12  C   UNK N   1      26.357  19.101   5.565  0.00  0.00    -0.025 A 
HETATM   13  C   UNK N   1      30.410  17.737   8.085  0.00  0.00    -0.016 C 
HETATM   14  C   UNK N   1      30.988  12.850   3.518  0.00  0.00    -0.021 C 
HETATM   15  C   UNK N   1      31.382  16.860   7.892  0.00  0.00    -0.013 C 
HETATM   16  C   UNK N   1      25.705  14.227   2.217  0.00  0.00    -0.021 A 
HETATM   17  C   UNK N   1      25.751  18.559   4.521  0.00  0.00    -0.021 A 
HETATM   18  C   UNK N   1      27.465  13.379   3.187  0.00  0.00     0.066 A 
HETATM   19  C   UNK N   1      27.248  18.077   6.074  0.00  0.00     0.066 A 
HETATM   20  C   UNK N   1      31.075  14.151   5.269  0.00  0.00     0.066 C 
HETATM   21  C   UNK N   1      29.722  13.140   3.950  0.00  0.00     0.066 C 
HETATM   22  C   UNK N   1      26.154  15.053   3.233  0.00  0.00     0.066 A 
HETATM   23  C   UNK N   1      26.186  17.158   4.436  0.00  0.00     0.066 A 
HETATM   24  C   UNK N   1      29.337  17.417   7.123  0.00  0.00     0.183 C 
HETATM   25  C   UNK N   1      30.920  15.981   6.830  0.00  0.00     0.184 C 
HETATM   26 Cu   UNK N   1      28.234  15.218   5.590  0.00  0.00     0.000 Cu
HETATM   27  N   UNK N   1      27.206  14.509   3.891  0.00  0.00    -0.248 N 
HETATM   28  N   UNK N   1      29.760  14.036   4.948  0.00  0.00    -0.248 N 
HETATM   29  N   UNK N   1      27.097  16.903   5.308  0.00  0.00    -0.248 N 
HETATM   30  N   UNK N   1      29.693  16.482   6.305  0.00  0.00     0.157 N 
ENDROOT
BRANCH  16  31
HETATM   31  C   UNK N   1      24.637  14.529   1.215  0.00  0.00     0.052 C 
BRANCH  31  32
HETATM   32  C   UNK N   1      23.320  13.877   1.579  0.00  0.00     0.115 C 
BRANCH  32  33
HETATM   33  C   UNK N   1      22.261  14.923   1.647  0.00  0.00     0.139 C 
HETATM   34  O   UNK N   1      21.508  15.100   0.703  0.00  0.00    -0.650 OA
BRANCH  33  35
HETATM   35  O   UNK N   1      22.137  15.678   2.754  0.00  0.00    -0.776 OA
HETATM   36  H   UNK N   1      22.793  16.279   3.051  0.00  0.00     0.167 HD
ENDBRANCH  33  35
ENDBRANCH  32  33
ENDBRANCH  31  32
ENDBRANCH  16  31
BRANCH  17  37
HETATM   37  C   UNK N   1      24.935  19.286   3.499  0.00  0.00     0.052 C 
BRANCH  37  38
HETATM   38  C   UNK N   1      23.453  19.072   3.681  0.00  0.00     0.115 C 
BRANCH  38  39
HETATM   39  C   UNK N   1      22.662  20.181   3.067  0.00  0.00     0.139 C 
HETATM   40  O   UNK N   1      21.474  20.045   2.811  0.00  0.00    -0.650 OA
BRANCH  39  41
HETATM   41  O   UNK N   1      23.276  21.343   2.790  0.00  0.00    -0.776 OA
HETATM   42  H   UNK N   1      23.099  22.209   3.100  0.00  0.00     0.167 HD
ENDBRANCH  39  41
ENDBRANCH  38  39
ENDBRANCH  37  38
ENDBRANCH  17  37
BRANCH  14  43
HETATM   43  C   UNK N   1      31.320  12.234   2.204  0.00  0.00     0.037 C 
HETATM   44  C   UNK N   1      31.620  10.755   2.486  0.00  0.00     0.010 C 
ENDBRANCH  14  43
BRANCH  15  45
HETATM   45  C   UNK N   1      32.732  16.837   8.554  0.00  0.00     0.037 C 
HETATM   46  C   UNK N   1      33.724  17.746   7.859  0.00  0.00     0.010 C 
ENDBRANCH  15  45
TORSDOF 10
ENDMDL
MODEL 5
REMARK VINA RESULT:      -7.6      2.168      6.151
REMARK  10 active torsions:
REMARK  status: ('A' for Active; 'I' for Inactive)
REMARK    1  A    between atoms: C_22  and  C_8 
REMARK    2  A    between atoms: C_23  and  C_9 
REMARK    3  A    between atoms: C_12  and  C_10 
REMARK    4  A    between atoms: C_24  and  C_10 
REMARK    5  A    between atoms: C_13  and  C_11 
REMARK    6  A    between atoms: C_25  and  C_11 
REMARK    7  A    between atoms: C_34  and  C_12 
REMARK    8  A    between atoms: C_35  and  C_13 
REMARK    9  A    between atoms: O_41  and  C_34 
REMARK   10  A    between atoms: O_43  and  C_35 
ROOT
HETATM    1  C   UNK N   1      28.562   9.409   2.740  0.00  0.00     0.051 C 
HETATM    2  C   UNK N   1      34.088  14.569   3.657  0.00  0.00     0.051 C 
HETATM    3  C   UNK N   1      25.347  18.732   4.868  0.00  0.00     0.051 C 
HETATM    4  C   UNK N   1      23.122  14.860   1.844  0.00  0.00     0.051 C 
HETATM    5  C   UNK N   1      27.081  13.993   3.916  0.00  0.00     0.325 C 
HETATM    6  C   UNK N   1      31.636  13.286   2.631  0.00  0.00     0.064 C 
HETATM    7  C   UNK N   1      30.124  17.291   4.301  0.00  0.00     0.064 C 
HETATM    8  C   UNK N   1      25.624  16.333   2.970  0.00  0.00     0.073 C 
HETATM    9  C   UNK N   1      27.007  11.880   1.801  0.00  0.00     0.073 C 
HETATM   10  C   UNK N   1      29.124  10.763   2.473  0.00  0.00    -0.025 C 
HETATM   11  C   UNK N   1      32.711  15.145   3.528  0.00  0.00    -0.025 A 
HETATM   12  C   UNK N   1      26.591  18.078   4.360  0.00  0.00    -0.025 A 
HETATM   13  C   UNK N   1      24.505  14.299   1.910  0.00  0.00    -0.016 C 
HETATM   14  C   UNK N   1      30.395  11.181   2.725  0.00  0.00    -0.021 C 
HETATM   15  C   UNK N   1      24.856  13.053   1.636  0.00  0.00    -0.013 C 
HETATM   16  C   UNK N   1      32.260  16.295   4.092  0.00  0.00    -0.021 A 
HETATM   17  C   UNK N   1      27.819  18.254   4.818  0.00  0.00    -0.021 A 
HETATM   18  C   UNK N   1      31.609  14.537   2.977  0.00  0.00     0.066 A 
HETATM   19  C   UNK N   1      26.676  16.971   3.429  0.00  0.00     0.066 A 
HETATM   20  C   UNK N   1      28.423  11.882   2.102  0.00  0.00     0.066 C 
HETATM   21  C   UNK N   1      30.443  12.518   2.433  0.00  0.00     0.066 C 
HETATM   22  C   UNK N   1      30.907  16.363   3.810  0.00  0.00     0.066 A 
HETATM   23  C   UNK N   1      28.697  17.320   4.097  0.00  0.00     0.066 A 
HETATM   24  C   UNK N   1      25.713  14.996   2.392  0.00  0.00     0.183 C 
HETATM   25  C   UNK N   1      26.279  12.968   1.922  0.00  0.00     0.184 C 
HETATM   26 Cu   UNK N   1      28.606  14.926   2.214  0.00  0.00     0.000 Cu
HETATM   27  N   UNK N   1      30.499  15.313   3.059  0.00  0.00    -0.248 N 
HETATM   28  N   UNK N   1      29.213  12.985   2.169  0.00  0.00    -0.248 N 
HETATM   29  N   UNK N   1      28.016  16.542   3.332  0.00  0.00    -0.248 N 
HETATM   30  N   UNK N   1      26.710  14.185   2.525  0.00  0.00     0.157 N 
ENDROOT
BRANCH  16  31
HETATM   31  C   UNK N   1      33.045  17.212   4.974  0.00  0.00     0.052 C 
BRANCH  31  32
HETATM   32  C   UNK N   1      33.153  16.682   6.388  0.00  0.00     0.115 C 
BRANCH  32  33
HETATM   33  C   UNK N   1      33.548  17.796   7.297  0.00  0.00     0.139 C 
HETATM   34  O   UNK N   1      34.643  18.324   7.183  0.00  0.00    -0.650 OA
BRANCH  33  35
HETATM   35  O   UNK N   1      32.696  18.217   8.249  0.00  0.00    -0.776 OA
HETATM   36  H   UNK N   1      32.401  17.681   8.959  0.00  0.00     0.167 HD
ENDBRANCH  33  35
ENDBRANCH  32  33
ENDBRANCH  31  32
ENDBRANCH  16  31
BRANCH  17  37
HETATM   37  C   UNK N   1      28.213  19.095   5.991  0.00  0.00     0.052 C 
BRANCH  37  38
HETATM   38  C   UNK N   1      27.991  18.393   7.308  0.00  0.00     0.115 C 
BRANCH  38  39
HETATM   39  C   UNK N   1      29.286  18.068   7.978  0.00  0.00     0.139 C 
HETATM   40  O   UNK N   1      29.766  18.812   8.822  0.00  0.00    -0.650 OA
BRANCH  39  41
HETATM   41  O   UNK N   1      29.931  16.941   7.637  0.00  0.00    -0.776 OA
HETATM   42  H   UNK N   1      30.162  16.196   8.157  0.00  0.00     0.167 HD
ENDBRANCH  39  41
ENDBRANCH  38  39
ENDBRANCH  37  38
ENDBRANCH  17  37
BRANCH  14  43
HETATM   43  C   UNK N   1      31.458  10.427   3.442  0.00  0.00     0.037 C 
HETATM   44  C   UNK N   1      32.233   9.650   2.369  0.00  0.00     0.010 C 
ENDBRANCH  14  43
BRANCH  15  45
HETATM   45  C   UNK N   1      23.955  11.924   1.217  0.00  0.00     0.037 C 
HETATM   46  C   UNK N   1      23.666  11.947  -0.269  0.00  0.00     0.010 C 
ENDBRANCH  15  45
TORSDOF 10
ENDMDL
MODEL 6
REMARK VINA RESULT:      -7.5      2.174      6.009
REMARK  10 active torsions:
REMARK  status: ('A' for Active; 'I' for Inactive)
REMARK    1  A    between atoms: C_22  and  C_8 
REMARK    2  A    between atoms: C_23  and  C_9 
REMARK    3  A    between atoms: C_12  and  C_10 
REMARK    4  A    between atoms: C_24  and  C_10 
REMARK    5  A    between atoms: C_13  and  C_11 
REMARK    6  A    between atoms: C_25  and  C_11 
REMARK    7  A    between atoms: C_34  and  C_12 
REMARK    8  A    between atoms: C_35  and  C_13 
REMARK    9  A    between atoms: O_41  and  C_34 
REMARK   10  A    between atoms: O_43  and  C_35 
ROOT
HETATM    1  C   UNK N   1      28.233  10.563   1.183  0.00  0.00     0.051 C 
HETATM    2  C   UNK N   1      35.282  12.712   3.110  0.00  0.00     0.051 C 
HETATM    3  C   UNK N   1      28.690  18.305   7.635  0.00  0.00     0.051 C 
HETATM    4  C   UNK N   1      25.122  17.184   3.750  0.00  0.00     0.051 C 
HETATM    5  C   UNK N   1      28.555  14.279   4.451  0.00  0.00     0.325 C 
HETATM    6  C   UNK N   1      32.502  12.881   2.133  0.00  0.00     0.064 C 
HETATM    7  C   UNK N   1      32.599  15.896   5.599  0.00  0.00     0.064 C 
HETATM    8  C   UNK N   1      28.021  17.111   4.886  0.00  0.00     0.073 C 
HETATM    9  C   UNK N   1      27.656  13.531   1.699  0.00  0.00     0.073 C 
HETATM   10  C   UNK N   1      29.241  11.637   1.411  0.00  0.00    -0.025 C 
HETATM   11  C   UNK N   1      34.205  13.675   3.505  0.00  0.00    -0.025 A 
HETATM   12  C   UNK N   1      29.597  17.614   6.668  0.00  0.00    -0.025 A 
HETATM   13  C   UNK N   1      26.208  16.260   3.304  0.00  0.00    -0.016 C 
HETATM   14  C   UNK N   1      30.584  11.475   1.565  0.00  0.00    -0.021 C 
HETATM   15  C   UNK N   1      26.074  15.245   2.465  0.00  0.00    -0.013 C 
HETATM   16  C   UNK N   1      34.219  14.507   4.579  0.00  0.00    -0.021 A 
HETATM   17  C   UNK N   1      30.818  17.168   6.910  0.00  0.00    -0.021 A 
HETATM   18  C   UNK N   1      32.941  13.768   2.974  0.00  0.00     0.066 A 
HETATM   19  C   UNK N   1      29.246  17.102   5.359  0.00  0.00     0.066 A 
HETATM   20  C   UNK N   1      28.983  12.955   1.692  0.00  0.00     0.066 C 
HETATM   21  C   UNK N   1      31.106  12.704   1.864  0.00  0.00     0.066 C 
HETATM   22  C   UNK N   1      32.976  15.113   4.620  0.00  0.00     0.066 A 
HETATM   23  C   UNK N   1      31.275  16.457   5.707  0.00  0.00     0.066 A 
HETATM   24  C   UNK N   1      27.601  16.242   3.791  0.00  0.00     0.183 C 
HETATM   25  C   UNK N   1      27.376  14.602   2.407  0.00  0.00     0.184 C 
HETATM   26 Cu   UNK N   1      30.264  15.372   3.044  0.00  0.00     0.000 Cu
HETATM   27  N   UNK N   1      32.192  14.716   3.590  0.00  0.00    -0.248 N 
HETATM   28  N   UNK N   1      30.122  13.595   2.065  0.00  0.00    -0.248 N 
HETATM   29  N   UNK N   1      30.335  16.377   4.832  0.00  0.00    -0.248 N 
HETATM   30  N   UNK N   1      28.238  15.199   3.373  0.00  0.00     0.157 N 
ENDROOT
BRANCH  16  31
HETATM   31  C   UNK N   1      35.310  14.616   5.596  0.00  0.00     0.052 C 
BRANCH  31  32
HETATM   32  C   UNK N   1      35.146  13.606   6.712  0.00  0.00     0.115 C 
BRANCH  32  33
HETATM   33  C   UNK N   1      34.948  14.331   7.999  0.00  0.00     0.139 C 
HETATM   34  O   UNK N   1      35.899  14.837   8.573  0.00  0.00    -0.650 OA
BRANCH  33  35
HETATM   35  O   UNK N   1      33.716  14.423   8.532  0.00  0.00    -0.776 OA
HETATM   36  H   UNK N   1      33.291  15.236   8.727  0.00  0.00     0.167 HD
ENDBRANCH  33  35
ENDBRANCH  32  33
ENDBRANCH  31  32
ENDBRANCH  16  31
BRANCH  17  37
HETATM   37  C   UNK N   1      31.525  17.199   8.228  0.00  0.00     0.052 C 
BRANCH  37  38
HETATM   38  C   UNK N   1      32.469  18.369   8.351  0.00  0.00     0.115 C 
BRANCH  38  39
HETATM   39  C   UNK N   1      33.892  17.917   8.419  0.00  0.00     0.139 C 
HETATM   40  O   UNK N   1      34.646  18.057   7.467  0.00  0.00    -0.650 OA
BRANCH  39  41
HETATM   41  O   UNK N   1      34.340  17.343   9.547  0.00  0.00    -0.776 OA
HETATM   42  H   UNK N   1      34.499  17.714  10.392  0.00  0.00     0.167 HD
ENDBRANCH  39  41
ENDBRANCH  38  39
ENDBRANCH  37  38
ENDBRANCH  17  37
BRANCH  14  43
HETATM   43  C   UNK N   1      31.321  10.186   1.675  0.00  0.00     0.037 C 
HETATM   44  C   UNK N   1      31.186   9.736   3.136  0.00  0.00     0.010 C 
ENDBRANCH  14  43
BRANCH  15  45
HETATM   45  C   UNK N   1      24.812  14.781   1.791  0.00  0.00     0.037 C 
HETATM   46  C   UNK N   1      24.051  13.778   2.632  0.00  0.00     0.010 C 
ENDBRANCH  15  45
TORSDOF 10
ENDMDL
MODEL 7
REMARK VINA RESULT:      -7.3      4.526      9.098
REMARK  10 active torsions:
REMARK  status: ('A' for Active; 'I' for Inactive)
REMARK    1  A    between atoms: C_22  and  C_8 
REMARK    2  A    between atoms: C_23  and  C_9 
REMARK    3  A    between atoms: C_12  and  C_10 
REMARK    4  A    between atoms: C_24  and  C_10 
REMARK    5  A    between atoms: C_13  and  C_11 
REMARK    6  A    between atoms: C_25  and  C_11 
REMARK    7  A    between atoms: C_34  and  C_12 
REMARK    8  A    between atoms: C_35  and  C_13 
REMARK    9  A    between atoms: O_41  and  C_34 
REMARK   10  A    between atoms: O_43  and  C_35 
ROOT
HETATM    1  C   UNK N   1      29.300  11.655   0.480  0.00  0.00     0.051 C 
HETATM    2  C   UNK N   1      22.447  12.540   3.684  0.00  0.00     0.051 C 
HETATM    3  C   UNK N   1      27.924  20.475   5.180  0.00  0.00     0.051 C 
HETATM    4  C   UNK N   1      32.368  17.481   4.574  0.00  0.00     0.051 C 
HETATM    5  C   UNK N   1      28.487  16.013   2.704  0.00  0.00     0.325 C 
HETATM    6  C   UNK N   1      25.384  12.438   3.403  0.00  0.00     0.064 C 
HETATM    7  C   UNK N   1      24.602  16.722   4.868  0.00  0.00     0.064 C 
HETATM    8  C   UNK N   1      29.283  17.734   4.917  0.00  0.00     0.073 C 
HETATM    9  C   UNK N   1      30.131  13.516   2.773  0.00  0.00     0.073 C 
HETATM   10  C   UNK N   1      28.457  12.069   1.638  0.00  0.00    -0.025 C 
HETATM   11  C   UNK N   1      23.466  13.558   4.096  0.00  0.00    -0.025 A 
HETATM   12  C   UNK N   1      27.299  19.117   5.168  0.00  0.00    -0.025 A 
HETATM   13  C   UNK N   1      31.365  16.433   4.218  0.00  0.00    -0.016 C 
HETATM   14  C   UNK N   1      27.134  11.807   1.815  0.00  0.00    -0.021 C 
HETATM   15  C   UNK N   1      31.611  15.301   3.578  0.00  0.00    -0.013 C 
HETATM   16  C   UNK N   1      23.222  14.845   4.454  0.00  0.00    -0.021 A 
HETATM   17  C   UNK N   1      26.014  18.840   5.027  0.00  0.00    -0.021 A 
HETATM   18  C   UNK N   1      24.832  13.442   4.013  0.00  0.00     0.066 A 
HETATM   19  C   UNK N   1      27.985  17.843   5.084  0.00  0.00     0.066 A 
HETATM   20  C   UNK N   1      28.810  12.940   2.636  0.00  0.00     0.066 C 
HETATM   21  C   UNK N   1      26.742  12.467   2.949  0.00  0.00     0.066 C 
HETATM   22  C   UNK N   1      24.458  15.443   4.629  0.00  0.00     0.066 A 
HETATM   23  C   UNK N   1      25.883  17.377   4.956  0.00  0.00     0.066 A 
HETATM   24  C   UNK N   1      29.905  16.510   4.418  0.00  0.00     0.183 C 
HETATM   25  C   UNK N   1      30.321  14.659   3.394  0.00  0.00     0.184 C 
HETATM   26 Cu   UNK N   1      27.547  14.841   4.662  0.00  0.00     0.000 Cu
HETATM   27  N   UNK N   1      25.470  14.566   4.425  0.00  0.00    -0.248 N 
HETATM   28  N   UNK N   1      27.728  13.262   3.392  0.00  0.00    -0.248 N 
HETATM   29  N   UNK N   1      27.037  16.810   4.934  0.00  0.00    -0.248 N 
HETATM   30  N   UNK N   1      29.289  15.545   3.820  0.00  0.00     0.157 N 
ENDROOT
BRANCH  16  31
HETATM   31  C   UNK N   1      21.884  15.512   4.493  0.00  0.00     0.052 C 
BRANCH  31  32
HETATM   32  C   UNK N   1      21.435  15.960   3.118  0.00  0.00     0.115 C 
BRANCH  32  33
HETATM   33  C   UNK N   1      20.118  16.648   3.235  0.00  0.00     0.139 C 
HETATM   34  O   UNK N   1      19.878  17.638   2.562  0.00  0.00    -0.650 OA
BRANCH  33  35
HETATM   35  O   UNK N   1      19.192  16.176   4.089  0.00  0.00    -0.776 OA
HETATM   36  H   UNK N   1      18.322  16.519   4.157  0.00  0.00     0.167 HD
ENDBRANCH  33  35
ENDBRANCH  32  33
ENDBRANCH  31  32
ENDBRANCH  16  31
BRANCH  17  37
HETATM   37  C   UNK N   1      24.919  19.829   4.781  0.00  0.00     0.052 C 
BRANCH  37  38
HETATM   38  C   UNK N   1      24.659  20.052   3.312  0.00  0.00     0.115 C 
BRANCH  38  39
HETATM   39  C   UNK N   1      23.221  20.366   3.054  0.00  0.00     0.139 C 
HETATM   40  O   UNK N   1      22.864  21.495   2.749  0.00  0.00    -0.650 OA
BRANCH  39  41
HETATM   41  O   UNK N   1      22.310  19.386   3.167  0.00  0.00    -0.776 OA
HETATM   42  H   UNK N   1      21.861  19.062   3.923  0.00  0.00     0.167 HD
ENDBRANCH  39  41
ENDBRANCH  38  39
ENDBRANCH  37  38
ENDBRANCH  17  37
BRANCH  14  43
HETATM   43  C   UNK N   1      26.209  11.172   0.837  0.00  0.00     0.037 C 
HETATM   44  C   UNK N   1      26.277   9.661   1.100  0.00  0.00     0.010 C 
ENDBRANCH  14  43
BRANCH  15  45
HETATM   45  C   UNK N   1      32.937  14.822   3.053  0.00  0.00     0.037 C 
HETATM   46  C   UNK N   1      33.711  14.035   4.089  0.00  0.00     0.010 C 
ENDBRANCH  15  45
TORSDOF 10
ENDMDL
MODEL 8
REMARK VINA RESULT:      -7.2      2.573      6.404
REMARK  10 active torsions:
REMARK  status: ('A' for Active; 'I' for Inactive)
REMARK    1  A    between atoms: C_22  and  C_8 
REMARK    2  A    between atoms: C_23  and  C_9 
REMARK    3  A    between atoms: C_12  and  C_10 
REMARK    4  A    between atoms: C_24  and  C_10 
REMARK    5  A    between atoms: C_13  and  C_11 
REMARK    6  A    between atoms: C_25  and  C_11 
REMARK    7  A    between atoms: C_34  and  C_12 
REMARK    8  A    between atoms: C_35  and  C_13 
REMARK    9  A    between atoms: O_41  and  C_34 
REMARK   10  A    between atoms: O_43  and  C_35 
ROOT
HETATM    1  C   UNK N   1      22.949  11.721   4.093  0.00  0.00     0.051 C 
HETATM    2  C   UNK N   1      30.509  12.512   4.570  0.00  0.00     0.051 C 
HETATM    3  C   UNK N   1      26.093  20.969   6.616  0.00  0.00     0.051 C 
HETATM    4  C   UNK N   1      21.804  19.382   3.758  0.00  0.00     0.051 C 
HETATM    5  C   UNK N   1      24.584  16.201   5.453  0.00  0.00     0.325 C 
HETATM    6  C   UNK N   1      27.716  13.007   3.754  0.00  0.00     0.064 C 
HETATM    7  C   UNK N   1      29.012  17.010   5.602  0.00  0.00     0.064 C 
HETATM    8  C   UNK N   1      24.757  19.003   4.671  0.00  0.00     0.073 C 
HETATM    9  C   UNK N   1      23.123  14.687   3.329  0.00  0.00     0.073 C 
HETATM   10  C   UNK N   1      24.190  12.489   3.793  0.00  0.00    -0.025 C 
HETATM   11  C   UNK N   1      29.745  13.801   4.572  0.00  0.00    -0.025 A 
HETATM   12  C   UNK N   1      26.664  19.738   5.989  0.00  0.00    -0.025 A 
HETATM   13  C   UNK N   1      22.578  18.106   3.693  0.00  0.00    -0.016 C 
HETATM   14  C   UNK N   1      25.472  12.053   3.934  0.00  0.00    -0.021 C 
HETATM   15  C   UNK N   1      22.095  16.916   3.373  0.00  0.00    -0.013 C 
HETATM   16  C   UNK N   1      30.108  14.955   5.189  0.00  0.00    -0.021 A 
HETATM   17  C   UNK N   1      27.780  19.119   6.336  0.00  0.00    -0.021 A 
HETATM   18  C   UNK N   1      28.465  14.004   4.115  0.00  0.00     0.066 A 
HETATM   19  C   UNK N   1      26.009  18.860   5.041  0.00  0.00     0.066 A 
HETATM   20  C   UNK N   1      24.274  13.827   3.500  0.00  0.00     0.066 C 
HETATM   21  C   UNK N   1      26.290  13.114   3.656  0.00  0.00     0.066 C 
HETATM   22  C   UNK N   1      29.050  15.832   5.030  0.00  0.00     0.066 A 
HETATM   23  C   UNK N   1      27.876  17.895   5.527  0.00  0.00     0.066 A 
HETATM   24  C   UNK N   1      23.991  17.915   4.071  0.00  0.00     0.183 C 
HETATM   25  C   UNK N   1      23.199  15.984   3.528  0.00  0.00     0.184 C 
HETATM   26 Cu   UNK N   1      26.249  16.150   3.632  0.00  0.00     0.000 Cu
HETATM   27  N   UNK N   1      28.047  15.281   4.307  0.00  0.00    -0.248 N 
HETATM   28  N   UNK N   1      25.569  14.236   3.509  0.00  0.00    -0.248 N 
HETATM   29  N   UNK N   1      26.816  17.725   4.818  0.00  0.00    -0.248 N 
HETATM   30  N   UNK N   1      24.311  16.664   4.105  0.00  0.00     0.157 N 
ENDROOT
BRANCH  16  31
HETATM   31  C   UNK N   1      31.341  15.166   6.007  0.00  0.00     0.052 C 
BRANCH  31  32
HETATM   32  C   UNK N   1      32.423  15.882   5.225  0.00  0.00     0.115 C 
BRANCH  32  33
HETATM   33  C   UNK N   1      32.916  17.040   6.023  0.00  0.00     0.139 C 
HETATM   34  O   UNK N   1      33.964  17.592   5.725  0.00  0.00    -0.650 OA
BRANCH  33  35
HETATM   35  O   UNK N   1      32.204  17.477   7.078  0.00  0.00    -0.776 OA
HETATM   36  H   UNK N   1      31.676  18.251   7.066  0.00  0.00     0.167 HD
ENDBRANCH  33  35
ENDBRANCH  32  33
ENDBRANCH  31  32
ENDBRANCH  16  31
BRANCH  17  37
HETATM   37  C   UNK N   1      28.674  19.485   7.479  0.00  0.00     0.052 C 
BRANCH  37  38
HETATM   38  C   UNK N   1      28.362  18.703   8.732  0.00  0.00     0.115 C 
BRANCH  38  39
HETATM   39  C   UNK N   1      29.611  18.276   9.433  0.00  0.00     0.139 C 
HETATM   40  O   UNK N   1      30.692  18.780   9.163  0.00  0.00    -0.650 OA
BRANCH  39  41
HETATM   41  O   UNK N   1      29.536  17.318  10.370  0.00  0.00    -0.776 OA
HETATM   42  H   UNK N   1      28.802  17.013  10.866  0.00  0.00     0.167 HD
ENDBRANCH  39  41
ENDBRANCH  38  39
ENDBRANCH  37  38
ENDBRANCH  17  37
BRANCH  14  43
HETATM   43  C   UNK N   1      25.917  10.770   4.543  0.00  0.00     0.037 C 
HETATM   44  C   UNK N   1      25.996   9.754   3.396  0.00  0.00     0.010 C 
ENDBRANCH  14  43
BRANCH  15  45
HETATM   45  C   UNK N   1      20.673  16.574   3.023  0.00  0.00     0.037 C 
HETATM   46  C   UNK N   1      19.832  16.305   4.254  0.00  0.00     0.010 C 
ENDBRANCH  15  45
TORSDOF 10
ENDMDL
MODEL 9
REMARK VINA RESULT:      -7.0      2.289      6.215
REMARK  10 active torsions:
REMARK  status: ('A' for Active; 'I' for Inactive)
REMARK    1  A    between atoms: C_22  and  C_8 
REMARK    2  A    between atoms: C_23  and  C_9 
REMARK    3  A    between atoms: C_12  and  C_10 
REMARK    4  A    between atoms: C_24  and  C_10 
REMARK    5  A    between atoms: C_13  and  C_11 
REMARK    6  A    between atoms: C_25  and  C_11 
REMARK    7  A    between atoms: C_34  and  C_12 
REMARK    8  A    between atoms: C_35  and  C_13 
REMARK    9  A    between atoms: O_41  and  C_34 
REMARK   10  A    between atoms: O_43  and  C_35 
ROOT
HETATM    1  C   UNK N   1      30.757   9.030   4.705  0.00  0.00     0.051 C 
HETATM    2  C   UNK N   1      35.219  15.124   5.684  0.00  0.00     0.051 C 
HETATM    3  C   UNK N   1      26.045  17.913   3.877  0.00  0.00     0.051 C 
HETATM    4  C   UNK N   1      25.148  13.222   1.374  0.00  0.00     0.051 C 
HETATM    5  C   UNK N   1      28.502  13.440   4.444  0.00  0.00     0.325 C 
HETATM    6  C   UNK N   1      33.285  13.277   4.437  0.00  0.00     0.064 C 
HETATM    7  C   UNK N   1      30.939  17.214   4.767  0.00  0.00     0.064 C 
HETATM    8  C   UNK N   1      27.083  15.280   2.685  0.00  0.00     0.073 C 
HETATM    9  C   UNK N   1      29.226  10.983   2.901  0.00  0.00     0.073 C 
HETATM   10  C   UNK N   1      31.209  10.385   4.276  0.00  0.00    -0.025 C 
HETATM   11  C   UNK N   1      33.867  15.425   5.115  0.00  0.00    -0.025 A 
HETATM   12  C   UNK N   1      27.446  17.394   3.830  0.00  0.00    -0.025 A 
HETATM   13  C   UNK N   1      26.521  12.923   1.882  0.00  0.00    -0.016 C 
HETATM   14  C   UNK N   1      32.313  11.050   4.714  0.00  0.00    -0.021 C 
HETATM   15  C   UNK N   1      27.073  11.725   1.984  0.00  0.00    -0.013 C 
HETATM   16  C   UNK N   1      33.155  16.569   5.286  0.00  0.00    -0.021 A 
HETATM   17  C   UNK N   1      28.484  17.856   4.508  0.00  0.00    -0.021 A 
HETATM   18  C   UNK N   1      33.024  14.548   4.476  0.00  0.00     0.066 A 
HETATM   19  C   UNK N   1      27.898  16.160   3.218  0.00  0.00     0.066 A 
HETATM   20  C   UNK N   1      30.505  11.279   3.511  0.00  0.00     0.066 C 
HETATM   21  C   UNK N   1      32.281  12.296   4.148  0.00  0.00     0.066 C 
HETATM   22  C   UNK N   1      31.924  16.355   4.691  0.00  0.00     0.066 A 
HETATM   23  C   UNK N   1      29.621  16.964   4.238  0.00  0.00     0.066 A 
HETATM   24  C   UNK N   1      27.473  13.892   2.460  0.00  0.00     0.183 C 
HETATM   25  C   UNK N   1      28.371  11.936   2.602  0.00  0.00     0.184 C 
HETATM   26 Cu   UNK N   1      30.301  14.276   2.974  0.00  0.00     0.000 Cu
HETATM   27  N   UNK N   1      31.849  15.128   4.123  0.00  0.00    -0.248 N 
HETATM   28  N   UNK N   1      31.117  12.491   3.508  0.00  0.00    -0.248 N 
HETATM   29  N   UNK N   1      29.257  15.952   3.532  0.00  0.00    -0.248 N 
HETATM   30  N   UNK N   1      28.487  13.300   2.999  0.00  0.00     0.157 N 
ENDROOT
BRANCH  16  31
HETATM   31  C   UNK N   1      33.572  17.755   6.095  0.00  0.00     0.052 C 
BRANCH  31  32
HETATM   32  C   UNK N   1      33.235  17.587   7.561  0.00  0.00     0.115 C 
BRANCH  32  33
HETATM   33  C   UNK N   1      34.422  17.961   8.380  0.00  0.00     0.139 C 
HETATM   34  O   UNK N   1      34.951  19.052   8.236  0.00  0.00    -0.650 OA
BRANCH  33  35
HETATM   35  O   UNK N   1      34.916  17.091   9.280  0.00  0.00    -0.776 OA
HETATM   36  H   UNK N   1      34.493  16.288   9.515  0.00  0.00     0.167 HD
ENDBRANCH  33  35
ENDBRANCH  32  33
ENDBRANCH  31  32
ENDBRANCH  16  31
BRANCH  17  37
HETATM   37  C   UNK N   1      28.458  18.958   5.519  0.00  0.00     0.052 C 
BRANCH  37  38
HETATM   38  C   UNK N   1      27.621  18.617   6.727  0.00  0.00     0.115 C 
BRANCH  38  39
HETATM   39  C   UNK N   1      28.473  18.362   7.927  0.00  0.00     0.139 C 
HETATM   40  O   UNK N   1      29.542  17.778   7.831  0.00  0.00    -0.650 OA
BRANCH  39  41
HETATM   41  O   UNK N   1      28.046  18.781   9.130  0.00  0.00    -0.776 OA
HETATM   42  H   UNK N   1      28.001  19.646   9.488  0.00  0.00     0.167 HD
ENDBRANCH  39  41
ENDBRANCH  38  39
ENDBRANCH  37  38
ENDBRANCH  17  37
BRANCH  14  43
HETATM   43  C   UNK N   1      33.232  10.634   5.808  0.00  0.00     0.037 C 
HETATM   44  C   UNK N   1      34.342   9.806   5.146  0.00  0.00     0.010 C 
ENDBRANCH  14  43
BRANCH  15  45
HETATM   45  C   UNK N   1      26.448  10.402   1.634  0.00  0.00     0.037 C 
HETATM   46  C   UNK N   1      25.679   9.809   2.796  0.00  0.00     0.010 C 
ENDBRANCH  15  45
TORSDOF 10
ENDMDL
