REMARK  6 active torsions:
REMARK  status: ('A' for Active; 'I' for Inactive)
REMARK    1  A    between atoms: C_6  and  C_4 
REMARK    2  A    between atoms: C_8  and  C_4 
REMARK    3  A    between atoms: N_12  and  C_7 
REMARK    4  A    between atoms: C_11  and  C_8 
REMARK    5  A    between atoms: C_8  and  N_13 
REMARK    6  A    between atoms: O_16  and  C_11 
ROOT
HETATM    1  C   UNK N   1       4.773   0.186   0.222  0.00  0.00     0.005 A 
HETATM    2  C   UNK N   1       4.774   1.591   0.076  0.00  0.00     0.030 A 
HETATM    3  C   UNK N   1       3.563  -0.531   0.190  0.00  0.00     0.030 A 
HETATM    4  C   UNK N   1       0.317   0.735  -0.290  0.00  0.00     0.096 A 
HETATM    5  C   UNK N   1       1.058   1.913  -0.337  0.00  0.00    -0.026 A 
HETATM    6  C   UNK N   1       3.566   2.287  -0.111  0.00  0.00     0.038 A 
HETATM    7  C   UNK N   1       2.386   0.189   0.006  0.00  0.00     0.045 A 
HETATM    8  C   UNK N   1       2.376   1.550  -0.146  0.00  0.00     0.025 A 
HETATM    9  N   UNK N   1       1.142  -0.318  -0.072  0.00  0.00    -0.365 N 
HETATM   10  H   UNK N   1       0.883  -1.264   0.013  0.00  0.00     0.165 HD
ENDROOT
BRANCH   5  11
HETATM   11  C   UNK N   1       0.514   3.286  -0.632  0.00  0.00     0.076 C 
BRANCH  11  12
HETATM   12  C   UNK N   1      -0.585   3.765   0.323  0.00  0.00     0.177 C 
BRANCH  12  13
HETATM   13  C   UNK N   1      -1.046   5.138  -0.097  0.00  0.00     0.163 C 
HETATM   14  O   UNK N   1      -2.214   5.340  -0.396  0.00  0.00    -0.648 OA
BRANCH  13  15
HETATM   15  O   UNK N   1      -0.168   6.158  -0.137  0.00  0.00    -0.775 OA
HETATM   16  H   UNK N   1       0.753   5.984  -0.166  0.00  0.00     0.167 HD
ENDBRANCH  13  15
ENDBRANCH  12  13
BRANCH  12  17
HETATM   17  N   UNK N   1      -1.707   2.836   0.303  0.00  0.00    -0.417 N 
HETATM   18  H   UNK N   1      -2.663   3.191   0.289  0.00  0.00     0.150 HD
HETATM   19  H   UNK N   1      -1.536   1.830   0.303  0.00  0.00     0.150 HD
ENDBRANCH  12  17
ENDBRANCH  11  12
ENDBRANCH   5  11
BRANCH   6  20
HETATM   20  N   UNK N   1       3.566   3.689  -0.255  0.00  0.00    -0.398 N 
HETATM   21  H   UNK N   1       4.415   4.178  -0.357  0.00  0.00     0.156 HD
HETATM   22  H   UNK N   1       2.714   4.182  -0.255  0.00  0.00     0.156 HD
ENDBRANCH   6  20
TORSDOF 6
