MODEL 1
REMARK VINA RESULT:      -5.8      0.000      0.000
REMARK  7 active torsions:
REMARK  status: ('A' for Active; 'I' for Inactive)
REMARK    1  A    between atoms: C_2  and  N_1 
REMARK    2  A    between atoms: C_2  and  C_3 
REMARK    3  A    between atoms: C_2  and  C_13 
REMARK    4  A    between atoms: C_3  and  C_4 
REMARK    5  A    between atoms: C_4  and  C_6 
REMARK    6  A    between atoms: C_11  and  N_12 
REMARK    7  A    between atoms: C_13  and  O_14 
ROOT
HETATM    1  C   UNK N   1      27.219  24.404  -3.567  0.00  0.00     0.164 C 
HETATM    2  O   UNK N   1      26.818  23.728  -2.632  0.00  0.00    -0.292 OA
ENDROOT
BRANCH   1   3
HETATM    3  C   UNK N   1      28.501  24.021  -4.254  0.00  0.00     0.119 C 
BRANCH   3   4
HETATM    4  C   UNK N   1      29.278  22.936  -3.521  0.00  0.00     0.180 C 
BRANCH   4   5
HETATM    5  N   UNK N   1      29.967  22.093  -4.486  0.00  0.00    -0.417 N 
HETATM    6  H   UNK N   1      29.600  21.171  -4.721  0.00  0.00     0.150 HD
HETATM    7  H   UNK N   1      30.823  22.426  -4.932  0.00  0.00     0.150 HD
ENDBRANCH   4   5
BRANCH   4   8
HETATM    8  C   UNK N   1      30.263  23.580  -2.585  0.00  0.00     0.163 C 
HETATM    9  O   UNK N   1      30.582  23.008  -1.555  0.00  0.00    -0.648 OA
BRANCH   8  10
HETATM   10  O   UNK N   1      30.804  24.780  -2.873  0.00  0.00    -0.775 OA
HETATM   11  H   UNK N   1      30.733  25.510  -2.287  0.00  0.00     0.167 HD
ENDBRANCH   8  10
ENDBRANCH   4   8
ENDBRANCH   3   4
ENDBRANCH   1   3
BRANCH   1  12
HETATM   12  C   UNK N   1      26.423  25.559  -4.073  0.00  0.00     0.036 A 
HETATM   13  C   UNK N   1      26.490  26.780  -3.382  0.00  0.00     0.017 A 
HETATM   14  C   UNK N   1      25.775  27.896  -3.824  0.00  0.00     0.001 A 
HETATM   15  C   UNK N   1      24.989  27.809  -4.972  0.00  0.00     0.002 A 
HETATM   16  C   UNK N   1      24.912  26.606  -5.676  0.00  0.00     0.030 A 
HETATM   17  C   UNK N   1      25.616  25.480  -5.237  0.00  0.00     0.039 A 
BRANCH  17  18
HETATM   18  N   UNK N   1      25.527  24.289  -5.988  0.00  0.00    -0.398 N 
HETATM   19  H   UNK N   1      25.335  24.327  -6.952  0.00  0.00     0.156 HD
HETATM   20  H   UNK N   1      25.657  23.418  -5.546  0.00  0.00     0.156 HD
ENDBRANCH  17  18
ENDBRANCH   1  12
TORSDOF 7
ENDMDL
MODEL 2
REMARK VINA RESULT:      -5.8     17.622     19.100
REMARK  7 active torsions:
REMARK  status: ('A' for Active; 'I' for Inactive)
REMARK    1  A    between atoms: C_2  and  N_1 
REMARK    2  A    between atoms: C_2  and  C_3 
REMARK    3  A    between atoms: C_2  and  C_13 
REMARK    4  A    between atoms: C_3  and  C_4 
REMARK    5  A    between atoms: C_4  and  C_6 
REMARK    6  A    between atoms: C_11  and  N_12 
REMARK    7  A    between atoms: C_13  and  O_14 
ROOT
HETATM    1  C   UNK N   1      21.128  13.340   9.028  0.00  0.00     0.164 C 
HETATM    2  O   UNK N   1      20.754  12.699   8.058  0.00  0.00    -0.292 OA
ENDROOT
BRANCH   1   3
HETATM    3  C   UNK N   1      20.361  14.565   9.441  0.00  0.00     0.119 C 
BRANCH   3   4
HETATM    4  C   UNK N   1      20.819  15.831   8.730  0.00  0.00     0.180 C 
BRANCH   4   5
HETATM    5  N   UNK N   1      21.239  15.505   7.375  0.00  0.00    -0.417 N 
HETATM    6  H   UNK N   1      20.546  15.357   6.642  0.00  0.00     0.150 HD
HETATM    7  H   UNK N   1      22.233  15.426   7.157  0.00  0.00     0.150 HD
ENDBRANCH   4   5
BRANCH   4   8
HETATM    8  C   UNK N   1      19.688  16.822   8.708  0.00  0.00     0.163 C 
HETATM    9  O   UNK N   1      18.550  16.437   8.496  0.00  0.00    -0.648 OA
BRANCH   8  10
HETATM   10  O   UNK N   1      19.916  18.132   8.928  0.00  0.00    -0.775 OA
HETATM   11  H   UNK N   1      20.255  18.446   9.745  0.00  0.00     0.167 HD
ENDBRANCH   8  10
ENDBRANCH   4   8
ENDBRANCH   3   4
ENDBRANCH   1   3
BRANCH   1  12
HETATM   12  C   UNK N   1      22.294  12.886   9.841  0.00  0.00     0.036 A 
HETATM   13  C   UNK N   1      23.591  13.145   9.367  0.00  0.00     0.017 A 
HETATM   14  C   UNK N   1      24.714  12.753  10.098  0.00  0.00     0.001 A 
HETATM   15  C   UNK N   1      24.558  12.104  11.321  0.00  0.00     0.002 A 
HETATM   16  C   UNK N   1      23.277  11.840  11.812  0.00  0.00     0.030 A 
HETATM   17  C   UNK N   1      22.145  12.220  11.085  0.00  0.00     0.039 A 
BRANCH  17  18
HETATM   18  N   UNK N   1      20.870  11.952  11.625  0.00  0.00    -0.398 N 
HETATM   19  H   UNK N   1      20.344  11.189  11.293  0.00  0.00     0.156 HD
HETATM   20  H   UNK N   1      20.506  12.528  12.336  0.00  0.00     0.156 HD
ENDBRANCH  17  18
ENDBRANCH   1  12
TORSDOF 7
ENDMDL
MODEL 3
REMARK VINA RESULT:      -5.7     13.769     15.739
REMARK  7 active torsions:
REMARK  status: ('A' for Active; 'I' for Inactive)
REMARK    1  A    between atoms: C_2  and  N_1 
REMARK    2  A    between atoms: C_2  and  C_3 
REMARK    3  A    between atoms: C_2  and  C_13 
REMARK    4  A    between atoms: C_3  and  C_4 
REMARK    5  A    between atoms: C_4  and  C_6 
REMARK    6  A    between atoms: C_11  and  N_12 
REMARK    7  A    between atoms: C_13  and  O_14 
ROOT
HETATM    1  C   UNK N   1      34.180  17.616   7.870  0.00  0.00     0.164 C 
HETATM    2  O   UNK N   1      34.551  18.702   8.288  0.00  0.00    -0.292 OA
ENDROOT
BRANCH   1   3
HETATM    3  C   UNK N   1      35.002  16.392   8.168  0.00  0.00     0.119 C 
BRANCH   3   4
HETATM    4  C   UNK N   1      34.894  15.931   9.614  0.00  0.00     0.180 C 
BRANCH   4   5
HETATM    5  N   UNK N   1      34.820  17.089  10.492  0.00  0.00    -0.417 N 
HETATM    6  H   UNK N   1      34.092  17.151  11.203  0.00  0.00     0.150 HD
HETATM    7  H   UNK N   1      35.501  17.843  10.396  0.00  0.00     0.150 HD
ENDBRANCH   4   5
BRANCH   4   8
HETATM    8  C   UNK N   1      33.671  15.071   9.769  0.00  0.00     0.163 C 
HETATM    9  O   UNK N   1      33.372  14.279   8.889  0.00  0.00    -0.648 OA
BRANCH   8  10
HETATM   10  O   UNK N   1      32.902  15.158  10.873  0.00  0.00    -0.775 OA
HETATM   11  H   UNK N   1      32.937  15.903  11.443  0.00  0.00     0.167 HD
ENDBRANCH   8  10
ENDBRANCH   4   8
ENDBRANCH   3   4
ENDBRANCH   1   3
BRANCH   1  12
HETATM   12  C   UNK N   1      32.893  17.481   7.127  0.00  0.00     0.036 A 
HETATM   13  C   UNK N   1      32.930  17.348   5.729  0.00  0.00     0.017 A 
HETATM   14  C   UNK N   1      31.754  17.204   4.990  0.00  0.00     0.001 A 
HETATM   15  C   UNK N   1      30.521  17.183   5.640  0.00  0.00     0.002 A 
HETATM   16  C   UNK N   1      30.462  17.309   7.029  0.00  0.00     0.030 A 
HETATM   17  C   UNK N   1      31.633  17.463   7.779  0.00  0.00     0.039 A 
BRANCH  17  18
HETATM   18  N   UNK N   1      31.531  17.569   9.182  0.00  0.00    -0.398 N 
HETATM   19  H   UNK N   1      30.844  17.057   9.666  0.00  0.00     0.156 HD
HETATM   20  H   UNK N   1      32.148  18.155   9.677  0.00  0.00     0.156 HD
ENDBRANCH  17  18
ENDBRANCH   1  12
TORSDOF 7
ENDMDL
MODEL 4
REMARK VINA RESULT:      -5.6     12.233     13.782
REMARK  7 active torsions:
REMARK  status: ('A' for Active; 'I' for Inactive)
REMARK    1  A    between atoms: C_2  and  N_1 
REMARK    2  A    between atoms: C_2  and  C_3 
REMARK    3  A    between atoms: C_2  and  C_13 
REMARK    4  A    between atoms: C_3  and  C_4 
REMARK    5  A    between atoms: C_4  and  C_6 
REMARK    6  A    between atoms: C_11  and  N_12 
REMARK    7  A    between atoms: C_13  and  O_14 
ROOT
HETATM    1  C   UNK N   1      30.523  17.333   7.910  0.00  0.00     0.164 C 
HETATM    2  O   UNK N   1      30.198  17.010   9.043  0.00  0.00    -0.292 OA
ENDROOT
BRANCH   1   3
HETATM    3  C   UNK N   1      31.963  17.212   7.495  0.00  0.00     0.119 C 
BRANCH   3   4
HETATM    4  C   UNK N   1      32.935  17.790   8.513  0.00  0.00     0.180 C 
BRANCH   4   5
HETATM    5  N   UNK N   1      33.287  16.767   9.487  0.00  0.00    -0.417 N 
HETATM    6  H   UNK N   1      33.452  17.017  10.462  0.00  0.00     0.150 HD
HETATM    7  H   UNK N   1      33.368  15.793   9.193  0.00  0.00     0.150 HD
ENDBRANCH   4   5
BRANCH   4   8
HETATM    8  C   UNK N   1      34.163  18.284   7.800  0.00  0.00     0.163 C 
HETATM    9  O   UNK N   1      34.931  19.042   8.372  0.00  0.00    -0.648 OA
BRANCH   8  10
HETATM   10  O   UNK N   1      34.431  17.894   6.538  0.00  0.00    -0.775 OA
HETATM   11  H   UNK N   1      34.583  18.513   5.850  0.00  0.00     0.167 HD
ENDBRANCH   8  10
ENDBRANCH   4   8
ENDBRANCH   3   4
ENDBRANCH   1   3
BRANCH   1  12
HETATM   12  C   UNK N   1      29.501  17.783   6.921  0.00  0.00     0.036 A 
HETATM   13  C   UNK N   1      29.711  17.507   5.559  0.00  0.00     0.017 A 
HETATM   14  C   UNK N   1      28.777  17.894   4.596  0.00  0.00     0.001 A 
HETATM   15  C   UNK N   1      27.613  18.557   4.981  0.00  0.00     0.002 A 
HETATM   16  C   UNK N   1      27.383  18.837   6.329  0.00  0.00     0.030 A 
HETATM   17  C   UNK N   1      28.315  18.462   7.302  0.00  0.00     0.039 A 
BRANCH  17  18
HETATM   18  N   UNK N   1      28.036  18.747   8.655  0.00  0.00    -0.398 N 
HETATM   19  H   UNK N   1      28.680  18.496   9.355  0.00  0.00     0.156 HD
HETATM   20  H   UNK N   1      27.195  19.199   8.899  0.00  0.00     0.156 HD
ENDBRANCH  17  18
ENDBRANCH   1  12
TORSDOF 7
ENDMDL
MODEL 5
REMARK VINA RESULT:      -5.6      9.725     11.331
REMARK  7 active torsions:
REMARK  status: ('A' for Active; 'I' for Inactive)
REMARK    1  A    between atoms: C_2  and  N_1 
REMARK    2  A    between atoms: C_2  and  C_3 
REMARK    3  A    between atoms: C_2  and  C_13 
REMARK    4  A    between atoms: C_3  and  C_4 
REMARK    5  A    between atoms: C_4  and  C_6 
REMARK    6  A    between atoms: C_11  and  N_12 
REMARK    7  A    between atoms: C_13  and  O_14 
ROOT
HETATM    1  C   UNK N   1      21.963  18.884   3.996  0.00  0.00     0.164 C 
HETATM    2  O   UNK N   1      21.443  18.853   5.101  0.00  0.00    -0.292 OA
ENDROOT
BRANCH   1   3
HETATM    3  C   UNK N   1      21.113  18.665   2.776  0.00  0.00     0.119 C 
BRANCH   3   4
HETATM    4  C   UNK N   1      20.212  19.848   2.448  0.00  0.00     0.180 C 
BRANCH   4   5
HETATM    5  N   UNK N   1      20.328  20.854   3.493  0.00  0.00    -0.417 N 
HETATM    6  H   UNK N   1      21.106  21.513   3.490  0.00  0.00     0.150 HD
HETATM    7  H   UNK N   1      19.626  20.901   4.232  0.00  0.00     0.150 HD
ENDBRANCH   4   5
BRANCH   4   8
HETATM    8  C   UNK N   1      20.613  20.421   1.117  0.00  0.00     0.163 C 
HETATM    9  O   UNK N   1      20.978  21.584   1.043  0.00  0.00    -0.648 OA
BRANCH   8  10
HETATM   10  O   UNK N   1      20.582  19.663   0.003  0.00  0.00    -0.775 OA
HETATM   11  H   UNK N   1      19.910  19.760  -0.644  0.00  0.00     0.167 HD
ENDBRANCH   8  10
ENDBRANCH   4   8
ENDBRANCH   3   4
ENDBRANCH   1   3
BRANCH   1  12
HETATM   12  C   UNK N   1      23.413  19.200   3.843  0.00  0.00     0.036 A 
HETATM   13  C   UNK N   1      23.789  20.250   2.989  0.00  0.00     0.017 A 
HETATM   14  C   UNK N   1      25.133  20.594   2.823  0.00  0.00     0.001 A 
HETATM   15  C   UNK N   1      26.121  19.898   3.516  0.00  0.00     0.002 A 
HETATM   16  C   UNK N   1      25.768  18.853   4.373  0.00  0.00     0.030 A 
HETATM   17  C   UNK N   1      24.427  18.494   4.540  0.00  0.00     0.039 A 
BRANCH  17  18
HETATM   18  N   UNK N   1      24.111  17.445   5.429  0.00  0.00    -0.398 N 
HETATM   19  H   UNK N   1      23.248  16.978   5.354  0.00  0.00     0.156 HD
HETATM   20  H   UNK N   1      24.755  17.180   6.125  0.00  0.00     0.156 HD
ENDBRANCH  17  18
ENDBRANCH   1  12
TORSDOF 7
ENDMDL
MODEL 6
REMARK VINA RESULT:      -5.6     22.464     25.292
REMARK  7 active torsions:
REMARK  status: ('A' for Active; 'I' for Inactive)
REMARK    1  A    between atoms: C_2  and  N_1 
REMARK    2  A    between atoms: C_2  and  C_3 
REMARK    3  A    between atoms: C_2  and  C_13 
REMARK    4  A    between atoms: C_3  and  C_4 
REMARK    5  A    between atoms: C_4  and  C_6 
REMARK    6  A    between atoms: C_11  and  N_12 
REMARK    7  A    between atoms: C_13  and  O_14 
ROOT
HETATM    1  C   UNK N   1      35.194  12.942  16.054  0.00  0.00     0.164 C 
HETATM    2  O   UNK N   1      34.096  13.186  15.578  0.00  0.00    -0.292 OA
ENDROOT
BRANCH   1   3
HETATM    3  C   UNK N   1      36.430  13.363  15.309  0.00  0.00     0.119 C 
BRANCH   3   4
HETATM    4  C   UNK N   1      36.438  12.917  13.853  0.00  0.00     0.180 C 
BRANCH   4   5
HETATM    5  N   UNK N   1      35.843  11.593  13.746  0.00  0.00    -0.417 N 
HETATM    6  H   UNK N   1      35.825  11.107  12.849  0.00  0.00     0.150 HD
HETATM    7  H   UNK N   1      35.443  11.148  14.572  0.00  0.00     0.150 HD
ENDBRANCH   4   5
BRANCH   4   8
HETATM    8  C   UNK N   1      35.668  13.910  13.028  0.00  0.00     0.163 C 
HETATM    9  O   UNK N   1      36.139  15.016  12.817  0.00  0.00    -0.648 OA
BRANCH   8  10
HETATM   10  O   UNK N   1      34.465  13.591  12.511  0.00  0.00    -0.775 OA
HETATM   11  H   UNK N   1      34.218  13.839  11.640  0.00  0.00     0.167 HD
ENDBRANCH   8  10
ENDBRANCH   4   8
ENDBRANCH   3   4
ENDBRANCH   1   3
BRANCH   1  12
HETATM   12  C   UNK N   1      35.320  12.292  17.392  0.00  0.00     0.036 A 
HETATM   13  C   UNK N   1      35.505  10.901  17.452  0.00  0.00     0.017 A 
HETATM   14  C   UNK N   1      35.643  10.247  18.679  0.00  0.00     0.001 A 
HETATM   15  C   UNK N   1      35.607  10.978  19.865  0.00  0.00     0.002 A 
HETATM   16  C   UNK N   1      35.428  12.362  19.827  0.00  0.00     0.030 A 
HETATM   17  C   UNK N   1      35.280  13.026  18.605  0.00  0.00     0.039 A 
BRANCH  17  18
HETATM   18  N   UNK N   1      35.120  14.428  18.609  0.00  0.00    -0.398 N 
HETATM   19  H   UNK N   1      35.910  15.014  18.608  0.00  0.00     0.156 HD
HETATM   20  H   UNK N   1      34.217  14.820  18.613  0.00  0.00     0.156 HD
ENDBRANCH  17  18
ENDBRANCH   1  12
TORSDOF 7
ENDMDL
MODEL 7
REMARK VINA RESULT:      -5.6     13.457     15.622
REMARK  7 active torsions:
REMARK  status: ('A' for Active; 'I' for Inactive)
REMARK    1  A    between atoms: C_2  and  N_1 
REMARK    2  A    between atoms: C_2  and  C_3 
REMARK    3  A    between atoms: C_2  and  C_13 
REMARK    4  A    between atoms: C_3  and  C_4 
REMARK    5  A    between atoms: C_4  and  C_6 
REMARK    6  A    between atoms: C_11  and  N_12 
REMARK    7  A    between atoms: C_13  and  O_14 
ROOT
HETATM    1  C   UNK N   1      34.096  17.412   7.618  0.00  0.00     0.164 C 
HETATM    2  O   UNK N   1      34.719  18.463   7.631  0.00  0.00    -0.292 OA
ENDROOT
BRANCH   1   3
HETATM    3  C   UNK N   1      34.798  16.136   7.990  0.00  0.00     0.119 C 
BRANCH   3   4
HETATM    4  C   UNK N   1      34.866  15.901   9.492  0.00  0.00     0.180 C 
BRANCH   4   5
HETATM    5  N   UNK N   1      34.798  17.177  10.190  0.00  0.00    -0.417 N 
HETATM    6  H   UNK N   1      34.803  17.208  11.209  0.00  0.00     0.150 HD
HETATM    7  H   UNK N   1      34.747  18.044   9.655  0.00  0.00     0.150 HD
ENDBRANCH   4   5
BRANCH   4   8
HETATM    8  C   UNK N   1      33.726  15.012   9.906  0.00  0.00     0.163 C 
HETATM    9  O   UNK N   1      33.176  14.307   9.075  0.00  0.00    -0.648 OA
BRANCH   8  10
HETATM   10  O   UNK N   1      33.309  14.978  11.187  0.00  0.00    -0.775 OA
HETATM   11  H   UNK N   1      32.593  15.504  11.489  0.00  0.00     0.167 HD
ENDBRANCH   8  10
ENDBRANCH   4   8
ENDBRANCH   3   4
ENDBRANCH   1   3
BRANCH   1  12
HETATM   12  C   UNK N   1      32.638  17.392   7.301  0.00  0.00     0.036 A 
HETATM   13  C   UNK N   1      31.718  17.637   8.333  0.00  0.00     0.017 A 
HETATM   14  C   UNK N   1      30.344  17.644   8.085  0.00  0.00     0.001 A 
HETATM   15  C   UNK N   1      29.869  17.413   6.795  0.00  0.00     0.002 A 
HETATM   16  C   UNK N   1      30.766  17.171   5.753  0.00  0.00     0.030 A 
HETATM   17  C   UNK N   1      32.145  17.153   5.992  0.00  0.00     0.039 A 
BRANCH  17  18
HETATM   18  N   UNK N   1      33.018  16.923   4.909  0.00  0.00    -0.398 N 
HETATM   19  H   UNK N   1      33.801  16.337   5.023  0.00  0.00     0.156 HD
HETATM   20  H   UNK N   1      32.844  17.349   4.038  0.00  0.00     0.156 HD
ENDBRANCH  17  18
ENDBRANCH   1  12
TORSDOF 7
ENDMDL
MODEL 8
REMARK VINA RESULT:      -5.4     13.849     15.161
REMARK  7 active torsions:
REMARK  status: ('A' for Active; 'I' for Inactive)
REMARK    1  A    between atoms: C_2  and  N_1 
REMARK    2  A    between atoms: C_2  and  C_3 
REMARK    3  A    between atoms: C_2  and  C_13 
REMARK    4  A    between atoms: C_3  and  C_4 
REMARK    5  A    between atoms: C_4  and  C_6 
REMARK    6  A    between atoms: C_11  and  N_12 
REMARK    7  A    between atoms: C_13  and  O_14 
ROOT
HETATM    1  C   UNK N   1      32.111  17.028   7.225  0.00  0.00     0.164 C 
HETATM    2  O   UNK N   1      32.411  17.391   6.098  0.00  0.00    -0.292 OA
ENDROOT
BRANCH   1   3
HETATM    3  C   UNK N   1      33.096  16.222   8.025  0.00  0.00     0.119 C 
BRANCH   3   4
HETATM    4  C   UNK N   1      34.384  16.975   8.331  0.00  0.00     0.180 C 
BRANCH   4   5
HETATM    5  N   UNK N   1      34.217  18.382   7.998  0.00  0.00    -0.417 N 
HETATM    6  H   UNK N   1      34.044  18.667   7.034  0.00  0.00     0.150 HD
HETATM    7  H   UNK N   1      34.272  19.087   8.733  0.00  0.00     0.150 HD
ENDBRANCH   4   5
BRANCH   4   8
HETATM    8  C   UNK N   1      34.717  16.813   9.788  0.00  0.00     0.163 C 
HETATM    9  O   UNK N   1      35.620  17.472  10.279  0.00  0.00    -0.648 OA
BRANCH   8  10
HETATM   10  O   UNK N   1      34.025  15.954  10.562  0.00  0.00    -0.775 OA
HETATM   11  H   UNK N   1      34.392  15.140  10.849  0.00  0.00     0.167 HD
ENDBRANCH   8  10
ENDBRANCH   4   8
ENDBRANCH   3   4
ENDBRANCH   1   3
BRANCH   1  12
HETATM   12  C   UNK N   1      30.810  17.427   7.837  0.00  0.00     0.036 A 
HETATM   13  C   UNK N   1      30.823  18.189   9.016  0.00  0.00     0.017 A 
HETATM   14  C   UNK N   1      29.632  18.601   9.619  0.00  0.00     0.001 A 
HETATM   15  C   UNK N   1      28.408  18.262   9.046  0.00  0.00     0.002 A 
HETATM   16  C   UNK N   1      28.373  17.508   7.871  0.00  0.00     0.030 A 
HETATM   17  C   UNK N   1      29.558  17.083   7.263  0.00  0.00     0.039 A 
BRANCH  17  18
HETATM   18  N   UNK N   1      29.479  16.339   6.067  0.00  0.00    -0.398 N 
HETATM   19  H   UNK N   1      29.934  15.470   5.996  0.00  0.00     0.156 HD
HETATM   20  H   UNK N   1      28.967  16.690   5.303  0.00  0.00     0.156 HD
ENDBRANCH  17  18
ENDBRANCH   1  12
TORSDOF 7
ENDMDL
MODEL 9
REMARK VINA RESULT:      -5.4     16.024     19.254
REMARK  7 active torsions:
REMARK  status: ('A' for Active; 'I' for Inactive)
REMARK    1  A    between atoms: C_2  and  N_1 
REMARK    2  A    between atoms: C_2  and  C_3 
REMARK    3  A    between atoms: C_2  and  C_13 
REMARK    4  A    between atoms: C_3  and  C_4 
REMARK    5  A    between atoms: C_4  and  C_6 
REMARK    6  A    between atoms: C_11  and  N_12 
REMARK    7  A    between atoms: C_13  and  O_14 
ROOT
HETATM    1  C   UNK N   1      35.018  14.655   9.540  0.00  0.00     0.164 C 
HETATM    2  O   UNK N   1      34.164  14.425  10.382  0.00  0.00    -0.292 OA
ENDROOT
BRANCH   1   3
HETATM    3  C   UNK N   1      34.778  15.738   8.524  0.00  0.00     0.119 C 
BRANCH   3   4
HETATM    4  C   UNK N   1      34.368  17.067   9.144  0.00  0.00     0.180 C 
BRANCH   4   5
HETATM    5  N   UNK N   1      35.056  17.245  10.415  0.00  0.00    -0.417 N 
HETATM    6  H   UNK N   1      34.574  17.670  11.206  0.00  0.00     0.150 HD
HETATM    7  H   UNK N   1      36.025  16.942  10.513  0.00  0.00     0.150 HD
ENDBRANCH   4   5
BRANCH   4   8
HETATM    8  C   UNK N   1      34.712  18.182   8.196  0.00  0.00     0.163 C 
HETATM    9  O   UNK N   1      34.414  18.087   7.016  0.00  0.00    -0.648 OA
BRANCH   8  10
HETATM   10  O   UNK N   1      35.340  19.290   8.635  0.00  0.00    -0.775 OA
HETATM   11  H   UNK N   1      36.067  19.663   8.174  0.00  0.00     0.167 HD
ENDBRANCH   8  10
ENDBRANCH   4   8
ENDBRANCH   3   4
ENDBRANCH   1   3
BRANCH   1  12
HETATM   12  C   UNK N   1      36.318  13.922   9.548  0.00  0.00     0.036 A 
HETATM   13  C   UNK N   1      36.775  13.343   8.353  0.00  0.00     0.017 A 
HETATM   14  C   UNK N   1      37.991  12.659   8.306  0.00  0.00     0.001 A 
HETATM   15  C   UNK N   1      38.776  12.552   9.453  0.00  0.00     0.002 A 
HETATM   16  C   UNK N   1      38.342  13.125  10.650  0.00  0.00     0.030 A 
HETATM   17  C   UNK N   1      37.121  13.804  10.712  0.00  0.00     0.039 A 
BRANCH  17  18
HETATM   18  N   UNK N   1      36.728  14.385  11.936  0.00  0.00    -0.398 N 
HETATM   19  H   UNK N   1      36.843  13.886  12.777  0.00  0.00     0.156 HD
HETATM   20  H   UNK N   1      36.339  15.289  11.950  0.00  0.00     0.156 HD
ENDBRANCH  17  18
ENDBRANCH   1  12
TORSDOF 7
ENDMDL
