MODEL 1
REMARK VINA RESULT:      -3.9      0.000      0.000
REMARK  6 active torsions:
REMARK  status: ('A' for Active; 'I' for Inactive)
REMARK    1  A    between atoms: C_3  and  C_2 
REMARK    2  A    between atoms: S_9  and  C_2 
REMARK    3  A    between atoms: C_4  and  C_3 
REMARK    4  A    between atoms: C_3  and  N_5 
REMARK    5  A    between atoms: O_7  and  C_4 
REMARK    6  A    between atoms: S_9  and  S_8 
ROOT
HETATM    1  C   UNK N   1      34.108  17.210   9.131  0.00  0.00     0.183 C 
ENDROOT
BRANCH   1   2
HETATM    2  C   UNK N   1      34.107  15.816   8.511  0.00  0.00     0.121 C 
BRANCH   2   3
HETATM    3  S   UNK N   1      32.538  14.946   8.836  0.00  0.00    -0.096 SA
BRANCH   3   4
HETATM    4  S   UNK N   1      31.821  15.291   6.860  0.00  0.00    -0.102 SA
HETATM    5  C   UNK N   1      30.863  16.751   7.356  0.00  0.00     0.102 C 
ENDBRANCH   3   4
ENDBRANCH   2   3
ENDBRANCH   1   2
BRANCH   1   6
HETATM    6  C   UNK N   1      34.631  18.223   8.144  0.00  0.00     0.163 C 
HETATM    7  O   UNK N   1      35.270  19.196   8.533  0.00  0.00    -0.648 OA
BRANCH   6   8
HETATM    8  O   UNK N   1      34.400  18.073   6.829  0.00  0.00    -0.775 OA
HETATM    9  H   UNK N   1      33.571  17.826   6.468  0.00  0.00     0.167 HD
ENDBRANCH   6   8
ENDBRANCH   1   6
BRANCH   1  10
HETATM   10  N   UNK N   1      34.934  17.187  10.327  0.00  0.00    -0.417 N 
HETATM   11  H   UNK N   1      34.583  17.277  11.281  0.00  0.00     0.150 HD
HETATM   12  H   UNK N   1      35.940  17.071  10.204  0.00  0.00     0.150 HD
ENDBRANCH   1  10
TORSDOF 6
ENDMDL
MODEL 2
REMARK VINA RESULT:      -3.8      2.251      3.061
REMARK  6 active torsions:
REMARK  status: ('A' for Active; 'I' for Inactive)
REMARK    1  A    between atoms: C_3  and  C_2 
REMARK    2  A    between atoms: S_9  and  C_2 
REMARK    3  A    between atoms: C_4  and  C_3 
REMARK    4  A    between atoms: C_3  and  N_5 
REMARK    5  A    between atoms: O_7  and  C_4 
REMARK    6  A    between atoms: S_9  and  S_8 
ROOT
HETATM    1  C   UNK N   1      34.316  17.068   9.037  0.00  0.00     0.183 C 
ENDROOT
BRANCH   1   2
HETATM    2  C   UNK N   1      34.787  15.735   8.463  0.00  0.00     0.121 C 
BRANCH   2   3
HETATM    3  S   UNK N   1      35.983  14.921   9.573  0.00  0.00    -0.096 SA
BRANCH   3   4
HETATM    4  S   UNK N   1      34.548  13.495  10.239  0.00  0.00    -0.102 SA
HETATM    5  C   UNK N   1      35.110  13.586  11.961  0.00  0.00     0.102 C 
ENDBRANCH   3   4
ENDBRANCH   2   3
ENDBRANCH   1   2
BRANCH   1   6
HETATM    6  C   UNK N   1      34.701  18.200   8.117  0.00  0.00     0.163 C 
HETATM    7  O   UNK N   1      35.279  19.188   8.558  0.00  0.00    -0.648 OA
BRANCH   6   8
HETATM    8  O   UNK N   1      34.411  18.140   6.806  0.00  0.00    -0.775 OA
HETATM    9  H   UNK N   1      34.233  18.891   6.274  0.00  0.00     0.167 HD
ENDBRANCH   6   8
ENDBRANCH   1   6
BRANCH   1  10
HETATM   10  N   UNK N   1      34.917  17.248  10.348  0.00  0.00    -0.417 N 
HETATM   11  H   UNK N   1      35.665  16.670  10.731  0.00  0.00     0.150 HD
HETATM   12  H   UNK N   1      34.565  18.009  10.929  0.00  0.00     0.150 HD
ENDBRANCH   1  10
TORSDOF 6
ENDMDL
MODEL 3
REMARK VINA RESULT:      -3.8     13.059     14.201
REMARK  6 active torsions:
REMARK  status: ('A' for Active; 'I' for Inactive)
REMARK    1  A    between atoms: C_3  and  C_2 
REMARK    2  A    between atoms: S_9  and  C_2 
REMARK    3  A    between atoms: C_4  and  C_3 
REMARK    4  A    between atoms: C_3  and  N_5 
REMARK    5  A    between atoms: O_7  and  C_4 
REMARK    6  A    between atoms: S_9  and  S_8 
ROOT
HETATM    1  C   UNK N   1      20.463  19.211   2.324  0.00  0.00     0.183 C 
ENDROOT
BRANCH   1   2
HETATM    2  C   UNK N   1      20.951  19.544   3.731  0.00  0.00     0.121 C 
BRANCH   2   3
HETATM    3  S   UNK N   1      22.369  18.500   4.206  0.00  0.00    -0.096 SA
BRANCH   3   4
HETATM    4  S   UNK N   1      21.511  18.019   6.096  0.00  0.00    -0.102 SA
HETATM    5  C   UNK N   1      22.371  16.424   6.191  0.00  0.00     0.102 C 
ENDBRANCH   3   4
ENDBRANCH   2   3
ENDBRANCH   1   2
BRANCH   1   6
HETATM    6  C   UNK N   1      20.858  20.302   1.360  0.00  0.00     0.163 C 
HETATM    7  O   UNK N   1      21.379  21.333   1.772  0.00  0.00    -0.648 OA
BRANCH   6   8
HETATM    8  O   UNK N   1      20.639  20.157   0.043  0.00  0.00    -0.775 OA
HETATM    9  H   UNK N   1      21.176  20.541  -0.623  0.00  0.00     0.167 HD
ENDBRANCH   6   8
ENDBRANCH   1   6
BRANCH   1  10
HETATM   10  N   UNK N   1      19.018  19.056   2.358  0.00  0.00    -0.417 N 
HETATM   11  H   UNK N   1      18.362  19.776   2.661  0.00  0.00     0.150 HD
HETATM   12  H   UNK N   1      18.631  18.162   2.056  0.00  0.00     0.150 HD
ENDBRANCH   1  10
TORSDOF 6
ENDMDL
MODEL 4
REMARK VINA RESULT:      -3.8      1.492      2.191
REMARK  6 active torsions:
REMARK  status: ('A' for Active; 'I' for Inactive)
REMARK    1  A    between atoms: C_3  and  C_2 
REMARK    2  A    between atoms: S_9  and  C_2 
REMARK    3  A    between atoms: C_4  and  C_3 
REMARK    4  A    between atoms: C_3  and  N_5 
REMARK    5  A    between atoms: O_7  and  C_4 
REMARK    6  A    between atoms: S_9  and  S_8 
ROOT
HETATM    1  C   UNK N   1      34.291  17.099   9.043  0.00  0.00     0.183 C 
ENDROOT
BRANCH   1   2
HETATM    2  C   UNK N   1      34.704  15.766   8.426  0.00  0.00     0.121 C 
BRANCH   2   3
HETATM    3  S   UNK N   1      33.249  14.765   7.972  0.00  0.00    -0.096 SA
BRANCH   3   4
HETATM    4  S   UNK N   1      33.776  14.753   5.908  0.00  0.00    -0.102 SA
HETATM    5  C   UNK N   1      35.550  14.902   6.257  0.00  0.00     0.102 C 
ENDBRANCH   3   4
ENDBRANCH   2   3
ENDBRANCH   1   2
BRANCH   1   6
HETATM    6  C   UNK N   1      34.672  18.239   8.133  0.00  0.00     0.163 C 
HETATM    7  O   UNK N   1      34.383  18.204   6.941  0.00  0.00    -0.648 OA
BRANCH   6   8
HETATM    8  O   UNK N   1      35.338  19.302   8.616  0.00  0.00    -0.775 OA
HETATM    9  H   UNK N   1      35.420  19.497   9.529  0.00  0.00     0.167 HD
ENDBRANCH   6   8
ENDBRANCH   1   6
BRANCH   1  10
HETATM   10  N   UNK N   1      34.943  17.235  10.335  0.00  0.00    -0.417 N 
HETATM   11  H   UNK N   1      34.842  16.581  11.111  0.00  0.00     0.150 HD
HETATM   12  H   UNK N   1      35.548  18.044  10.476  0.00  0.00     0.150 HD
ENDBRANCH   1  10
TORSDOF 6
ENDMDL
MODEL 5
REMARK VINA RESULT:      -3.7      1.413      1.810
REMARK  6 active torsions:
REMARK  status: ('A' for Active; 'I' for Inactive)
REMARK    1  A    between atoms: C_3  and  C_2 
REMARK    2  A    between atoms: S_9  and  C_2 
REMARK    3  A    between atoms: C_4  and  C_3 
REMARK    4  A    between atoms: C_3  and  N_5 
REMARK    5  A    between atoms: O_7  and  C_4 
REMARK    6  A    between atoms: S_9  and  S_8 
ROOT
HETATM    1  C   UNK N   1      33.743  17.357   8.888  0.00  0.00     0.183 C 
ENDROOT
BRANCH   1   2
HETATM    2  C   UNK N   1      33.422  16.055   8.159  0.00  0.00     0.121 C 
BRANCH   2   3
HETATM    3  S   UNK N   1      31.648  15.940   7.756  0.00  0.00    -0.096 SA
BRANCH   3   4
HETATM    4  S   UNK N   1      31.229  17.851   8.598  0.00  0.00    -0.102 SA
HETATM    5  C   UNK N   1      29.656  17.299   9.315  0.00  0.00     0.102 C 
ENDBRANCH   3   4
ENDBRANCH   2   3
ENDBRANCH   1   2
BRANCH   1   6
HETATM    6  C   UNK N   1      34.550  18.270   7.999  0.00  0.00     0.163 C 
HETATM    7  O   UNK N   1      34.516  18.137   6.780  0.00  0.00    -0.648 OA
BRANCH   6   8
HETATM    8  O   UNK N   1      35.317  19.235   8.533  0.00  0.00    -0.775 OA
HETATM    9  H   UNK N   1      34.979  19.988   8.976  0.00  0.00     0.167 HD
ENDBRANCH   6   8
ENDBRANCH   1   6
BRANCH   1  10
HETATM   10  N   UNK N   1      34.479  17.041  10.101  0.00  0.00    -0.417 N 
HETATM   11  H   UNK N   1      34.118  16.480  10.873  0.00  0.00     0.150 HD
HETATM   12  H   UNK N   1      35.428  17.406  10.186  0.00  0.00     0.150 HD
ENDBRANCH   1  10
TORSDOF 6
ENDMDL
MODEL 6
REMARK VINA RESULT:      -3.7     13.929     14.563
REMARK  6 active torsions:
REMARK  status: ('A' for Active; 'I' for Inactive)
REMARK    1  A    between atoms: C_3  and  C_2 
REMARK    2  A    between atoms: S_9  and  C_2 
REMARK    3  A    between atoms: C_4  and  C_3 
REMARK    4  A    between atoms: C_3  and  N_5 
REMARK    5  A    between atoms: O_7  and  C_4 
REMARK    6  A    between atoms: S_9  and  S_8 
ROOT
HETATM    1  C   UNK N   1      20.527  19.103   1.971  0.00  0.00     0.183 C 
ENDROOT
BRANCH   1   2
HETATM    2  C   UNK N   1      21.395  18.946   3.217  0.00  0.00     0.121 C 
BRANCH   2   3
HETATM    3  S   UNK N   1      20.794  17.590   4.277  0.00  0.00    -0.096 SA
BRANCH   3   4
HETATM    4  S   UNK N   1      21.639  16.094   3.018  0.00  0.00    -0.102 SA
HETATM    5  C   UNK N   1      20.021  15.384   2.608  0.00  0.00     0.102 C 
ENDBRANCH   3   4
ENDBRANCH   2   3
ENDBRANCH   1   2
BRANCH   1   6
HETATM    6  C   UNK N   1      20.876  20.380   1.248  0.00  0.00     0.163 C 
HETATM    7  O   UNK N   1      21.402  21.310   1.850  0.00  0.00    -0.648 OA
BRANCH   6   8
HETATM    8  O   UNK N   1      20.609  20.513  -0.063  0.00  0.00    -0.775 OA
HETATM    9  H   UNK N   1      21.134  21.015  -0.656  0.00  0.00     0.167 HD
ENDBRANCH   6   8
ENDBRANCH   1   6
BRANCH   1  10
HETATM   10  N   UNK N   1      19.131  19.109   2.376  0.00  0.00    -0.417 N 
HETATM   11  H   UNK N   1      18.395  18.555   1.938  0.00  0.00     0.150 HD
HETATM   12  H   UNK N   1      18.867  19.711   3.156  0.00  0.00     0.150 HD
ENDBRANCH   1  10
TORSDOF 6
ENDMDL
MODEL 7
REMARK VINA RESULT:      -3.6      1.285      1.810
REMARK  6 active torsions:
REMARK  status: ('A' for Active; 'I' for Inactive)
REMARK    1  A    between atoms: C_3  and  C_2 
REMARK    2  A    between atoms: S_9  and  C_2 
REMARK    3  A    between atoms: C_4  and  C_3 
REMARK    4  A    between atoms: C_3  and  N_5 
REMARK    5  A    between atoms: O_7  and  C_4 
REMARK    6  A    between atoms: S_9  and  S_8 
ROOT
HETATM    1  C   UNK N   1      33.127  17.784   8.557  0.00  0.00     0.183 C 
ENDROOT
BRANCH   1   2
HETATM    2  C   UNK N   1      32.085  17.333   7.538  0.00  0.00     0.121 C 
BRANCH   2   3
HETATM    3  S   UNK N   1      31.995  15.514   7.442  0.00  0.00    -0.096 SA
BRANCH   3   4
HETATM    4  S   UNK N   1      30.472  15.567   5.953  0.00  0.00    -0.102 SA
HETATM    5  C   UNK N   1      29.714  17.065   6.640  0.00  0.00     0.102 C 
ENDBRANCH   3   4
ENDBRANCH   2   3
ENDBRANCH   1   2
BRANCH   1   6
HETATM    6  C   UNK N   1      34.366  18.282   7.855  0.00  0.00     0.163 C 
HETATM    7  O   UNK N   1      34.616  17.923   6.709  0.00  0.00    -0.648 OA
BRANCH   6   8
HETATM    8  O   UNK N   1      35.212  19.119   8.480  0.00  0.00    -0.775 OA
HETATM    9  H   UNK N   1      36.068  18.875   8.775  0.00  0.00     0.167 HD
ENDBRANCH   6   8
ENDBRANCH   1   6
BRANCH   1  10
HETATM   10  N   UNK N   1      33.446  16.661   9.423  0.00  0.00    -0.417 N 
HETATM   11  H   UNK N   1      32.891  15.809   9.502  0.00  0.00     0.150 HD
HETATM   12  H   UNK N   1      34.289  16.729   9.995  0.00  0.00     0.150 HD
ENDBRANCH   1  10
TORSDOF 6
ENDMDL
MODEL 8
REMARK VINA RESULT:      -3.3     12.385     13.203
REMARK  6 active torsions:
REMARK  status: ('A' for Active; 'I' for Inactive)
REMARK    1  A    between atoms: C_3  and  C_2 
REMARK    2  A    between atoms: S_9  and  C_2 
REMARK    3  A    between atoms: C_4  and  C_3 
REMARK    4  A    between atoms: C_3  and  N_5 
REMARK    5  A    between atoms: O_7  and  C_4 
REMARK    6  A    between atoms: S_9  and  S_8 
ROOT
HETATM    1  C   UNK N   1      43.784  22.833   3.067  0.00  0.00     0.183 C 
ENDROOT
BRANCH   1   2
HETATM    2  C   UNK N   1      42.446  22.169   2.756  0.00  0.00     0.121 C 
BRANCH   2   3
HETATM    3  S   UNK N   1      41.463  23.170   1.592  0.00  0.00    -0.096 SA
BRANCH   3   4
HETATM    4  S   UNK N   1      43.006  23.160   0.123  0.00  0.00    -0.102 SA
HETATM    5  C   UNK N   1      43.006  24.968  -0.032  0.00  0.00     0.102 C 
ENDBRANCH   3   4
ENDBRANCH   2   3
ENDBRANCH   1   2
BRANCH   1   6
HETATM    6  C   UNK N   1      44.739  21.831   3.666  0.00  0.00     0.163 C 
HETATM    7  O   UNK N   1      44.488  20.631   3.621  0.00  0.00    -0.648 OA
BRANCH   6   8
HETATM    8  O   UNK N   1      45.872  22.242   4.260  0.00  0.00    -0.775 OA
HETATM    9  H   UNK N   1      45.926  22.987   4.827  0.00  0.00     0.167 HD
ENDBRANCH   6   8
ENDBRANCH   1   6
BRANCH   1  10
HETATM   10  N   UNK N   1      43.554  23.934   3.988  0.00  0.00    -0.417 N 
HETATM   11  H   UNK N   1      43.052  23.859   4.873  0.00  0.00     0.150 HD
HETATM   12  H   UNK N   1      43.921  24.850   3.730  0.00  0.00     0.150 HD
ENDBRANCH   1  10
TORSDOF 6
ENDMDL
MODEL 9
REMARK VINA RESULT:      -3.2      4.000      4.837
REMARK  6 active torsions:
REMARK  status: ('A' for Active; 'I' for Inactive)
REMARK    1  A    between atoms: C_3  and  C_2 
REMARK    2  A    between atoms: S_9  and  C_2 
REMARK    3  A    between atoms: C_4  and  C_3 
REMARK    4  A    between atoms: C_3  and  N_5 
REMARK    5  A    between atoms: O_7  and  C_4 
REMARK    6  A    between atoms: S_9  and  S_8 
ROOT
HETATM    1  C   UNK N   1      29.768  17.148   8.659  0.00  0.00     0.183 C 
ENDROOT
BRANCH   1   2
HETATM    2  C   UNK N   1      29.633  17.465   7.172  0.00  0.00     0.121 C 
BRANCH   2   3
HETATM    3  S   UNK N   1      30.181  16.062   6.144  0.00  0.00    -0.096 SA
BRANCH   3   4
HETATM    4  S   UNK N   1      31.166  17.338   4.750  0.00  0.00    -0.102 SA
HETATM    5  C   UNK N   1      32.734  17.288   5.662  0.00  0.00     0.102 C 
ENDBRANCH   3   4
ENDBRANCH   2   3
ENDBRANCH   1   2
BRANCH   1   6
HETATM    6  C   UNK N   1      28.985  18.142   9.480  0.00  0.00     0.163 C 
HETATM    7  O   UNK N   1      29.562  18.893  10.260  0.00  0.00    -0.648 OA
BRANCH   6   8
HETATM    8  O   UNK N   1      27.648  18.212   9.369  0.00  0.00    -0.775 OA
HETATM    9  H   UNK N   1      27.060  17.560   9.698  0.00  0.00     0.167 HD
ENDBRANCH   6   8
ENDBRANCH   1   6
BRANCH   1  10
HETATM   10  N   UNK N   1      31.177  17.188   9.016  0.00  0.00    -0.417 N 
HETATM   11  H   UNK N   1      31.609  17.896   9.609  0.00  0.00     0.150 HD
HETATM   12  H   UNK N   1      31.779  16.451   8.646  0.00  0.00     0.150 HD
ENDBRANCH   1  10
TORSDOF 6
ENDMDL
