MODEL 1
REMARK VINA RESULT:      -7.1      0.000      0.000
REMARK  8 active torsions:
REMARK  status: ('A' for Active; 'I' for Inactive)
REMARK    1  A    between atoms: C_3  and  N_1 
REMARK    2  A    between atoms: C_8  and  O_15 
REMARK    3  A    between atoms: C_13  and  C_18 
REMARK    4  A    between atoms: C_14  and  O_19 
REMARK    5  A    between atoms: C_18  and  O_21 
REMARK    6  A    between atoms: O_21  and  P_22 
REMARK    7  A    between atoms: P_22  and  O_23 
REMARK    8  A    between atoms: P_22  and  O_24 
ROOT
HETATM    1  C   UNK N   1      33.892  15.346   9.316  0.00  0.00     0.261 C 
HETATM    2  O   UNK N   1      34.490  14.085   9.407  0.00  0.00    -0.353 OA
HETATM    3  C   UNK N   1      35.007  16.333   9.510  0.00  0.00     0.198 C 
HETATM    4  C   UNK N   1      35.402  14.217  10.470  0.00  0.00     0.180 C 
HETATM    5  C   UNK N   1      35.587  15.706  10.742  0.00  0.00     0.182 C 
ENDROOT
BRANCH   1   6
HETATM    6  N   UNK N   1      33.131  15.464   8.079  0.00  0.00    -0.311 N 
HETATM    7  C   UNK N   1      32.016  16.185   7.950  0.00  0.00     0.065 A 
HETATM    8  C   UNK N   1      31.571  16.094   6.676  0.00  0.00     0.060 A 
HETATM    9  C   UNK N   1      31.353  16.927   8.924  0.00  0.00     0.039 A 
HETATM   10  C   UNK N   1      30.418  16.746   6.252  0.00  0.00     0.039 A 
HETATM   11  N   UNK N   1      32.402  15.306   5.962  0.00  0.00    -0.350 N 
HETATM   12  C   UNK N   1      29.709  17.513   7.206  0.00  0.00    -0.054 A 
HETATM   13  C   UNK N   1      28.468  18.222   6.786  0.00  0.00     0.049 C 
HETATM   14  C   UNK N   1      30.180  17.598   8.549  0.00  0.00    -0.054 A 
HETATM   15  C   UNK N   1      29.450  18.390   9.580  0.00  0.00     0.049 C 
HETATM   16  C   UNK N   1      33.361  14.926   6.853  0.00  0.00     0.186 A 
ATOM     17  HN  UNK N   1      32.329  15.052   4.978  1.00  0.00     0.166 HD
ENDBRANCH   1   6
BRANCH   3  18
HETATM   18  O   UNK N   1      34.519  17.610   9.787  0.00  0.00    -0.388 OA
HETATM   19  H   UNK N   1      34.437  18.286  10.477  0.00  0.00     0.210 HD
ENDBRANCH   3  18
BRANCH   4  20
HETATM   20  C   UNK N   1      34.836  13.525  11.704  0.00  0.00     0.215 C 
BRANCH  20  21
HETATM   21  O   UNK N   1      35.128  14.279  12.849  0.00  0.00    -0.294 OA
BRANCH  21  22
HETATM   22  P   UNK N   1      36.115  13.248  13.845  0.00  0.00     0.390 P 
HETATM   23  O   UNK N   1      34.765  13.273  14.612  0.00  0.00    -0.632 OA
BRANCH  22  24
HETATM   24  O   UNK N   1      36.560  13.752  15.446  0.00  0.00    -0.307 OA
HETATM   25  H   UNK N   1      36.709  14.683  15.674  0.00  0.00     0.222 HD
ENDBRANCH  22  24
BRANCH  22  26
HETATM   26  O   UNK N   1      36.813  14.838  13.809  0.00  0.00    -0.307 OA
HETATM   27  H   UNK N   1      37.244  15.358  14.505  0.00  0.00     0.222 HD
ENDBRANCH  22  26
ENDBRANCH  21  22
ENDBRANCH  20  21
ENDBRANCH   4  20
BRANCH   5  28
HETATM   28  O   UNK N   1      36.933  16.032  10.893  0.00  0.00    -0.390 OA
HETATM   29  H   UNK N   1      37.342  16.900  10.749  0.00  0.00     0.210 HD
ENDBRANCH   5  28
TORSDOF 8
ENDMDL
MODEL 2
REMARK VINA RESULT:      -7.0     11.457     13.671
REMARK  8 active torsions:
REMARK  status: ('A' for Active; 'I' for Inactive)
REMARK    1  A    between atoms: C_3  and  N_1 
REMARK    2  A    between atoms: C_8  and  O_15 
REMARK    3  A    between atoms: C_13  and  C_18 
REMARK    4  A    between atoms: C_14  and  O_19 
REMARK    5  A    between atoms: C_18  and  O_21 
REMARK    6  A    between atoms: O_21  and  P_22 
REMARK    7  A    between atoms: P_22  and  O_23 
REMARK    8  A    between atoms: P_22  and  O_24 
ROOT
HETATM    1  C   UNK N   1      20.845  17.355   4.697  0.00  0.00     0.261 C 
HETATM    2  O   UNK N   1      20.746  17.609   6.069  0.00  0.00    -0.353 OA
HETATM    3  C   UNK N   1      19.485  16.876   4.279  0.00  0.00     0.198 C 
HETATM    4  C   UNK N   1      19.978  16.537   6.558  0.00  0.00     0.180 C 
HETATM    5  C   UNK N   1      19.314  15.858   5.366  0.00  0.00     0.182 C 
ENDROOT
BRANCH   1   6
HETATM    6  N   UNK N   1      21.364  18.523   3.997  0.00  0.00    -0.311 N 
HETATM    7  C   UNK N   1      22.658  18.839   3.922  0.00  0.00     0.065 A 
HETATM    8  C   UNK N   1      22.799  19.968   3.189  0.00  0.00     0.060 A 
HETATM    9  C   UNK N   1      23.741  18.171   4.486  0.00  0.00     0.039 A 
HETATM   10  C   UNK N   1      24.046  20.534   2.946  0.00  0.00     0.039 A 
HETATM   11  N   UNK N   1      21.587  20.397   2.781  0.00  0.00    -0.350 N 
HETATM   12  C   UNK N   1      25.178  19.891   3.500  0.00  0.00    -0.054 A 
HETATM   13  C   UNK N   1      26.529  20.474   3.262  0.00  0.00     0.049 C 
HETATM   14  C   UNK N   1      25.020  18.707   4.276  0.00  0.00    -0.054 A 
HETATM   15  C   UNK N   1      26.193  18.011   4.881  0.00  0.00     0.049 C 
HETATM   16  C   UNK N   1      20.712  19.487   3.294  0.00  0.00     0.186 A 
ATOM     17  HN  UNK N   1      21.373  21.217   2.215  1.00  0.00     0.166 HD
ENDBRANCH   1   6
BRANCH   3  18
HETATM   18  O   UNK N   1      19.521  16.263   3.027  0.00  0.00    -0.388 OA
HETATM   19  H   UNK N   1      19.740  16.399   2.092  0.00  0.00     0.210 HD
ENDBRANCH   3  18
BRANCH   4  20
HETATM   20  C   UNK N   1      20.893  15.554   7.278  0.00  0.00     0.215 C 
BRANCH  20  21
HETATM   21  O   UNK N   1      20.144  14.471   7.759  0.00  0.00    -0.294 OA
BRANCH  21  22
HETATM   22  P   UNK N   1      20.815  14.100   9.322  0.00  0.00     0.390 P 
HETATM   23  O   UNK N   1      20.835  12.723   8.607  0.00  0.00    -0.632 OA
BRANCH  22  24
HETATM   24  O   UNK N   1      19.956  13.058  10.412  0.00  0.00    -0.307 OA
HETATM   25  H   UNK N   1      19.951  13.202  11.372  0.00  0.00     0.222 HD
ENDBRANCH  22  24
BRANCH  22  26
HETATM   26  O   UNK N   1      19.179  14.649   9.523  0.00  0.00    -0.307 OA
HETATM   27  H   UNK N   1      18.335  14.216   9.316  0.00  0.00     0.222 HD
ENDBRANCH  22  26
ENDBRANCH  21  22
ENDBRANCH  20  21
ENDBRANCH   4  20
BRANCH   5  28
HETATM   28  O   UNK N   1      17.967  15.600   5.613  0.00  0.00    -0.390 OA
HETATM   29  H   UNK N   1      17.341  16.172   6.084  0.00  0.00     0.210 HD
ENDBRANCH   5  28
TORSDOF 8
ENDMDL
MODEL 3
REMARK VINA RESULT:      -7.0     10.757     13.786
REMARK  8 active torsions:
REMARK  status: ('A' for Active; 'I' for Inactive)
REMARK    1  A    between atoms: C_3  and  N_1 
REMARK    2  A    between atoms: C_8  and  O_15 
REMARK    3  A    between atoms: C_13  and  C_18 
REMARK    4  A    between atoms: C_14  and  O_19 
REMARK    5  A    between atoms: C_18  and  O_21 
REMARK    6  A    between atoms: O_21  and  P_22 
REMARK    7  A    between atoms: P_22  and  O_23 
REMARK    8  A    between atoms: P_22  and  O_24 
ROOT
HETATM    1  C   UNK N   1      24.074  19.196   3.623  0.00  0.00     0.261 C 
HETATM    2  O   UNK N   1      23.017  18.880   4.482  0.00  0.00    -0.353 OA
HETATM    3  C   UNK N   1      23.766  20.567   3.094  0.00  0.00     0.198 C 
HETATM    4  C   UNK N   1      21.877  19.349   3.804  0.00  0.00     0.180 C 
HETATM    5  C   UNK N   1      22.346  20.289   2.699  0.00  0.00     0.182 C 
ENDROOT
BRANCH   1   6
HETATM    6  N   UNK N   1      25.352  19.038   4.305  0.00  0.00    -0.311 N 
HETATM    7  C   UNK N   1      26.229  18.068   4.040  0.00  0.00     0.065 A 
HETATM    8  C   UNK N   1      27.313  18.217   4.835  0.00  0.00     0.060 A 
HETATM    9  C   UNK N   1      26.113  17.030   3.118  0.00  0.00     0.039 A 
HETATM   10  C   UNK N   1      28.392  17.341   4.778  0.00  0.00     0.039 A 
HETATM   11  N   UNK N   1      27.146  19.294   5.630  0.00  0.00    -0.350 N 
HETATM   12  C   UNK N   1      28.320  16.270   3.856  0.00  0.00    -0.054 A 
HETATM   13  C   UNK N   1      29.458  15.311   3.772  0.00  0.00     0.049 C 
HETATM   14  C   UNK N   1      27.172  16.115   3.027  0.00  0.00    -0.054 A 
HETATM   15  C   UNK N   1      27.062  14.992   2.052  0.00  0.00     0.049 C 
HETATM   16  C   UNK N   1      25.923  19.787   5.285  0.00  0.00     0.186 A 
ATOM     17  HN  UNK N   1      27.790  19.659   6.331  1.00  0.00     0.166 HD
ENDBRANCH   1   6
BRANCH   3  18
HETATM   18  O   UNK N   1      24.541  20.870   1.975  0.00  0.00    -0.388 OA
HETATM   19  H   UNK N   1      25.084  20.487   1.269  0.00  0.00     0.210 HD
ENDBRANCH   3  18
BRANCH   4  20
HETATM   20  C   UNK N   1      21.130  18.165   3.203  0.00  0.00     0.215 C 
BRANCH  20  21
HETATM   21  O   UNK N   1      20.796  18.440   1.870  0.00  0.00    -0.294 OA
BRANCH  21  22
HETATM   22  P   UNK N   1      20.020  16.998   1.279  0.00  0.00     0.390 P 
HETATM   23  O   UNK N   1      20.494  17.689  -0.027  0.00  0.00    -0.632 OA
BRANCH  22  24
HETATM   24  O   UNK N   1      18.573  17.116   0.327  0.00  0.00    -0.307 OA
HETATM   25  H   UNK N   1      18.402  17.864  -0.266  0.00  0.00     0.222 HD
ENDBRANCH  22  24
BRANCH  22  26
HETATM   26  O   UNK N   1      18.841  17.986   2.087  0.00  0.00    -0.307 OA
HETATM   27  H   UNK N   1      18.876  18.445   2.941  0.00  0.00     0.222 HD
ENDBRANCH  22  26
ENDBRANCH  21  22
ENDBRANCH  20  21
ENDBRANCH   4  20
BRANCH   5  28
HETATM   28  O   UNK N   1      21.589  21.458   2.669  0.00  0.00    -0.390 OA
HETATM   29  H   UNK N   1      21.044  21.817   3.387  0.00  0.00     0.210 HD
ENDBRANCH   5  28
TORSDOF 8
ENDMDL
MODEL 4
REMARK VINA RESULT:      -6.9      4.042      7.771
REMARK  8 active torsions:
REMARK  status: ('A' for Active; 'I' for Inactive)
REMARK    1  A    between atoms: C_3  and  N_1 
REMARK    2  A    between atoms: C_8  and  O_15 
REMARK    3  A    between atoms: C_13  and  C_18 
REMARK    4  A    between atoms: C_14  and  O_19 
REMARK    5  A    between atoms: C_18  and  O_21 
REMARK    6  A    between atoms: O_21  and  P_22 
REMARK    7  A    between atoms: P_22  and  O_23 
REMARK    8  A    between atoms: P_22  and  O_24 
ROOT
HETATM    1  C   UNK N   1      35.186  13.205  11.568  0.00  0.00     0.261 C 
HETATM    2  O   UNK N   1      34.332  14.275  11.857  0.00  0.00    -0.353 OA
HETATM    3  C   UNK N   1      36.572  13.782  11.588  0.00  0.00     0.198 C 
HETATM    4  C   UNK N   1      34.872  15.348  11.125  0.00  0.00     0.180 C 
HETATM    5  C   UNK N   1      36.286  14.961  10.707  0.00  0.00     0.182 C 
ENDROOT
BRANCH   1   6
HETATM    6  N   UNK N   1      34.935  12.091  12.472  0.00  0.00    -0.311 N 
HETATM    7  C   UNK N   1      35.080  12.152  13.797  0.00  0.00     0.065 A 
HETATM    8  C   UNK N   1      34.752  10.956  14.337  0.00  0.00     0.060 A 
HETATM    9  C   UNK N   1      35.504  13.231  14.568  0.00  0.00     0.039 A 
HETATM   10  C   UNK N   1      34.812  10.728  15.708  0.00  0.00     0.039 A 
HETATM   11  N   UNK N   1      34.389  10.102  13.358  0.00  0.00    -0.350 N 
HETATM   12  C   UNK N   1      35.238  11.795  16.533  0.00  0.00    -0.054 A 
HETATM   13  C   UNK N   1      35.317  11.583  18.006  0.00  0.00     0.049 C 
HETATM   14  C   UNK N   1      35.589  13.050  15.956  0.00  0.00    -0.054 A 
HETATM   15  C   UNK N   1      36.051  14.191  16.797  0.00  0.00     0.049 C 
HETATM   16  C   UNK N   1      34.511  10.826  12.210  0.00  0.00     0.186 A 
ATOM     17  HN  UNK N   1      34.090   9.132  13.454  1.00  0.00     0.166 HD
ENDBRANCH   1   6
BRANCH   3  18
HETATM   18  O   UNK N   1      37.493  12.925  10.986  0.00  0.00    -0.388 OA
HETATM   19  H   UNK N   1      38.190  12.275  11.161  0.00  0.00     0.210 HD
ENDBRANCH   3  18
BRANCH   4  20
HETATM   20  C   UNK N   1      34.011  15.599   9.894  0.00  0.00     0.215 C 
BRANCH  20  21
HETATM   21  O   UNK N   1      34.790  16.165   8.875  0.00  0.00    -0.294 OA
BRANCH  21  22
HETATM   22  P   UNK N   1      34.009  17.668   8.475  0.00  0.00     0.390 P 
HETATM   23  O   UNK N   1      34.573  17.201   7.106  0.00  0.00    -0.632 OA
BRANCH  22  24
HETATM   24  O   UNK N   1      34.953  19.021   7.935  0.00  0.00    -0.307 OA
HETATM   25  H   UNK N   1      34.647  19.622   7.238  0.00  0.00     0.222 HD
ENDBRANCH  22  24
BRANCH  22  26
HETATM   26  O   UNK N   1      35.309  17.982   9.584  0.00  0.00    -0.307 OA
HETATM   27  H   UNK N   1      35.437  17.708  10.505  0.00  0.00     0.222 HD
ENDBRANCH  22  26
ENDBRANCH  21  22
ENDBRANCH  20  21
ENDBRANCH   4  20
BRANCH   5  28
HETATM   28  O   UNK N   1      37.187  15.999  10.939  0.00  0.00    -0.390 OA
HETATM   29  H   UNK N   1      38.143  15.919  11.081  0.00  0.00     0.210 HD
ENDBRANCH   5  28
TORSDOF 8
ENDMDL
MODEL 5
REMARK VINA RESULT:      -6.5     11.398     14.033
REMARK  8 active torsions:
REMARK  status: ('A' for Active; 'I' for Inactive)
REMARK    1  A    between atoms: C_3  and  N_1 
REMARK    2  A    between atoms: C_8  and  O_15 
REMARK    3  A    between atoms: C_13  and  C_18 
REMARK    4  A    between atoms: C_14  and  O_19 
REMARK    5  A    between atoms: C_18  and  O_21 
REMARK    6  A    between atoms: O_21  and  P_22 
REMARK    7  A    between atoms: P_22  and  O_23 
REMARK    8  A    between atoms: P_22  and  O_24 
ROOT
HETATM    1  C   UNK N   1      22.061  17.172   4.508  0.00  0.00     0.261 C 
HETATM    2  O   UNK N   1      21.892  16.593   3.246  0.00  0.00    -0.353 OA
HETATM    3  C   UNK N   1      20.884  16.714   5.320  0.00  0.00     0.198 C 
HETATM    4  C   UNK N   1      20.515  16.727   2.992  0.00  0.00     0.180 C 
HETATM    5  C   UNK N   1      19.829  17.058   4.313  0.00  0.00     0.182 C 
ENDROOT
BRANCH   1   6
HETATM    6  N   UNK N   1      23.379  16.857   5.043  0.00  0.00    -0.311 N 
HETATM    7  C   UNK N   1      24.476  17.580   4.808  0.00  0.00     0.065 A 
HETATM    8  C   UNK N   1      25.522  17.027   5.463  0.00  0.00     0.060 A 
HETATM    9  C   UNK N   1      24.603  18.722   4.021  0.00  0.00     0.039 A 
HETATM   10  C   UNK N   1      26.801  17.572   5.397  0.00  0.00     0.039 A 
HETATM   11  N   UNK N   1      25.109  15.931   6.133  0.00  0.00    -0.350 N 
HETATM   12  C   UNK N   1      26.980  18.733   4.609  0.00  0.00    -0.054 A 
HETATM   13  C   UNK N   1      28.337  19.340   4.514  0.00  0.00     0.049 C 
HETATM   14  C   UNK N   1      25.874  19.305   3.916  0.00  0.00    -0.054 A 
HETATM   15  C   UNK N   1      26.032  20.523   3.070  0.00  0.00     0.049 C 
HETATM   16  C   UNK N   1      23.777  15.845   5.857  0.00  0.00     0.186 A 
ATOM     17  HN  UNK N   1      25.667  15.308   6.716  1.00  0.00     0.166 HD
ENDBRANCH   1   6
BRANCH   3  18
HETATM   18  O   UNK N   1      20.732  17.476   6.478  0.00  0.00    -0.388 OA
HETATM   19  H   UNK N   1      20.168  17.623   7.253  0.00  0.00     0.210 HD
ENDBRANCH   3  18
BRANCH   4  20
HETATM   20  C   UNK N   1      20.297  17.854   1.991  0.00  0.00     0.215 C 
BRANCH  20  21
HETATM   21  O   UNK N   1      19.871  19.010   2.660  0.00  0.00    -0.294 OA
BRANCH  21  22
HETATM   22  P   UNK N   1      21.193  20.135   2.532  0.00  0.00     0.390 P 
HETATM   23  O   UNK N   1      20.365  20.714   3.710  0.00  0.00    -0.632 OA
BRANCH  22  24
HETATM   24  O   UNK N   1      20.894  21.777   2.056  0.00  0.00    -0.307 OA
HETATM   25  H   UNK N   1      20.480  22.422   2.650  0.00  0.00     0.222 HD
ENDBRANCH  22  24
BRANCH  22  26
HETATM   26  O   UNK N   1      20.264  20.182   1.065  0.00  0.00    -0.307 OA
HETATM   27  H   UNK N   1      20.440  20.619   0.217  0.00  0.00     0.222 HD
ENDBRANCH  22  26
ENDBRANCH  21  22
ENDBRANCH  20  21
ENDBRANCH   4  20
BRANCH   5  28
HETATM   28  O   UNK N   1      18.681  16.290   4.497  0.00  0.00    -0.390 OA
HETATM   29  H   UNK N   1      18.635  15.326   4.595  0.00  0.00     0.210 HD
ENDBRANCH   5  28
TORSDOF 8
ENDMDL
MODEL 6
REMARK VINA RESULT:      -6.3      6.346      9.834
REMARK  8 active torsions:
REMARK  status: ('A' for Active; 'I' for Inactive)
REMARK    1  A    between atoms: C_3  and  N_1 
REMARK    2  A    between atoms: C_8  and  O_15 
REMARK    3  A    between atoms: C_13  and  C_18 
REMARK    4  A    between atoms: C_14  and  O_19 
REMARK    5  A    between atoms: C_18  and  O_21 
REMARK    6  A    between atoms: O_21  and  P_22 
REMARK    7  A    between atoms: P_22  and  O_23 
REMARK    8  A    between atoms: P_22  and  O_24 
ROOT
HETATM    1  C   UNK N   1      35.769  13.149  15.606  0.00  0.00     0.261 C 
HETATM    2  O   UNK N   1      34.564  13.104  14.898  0.00  0.00    -0.353 OA
HETATM    3  C   UNK N   1      36.509  14.338  15.065  0.00  0.00     0.198 C 
HETATM    4  C   UNK N   1      34.935  13.409  13.576  0.00  0.00     0.180 C 
HETATM    5  C   UNK N   1      36.337  14.007  13.612  0.00  0.00     0.182 C 
ENDROOT
BRANCH   1   6
HETATM    6  N   UNK N   1      35.519  13.140  17.042  0.00  0.00    -0.311 N 
HETATM    7  C   UNK N   1      35.360  12.033  17.768  0.00  0.00     0.065 A 
HETATM    8  C   UNK N   1      35.163  12.373  19.063  0.00  0.00     0.060 A 
HETATM    9  C   UNK N   1      35.373  10.709  17.336  0.00  0.00     0.039 A 
HETATM   10  C   UNK N   1      34.964  11.416  20.052  0.00  0.00     0.039 A 
HETATM   11  N   UNK N   1      35.191  13.717  19.186  0.00  0.00    -0.350 N 
HETATM   12  C   UNK N   1      34.968  10.057  19.661  0.00  0.00    -0.054 A 
HETATM   13  C   UNK N   1      34.755   9.006  20.696  0.00  0.00     0.049 C 
HETATM   14  C   UNK N   1      35.170   9.706  18.294  0.00  0.00    -0.054 A 
HETATM   15  C   UNK N   1      35.170   8.283  17.849  0.00  0.00     0.049 C 
HETATM   16  C   UNK N   1      35.412  14.171  17.920  0.00  0.00     0.186 A 
ATOM     17  HN  UNK N   1      35.075  14.268  20.035  1.00  0.00     0.166 HD
ENDBRANCH   1   6
BRANCH   3  18
HETATM   18  O   UNK N   1      37.856  14.310  15.423  0.00  0.00    -0.388 OA
HETATM   19  H   UNK N   1      38.535  13.793  15.883  0.00  0.00     0.210 HD
ENDBRANCH   3  18
BRANCH   4  20
HETATM   20  C   UNK N   1      34.932  12.131  12.747  0.00  0.00     0.215 C 
BRANCH  20  21
HETATM   21  O   UNK N   1      36.004  12.145  11.844  0.00  0.00    -0.294 OA
BRANCH  21  22
HETATM   22  P   UNK N   1      35.295  11.871  10.278  0.00  0.00     0.390 P 
HETATM   23  O   UNK N   1      35.451  13.415  10.316  0.00  0.00    -0.632 OA
BRANCH  22  24
HETATM   24  O   UNK N   1      33.697  12.454   9.932  0.00  0.00    -0.307 OA
HETATM   25  H   UNK N   1      32.911  11.892  10.013  0.00  0.00     0.222 HD
ENDBRANCH  22  24
BRANCH  22  26
HETATM   26  O   UNK N   1      34.180  11.350  11.504  0.00  0.00    -0.307 OA
HETATM   27  H   UNK N   1      34.116  11.583  12.444  0.00  0.00     0.222 HD
ENDBRANCH  22  26
ENDBRANCH  21  22
ENDBRANCH  20  21
ENDBRANCH   4  20
BRANCH   5  28
HETATM   28  O   UNK N   1      36.425  15.148  12.817  0.00  0.00    -0.390 OA
HETATM   29  H   UNK N   1      37.225  15.510  12.404  0.00  0.00     0.210 HD
ENDBRANCH   5  28
TORSDOF 8
ENDMDL
MODEL 7
REMARK VINA RESULT:      -6.3      4.454      6.441
REMARK  8 active torsions:
REMARK  status: ('A' for Active; 'I' for Inactive)
REMARK    1  A    between atoms: C_3  and  N_1 
REMARK    2  A    between atoms: C_8  and  O_15 
REMARK    3  A    between atoms: C_13  and  C_18 
REMARK    4  A    between atoms: C_14  and  O_19 
REMARK    5  A    between atoms: C_18  and  O_21 
REMARK    6  A    between atoms: O_21  and  P_22 
REMARK    7  A    between atoms: P_22  and  O_23 
REMARK    8  A    between atoms: P_22  and  O_24 
ROOT
HETATM    1  C   UNK N   1      28.861  16.936   7.541  0.00  0.00     0.261 C 
HETATM    2  O   UNK N   1      30.024  17.590   7.122  0.00  0.00    -0.353 OA
HETATM    3  C   UNK N   1      28.374  17.706   8.734  0.00  0.00     0.198 C 
HETATM    4  C   UNK N   1      30.687  17.905   8.322  0.00  0.00     0.180 C 
HETATM    5  C   UNK N   1      29.685  17.752   9.461  0.00  0.00     0.182 C 
ENDROOT
BRANCH   1   6
HETATM    6  N   UNK N   1      27.924  16.798   6.433  0.00  0.00    -0.311 N 
HETATM    7  C   UNK N   1      27.331  17.824   5.820  0.00  0.00     0.065 A 
HETATM    8  C   UNK N   1      26.539  17.353   4.829  0.00  0.00     0.060 A 
HETATM    9  C   UNK N   1      27.450  19.182   6.104  0.00  0.00     0.039 A 
HETATM   10  C   UNK N   1      25.792  18.203   4.020  0.00  0.00     0.039 A 
HETATM   11  N   UNK N   1      26.613  16.007   4.792  0.00  0.00    -0.350 N 
HETATM   12  C   UNK N   1      25.880  19.593   4.270  0.00  0.00    -0.054 A 
HETATM   13  C   UNK N   1      25.089  20.531   3.424  0.00  0.00     0.049 C 
HETATM   14  C   UNK N   1      26.710  20.080   5.321  0.00  0.00    -0.054 A 
HETATM   15  C   UNK N   1      26.817  21.538   5.615  0.00  0.00     0.049 C 
HETATM   16  C   UNK N   1      27.476  15.684   5.796  0.00  0.00     0.186 A 
ATOM     17  HN  UNK N   1      26.131  15.373   4.155  1.00  0.00     0.166 HD
ENDBRANCH   1   6
BRANCH   3  18
HETATM   18  O   UNK N   1      27.430  16.982   9.461  0.00  0.00    -0.388 OA
HETATM   19  H   UNK N   1      26.533  17.010   9.828  0.00  0.00     0.210 HD
ENDBRANCH   3  18
BRANCH   4  20
HETATM   20  C   UNK N   1      31.853  16.946   8.517  0.00  0.00     0.215 C 
BRANCH  20  21
HETATM   21  O   UNK N   1      33.038  17.536   8.055  0.00  0.00    -0.294 OA
BRANCH  21  22
HETATM   22  P   UNK N   1      33.447  16.675   6.598  0.00  0.00     0.390 P 
HETATM   23  O   UNK N   1      33.786  15.645   7.710  0.00  0.00    -0.632 OA
BRANCH  22  24
HETATM   24  O   UNK N   1      35.099  16.249   6.275  0.00  0.00    -0.307 OA
HETATM   25  H   UNK N   1      35.430  15.343   6.376  0.00  0.00     0.222 HD
ENDBRANCH  22  24
BRANCH  22  26
HETATM   26  O   UNK N   1      34.473  18.070   6.739  0.00  0.00    -0.307 OA
HETATM   27  H   UNK N   1      34.267  18.986   6.984  0.00  0.00     0.222 HD
ENDBRANCH  22  26
ENDBRANCH  21  22
ENDBRANCH  20  21
ENDBRANCH   4  20
BRANCH   5  28
HETATM   28  O   UNK N   1      29.741  18.834  10.338  0.00  0.00    -0.390 OA
HETATM   29  H   UNK N   1      30.538  19.303  10.633  0.00  0.00     0.210 HD
ENDBRANCH   5  28
TORSDOF 8
ENDMDL
MODEL 8
REMARK VINA RESULT:      -6.3     12.128     14.945
REMARK  8 active torsions:
REMARK  status: ('A' for Active; 'I' for Inactive)
REMARK    1  A    between atoms: C_3  and  N_1 
REMARK    2  A    between atoms: C_8  and  O_15 
REMARK    3  A    between atoms: C_13  and  C_18 
REMARK    4  A    between atoms: C_14  and  O_19 
REMARK    5  A    between atoms: C_18  and  O_21 
REMARK    6  A    between atoms: O_21  and  P_22 
REMARK    7  A    between atoms: P_22  and  O_23 
REMARK    8  A    between atoms: P_22  and  O_24 
ROOT
HETATM    1  C   UNK N   1      20.927  16.830   5.829  0.00  0.00     0.261 C 
HETATM    2  O   UNK N   1      19.865  16.725   4.924  0.00  0.00    -0.353 OA
HETATM    3  C   UNK N   1      21.302  18.283   5.841  0.00  0.00     0.198 C 
HETATM    4  C   UNK N   1      20.240  17.568   3.862  0.00  0.00     0.180 C 
HETATM    5  C   UNK N   1      21.375  18.460   4.354  0.00  0.00     0.182 C 
ENDROOT
BRANCH   1   6
HETATM    6  N   UNK N   1      20.564  16.243   7.112  0.00  0.00    -0.311 N 
HETATM    7  C   UNK N   1      21.280  15.308   7.739  0.00  0.00     0.065 A 
HETATM    8  C   UNK N   1      20.678  14.994   8.909  0.00  0.00     0.060 A 
HETATM    9  C   UNK N   1      22.458  14.698   7.316  0.00  0.00     0.039 A 
HETATM   10  C   UNK N   1      21.204  14.040   9.774  0.00  0.00     0.039 A 
HETATM   11  N   UNK N   1      19.556  15.731   9.051  0.00  0.00    -0.350 N 
HETATM   12  C   UNK N   1      22.401  13.393   9.387  0.00  0.00    -0.054 A 
HETATM   13  C   UNK N   1      22.990  12.363  10.289  0.00  0.00     0.049 C 
HETATM   14  C   UNK N   1      23.026  13.723   8.149  0.00  0.00    -0.054 A 
HETATM   15  C   UNK N   1      24.283  13.052   7.709  0.00  0.00     0.049 C 
HETATM   16  C   UNK N   1      19.505  16.496   7.925  0.00  0.00     0.186 A 
ATOM     17  HN  UNK N   1      18.895  15.717   9.827  1.00  0.00     0.166 HD
ENDBRANCH   1   6
BRANCH   3  18
HETATM   18  O   UNK N   1      22.552  18.484   6.426  0.00  0.00    -0.388 OA
HETATM   19  H   UNK N   1      23.174  18.142   7.086  0.00  0.00     0.210 HD
ENDBRANCH   3  18
BRANCH   4  20
HETATM   20  C   UNK N   1      20.713  16.717   2.690  0.00  0.00     0.215 C 
BRANCH  20  21
HETATM   21  O   UNK N   1      19.667  15.896   2.246  0.00  0.00    -0.294 OA
BRANCH  21  22
HETATM   22  P   UNK N   1      19.683  16.023   0.510  0.00  0.00     0.390 P 
HETATM   23  O   UNK N   1      21.194  16.014   0.864  0.00  0.00    -0.632 OA
BRANCH  22  24
HETATM   24  O   UNK N   1      20.292  17.459  -0.252  0.00  0.00    -0.307 OA
HETATM   25  H   UNK N   1      20.010  18.348   0.015  0.00  0.00     0.222 HD
ENDBRANCH  22  24
BRANCH  22  26
HETATM   26  O   UNK N   1      18.918  17.434   1.175  0.00  0.00    -0.307 OA
HETATM   27  H   UNK N   1      17.984  17.693   1.207  0.00  0.00     0.222 HD
ENDBRANCH  22  26
ENDBRANCH  21  22
ENDBRANCH  20  21
ENDBRANCH   4  20
BRANCH   5  28
HETATM   28  O   UNK N   1      21.172  19.789   3.990  0.00  0.00    -0.390 OA
HETATM   29  H   UNK N   1      21.645  20.284   3.303  0.00  0.00     0.210 HD
ENDBRANCH   5  28
TORSDOF 8
ENDMDL
MODEL 9
REMARK VINA RESULT:      -6.3      4.106      8.208
REMARK  8 active torsions:
REMARK  status: ('A' for Active; 'I' for Inactive)
REMARK    1  A    between atoms: C_3  and  N_1 
REMARK    2  A    between atoms: C_8  and  O_15 
REMARK    3  A    between atoms: C_13  and  C_18 
REMARK    4  A    between atoms: C_14  and  O_19 
REMARK    5  A    between atoms: C_18  and  O_21 
REMARK    6  A    between atoms: O_21  and  P_22 
REMARK    7  A    between atoms: P_22  and  O_23 
REMARK    8  A    between atoms: P_22  and  O_24 
ROOT
HETATM    1  C   UNK N   1      35.618  14.409  11.533  0.00  0.00     0.261 C 
HETATM    2  O   UNK N   1      34.228  14.250  11.567  0.00  0.00    -0.353 OA
HETATM    3  C   UNK N   1      35.849  15.864  11.244  0.00  0.00     0.198 C 
HETATM    4  C   UNK N   1      33.770  15.040  10.497  0.00  0.00     0.180 C 
HETATM    5  C   UNK N   1      34.909  15.965  10.080  0.00  0.00     0.182 C 
ENDROOT
BRANCH   1   6
HETATM    6  N   UNK N   1      36.222  13.886  12.751  0.00  0.00    -0.311 N 
HETATM    7  C   UNK N   1      36.736  12.660  12.868  0.00  0.00     0.065 A 
HETATM    8  C   UNK N   1      37.229  12.501  14.117  0.00  0.00     0.060 A 
HETATM    9  C   UNK N   1      36.783  11.652  11.909  0.00  0.00     0.039 A 
HETATM   10  C   UNK N   1      37.825  11.312  14.525  0.00  0.00     0.039 A 
HETATM   11  N   UNK N   1      37.037  13.632  14.827  0.00  0.00    -0.350 N 
HETATM   12  C   UNK N   1      37.897  10.258  13.585  0.00  0.00    -0.054 A 
HETATM   13  C   UNK N   1      38.527   8.969  13.991  0.00  0.00     0.049 C 
HETATM   14  C   UNK N   1      37.369  10.431  12.273  0.00  0.00    -0.054 A 
HETATM   15  C   UNK N   1      37.421   9.335  11.263  0.00  0.00     0.049 C 
HETATM   16  C   UNK N   1      36.410  14.476  13.961  0.00  0.00     0.186 A 
ATOM     17  HN  UNK N   1      37.301  13.814  15.795  1.00  0.00     0.166 HD
ENDBRANCH   1   6
BRANCH   3  18
HETATM   18  O   UNK N   1      37.162  16.104  10.842  0.00  0.00    -0.388 OA
HETATM   19  H   UNK N   1      38.093  15.966  11.077  0.00  0.00     0.210 HD
ENDBRANCH   3  18
BRANCH   4  20
HETATM   20  C   UNK N   1      33.379  14.134   9.337  0.00  0.00     0.215 C 
BRANCH  20  21
HETATM   21  O   UNK N   1      33.524  14.823   8.125  0.00  0.00    -0.294 OA
BRANCH  21  22
HETATM   22  P   UNK N   1      31.947  15.468   7.766  0.00  0.00     0.390 P 
HETATM   23  O   UNK N   1      31.952  14.125   6.987  0.00  0.00    -0.632 OA
BRANCH  22  24
HETATM   24  O   UNK N   1      31.547  15.933   6.142  0.00  0.00    -0.307 OA
HETATM   25  H   UNK N   1      30.737  16.421   5.927  0.00  0.00     0.222 HD
ENDBRANCH  22  24
BRANCH  22  26
HETATM   26  O   UNK N   1      33.156  16.538   7.125  0.00  0.00    -0.307 OA
HETATM   27  H   UNK N   1      33.078  17.297   6.526  0.00  0.00     0.222 HD
ENDBRANCH  22  26
ENDBRANCH  21  22
ENDBRANCH  20  21
ENDBRANCH   4  20
BRANCH   5  28
HETATM   28  O   UNK N   1      34.463  17.272   9.899  0.00  0.00    -0.390 OA
HETATM   29  H   UNK N   1      34.967  18.014   9.531  0.00  0.00     0.210 HD
ENDBRANCH   5  28
TORSDOF 8
ENDMDL
