MODEL 1
REMARK VINA RESULT:      -7.1      0.000      0.000
REMARK  23 active torsions:
REMARK  status: ('A' for Active; 'I' for Inactive)
REMARK    1  A    between atoms: C_2  and  C_5 
REMARK    2  A    between atoms: C_6  and  C_14 
REMARK    3  A    between atoms: C_11  and  C_20 
REMARK    4  A    between atoms: C_14  and  O_22 
REMARK    5  A    between atoms: C_20  and  C_28 
REMARK    6  A    between atoms: C_28  and  C_37 
REMARK    7  A    between atoms: C_31  and  C_39 
REMARK    8  A    between atoms: C_34  and  C_41 
REMARK    9  A    between atoms: C_37  and  O_43 
REMARK   10  A    between atoms: O_43  and  C_48 
REMARK   11  A    between atoms: C_48  and  C_49 
REMARK   12  A    between atoms: C_50  and  C_51 
REMARK   13  A    between atoms: C_51  and  C_53 
REMARK   14  A    between atoms: C_53  and  C_54 
REMARK   15  A    between atoms: C_54  and  C_55 
REMARK   16  A    between atoms: C_55  and  C_56 
REMARK   17  A    between atoms: C_56  and  C_58 
REMARK   18  A    between atoms: C_58  and  C_59 
REMARK   19  A    between atoms: C_59  and  C_60 
REMARK   20  A    between atoms: C_60  and  C_61 
REMARK   21  A    between atoms: C_61  and  C_63 
REMARK   22  A    between atoms: C_63  and  C_64 
REMARK   23  A    between atoms: C_64  and  C_65 
ROOT
HETATM    1  C   UNK N   1      29.110  13.148   4.016  0.00  0.00     0.081 A 
HETATM    2  C   UNK N   1      28.124  12.823   3.178  0.00  0.00     0.016 A 
HETATM    3  N   UNK N   1      29.334  14.183   4.846  0.00  0.00    -0.247 N 
HETATM    4  C   UNK N   1      30.097  12.268   4.047  0.00  0.00     0.049 A 
HETATM    5  C   UNK N   1      26.974  13.719   2.860  0.00  0.00     0.024 A 
HETATM    6  C   UNK N   1      28.438  11.461   2.513  0.00  0.00     0.197 A 
HETATM    7  C   UNK N   1      30.590  13.969   5.338  0.00  0.00     0.066 A 
HETATM    8 Mg   UNK N   1      27.808  15.483   5.494  0.00  0.00     0.000 Mg
HETATM    9  C   UNK N   1      31.084  12.759   4.855  0.00  0.00    -0.017 A 
HETATM   10  C   UNK N   1      29.737  11.151   3.240  0.00  0.00     0.180 A 
HETATM   11  C   UNK N   1      25.931  13.455   1.804  0.00  0.00     0.046 A 
HETATM   12  N   UNK N   1      26.885  14.883   3.362  0.00  0.00    -0.362 N 
ATOM     13  HN  UNK N   1      27.514  15.256   4.073  1.00  0.00     0.165 HD
HETATM   14  C   UNK N   1      31.248  14.752   6.203  0.00  0.00     0.062 C 
HETATM   15  N   UNK N   1      27.161  17.402   4.995  0.00  0.00    -0.248 N 
HETATM   16  C   UNK N   1      32.387  12.104   5.167  0.00  0.00     0.052 C 
HETATM   17  O   UNK N   1      30.379  10.122   3.154  0.00  0.00    -0.291 OA
HETATM   18  C   UNK N   1      25.086  14.773   1.787  0.00  0.00     0.041 A 
HETATM   19  C   UNK N   1      25.816  15.582   2.815  0.00  0.00     0.016 A 
HETATM   20  C   UNK N   1      30.747  16.040   6.705  0.00  0.00     0.041 A 
HETATM   21  C   UNK N   1      27.469  18.529   5.690  0.00  0.00     0.070 A 
HETATM   22  C   UNK N   1      26.212  17.749   4.087  0.00  0.00     0.066 A 
HETATM   23  C   UNK N   1      23.628  14.594   2.197  0.00  0.00     0.017 C 
HETATM   24  C   UNK N   1      25.520  16.857   3.115  0.00  0.00     0.057 C 
HETATM   25  C   UNK N   1      31.282  16.773   7.862  0.00  0.00    -0.024 A 
HETATM   26  N   UNK N   1      29.730  16.641   6.219  0.00  0.00    -0.355 N 
ATOM     27  HN  UNK N   1      29.200  16.350   5.399  1.00  0.00     0.166 HD
HETATM   28  C   UNK N   1      26.686  19.586   5.244  0.00  0.00     0.000 A 
HETATM   29  C   UNK N   1      28.469  18.635   6.789  0.00  0.00     0.062 C 
HETATM   30  C   UNK N   1      25.907  19.091   4.222  0.00  0.00    -0.021 A 
HETATM   31  C   UNK N   1      30.487  17.828   8.056  0.00  0.00    -0.027 A 
HETATM   32  C   UNK N   1      29.469  17.768   7.007  0.00  0.00     0.041 A 
HETATM   33  C   UNK N   1      24.884  19.851   3.444  0.00  0.00     0.052 C 
HETATM   34  C   UNK N   1      30.624  18.859   9.127  0.00  0.00     0.051 C 
ENDROOT
BRANCH  11  35
HETATM   35  C   UNK N   1      25.148  12.168   2.031  0.00  0.00     0.021 C 
BRANCH  35  36
HETATM   36  C   UNK N   1      24.986  11.453   0.698  0.00  0.00     0.112 C 
BRANCH  36  37
HETATM   37  C   UNK N   1      23.606  10.893   0.607  0.00  0.00     0.259 C 
HETATM   38  O   UNK N   1      23.432   9.795   0.095  0.00  0.00    -0.265 OA
BRANCH  37  39
HETATM   39  O   UNK N   1      22.555  11.628   1.052  0.00  0.00    -0.318 OA
BRANCH  39  40
HETATM   40  C   UNK N   1      21.492  11.085   1.741  0.00  0.00     0.206 C 
BRANCH  40  41
HETATM   41  C   UNK N   1      21.885  10.812   3.165  0.00  0.00     0.002 C 
HETATM   42  C   UNK N   1      21.595  11.644   4.166  0.00  0.00    -0.086 C 
HETATM   43  C   UNK N   1      20.852  12.922   3.930  0.00  0.00     0.043 C 
BRANCH  42  44
HETATM   44  C   UNK N   1      22.092  11.323   5.534  0.00  0.00     0.033 C 
BRANCH  44  45
HETATM   45  C   UNK N   1      21.131  11.826   6.590  0.00  0.00     0.005 C 
BRANCH  45  46
HETATM   46  C   UNK N   1      21.778  12.882   7.463  0.00  0.00     0.004 C 
BRANCH  46  47
HETATM   47  C   UNK N   1      21.659  12.662   8.972  0.00  0.00    -0.019 C 
HETATM   48  C   UNK N   1      20.829  13.729   9.672  0.00  0.00     0.010 C 
BRANCH  47  49
HETATM   49  C   UNK N   1      23.062  12.590   9.591  0.00  0.00     0.004 C 
BRANCH  49  50
HETATM   50  C   UNK N   1      24.179  12.343   8.567  0.00  0.00     0.001 C 
BRANCH  50  51
HETATM   51  C   UNK N   1      25.127  13.540   8.475  0.00  0.00     0.004 C 
BRANCH  51  52
HETATM   52  C   UNK N   1      25.468  13.984   7.040  0.00  0.00    -0.019 C 
HETATM   53  C   UNK N   1      25.301  12.924   5.955  0.00  0.00     0.010 C 
BRANCH  52  54
HETATM   54  C   UNK N   1      24.770  15.281   6.668  0.00  0.00     0.004 C 
BRANCH  54  55
HETATM   55  C   UNK N   1      23.564  15.030   5.780  0.00  0.00     0.001 C 
BRANCH  55  56
HETATM   56  C   UNK N   1      22.909  16.349   5.429  0.00  0.00     0.004 C 
BRANCH  56  57
HETATM   57  C   UNK N   1      21.806  16.676   6.421  0.00  0.00    -0.023 C 
HETATM   58  C   UNK N   1      21.472  18.148   6.321  0.00  0.00     0.009 C 
HETATM   59  C   UNK N   1      20.557  15.861   6.136  0.00  0.00     0.009 C 
ENDBRANCH  56  57
ENDBRANCH  55  56
ENDBRANCH  54  55
ENDBRANCH  52  54
ENDBRANCH  51  52
ENDBRANCH  50  51
ENDBRANCH  49  50
ENDBRANCH  47  49
ENDBRANCH  46  47
ENDBRANCH  45  46
ENDBRANCH  44  45
ENDBRANCH  42  44
ENDBRANCH  40  41
ENDBRANCH  39  40
ENDBRANCH  37  39
ENDBRANCH  36  37
ENDBRANCH  35  36
ENDBRANCH  11  35
BRANCH  28  60
HETATM   60  C   UNK N   1      26.625  20.974   5.751  0.00  0.00     0.004 C 
HETATM   61  C   UNK N   1      26.222  21.274   6.985  0.00  0.00     0.012 C 
ENDBRANCH  28  60
BRANCH   6  62
HETATM   62  C   UNK N   1      28.734  11.569   1.030  0.00  0.00     0.274 C 
HETATM   63  O   UNK N   1      29.324  12.551   0.591  0.00  0.00    -0.264 OA
BRANCH  62  64
HETATM   64  O   UNK N   1      28.348  10.586   0.188  0.00  0.00    -0.326 OA
HETATM   65  C   UNK N   1      29.254   9.779  -0.459  0.00  0.00     0.213 C 
ENDBRANCH  62  64
ENDBRANCH   6  62
BRANCH  25  66
HETATM   66  C   UNK N   1      32.493  16.405   8.666  0.00  0.00     0.037 C 
HETATM   67  C   UNK N   1      33.736  17.065   8.100  0.00  0.00     0.010 C 
ENDBRANCH  25  66
TORSDOF 23
ENDMDL
MODEL 2
REMARK VINA RESULT:      -7.1      1.216      2.901
REMARK  23 active torsions:
REMARK  status: ('A' for Active; 'I' for Inactive)
REMARK    1  A    between atoms: C_2  and  C_5 
REMARK    2  A    between atoms: C_6  and  C_14 
REMARK    3  A    between atoms: C_11  and  C_20 
REMARK    4  A    between atoms: C_14  and  O_22 
REMARK    5  A    between atoms: C_20  and  C_28 
REMARK    6  A    between atoms: C_28  and  C_37 
REMARK    7  A    between atoms: C_31  and  C_39 
REMARK    8  A    between atoms: C_34  and  C_41 
REMARK    9  A    between atoms: C_37  and  O_43 
REMARK   10  A    between atoms: O_43  and  C_48 
REMARK   11  A    between atoms: C_48  and  C_49 
REMARK   12  A    between atoms: C_50  and  C_51 
REMARK   13  A    between atoms: C_51  and  C_53 
REMARK   14  A    between atoms: C_53  and  C_54 
REMARK   15  A    between atoms: C_54  and  C_55 
REMARK   16  A    between atoms: C_55  and  C_56 
REMARK   17  A    between atoms: C_56  and  C_58 
REMARK   18  A    between atoms: C_58  and  C_59 
REMARK   19  A    between atoms: C_59  and  C_60 
REMARK   20  A    between atoms: C_60  and  C_61 
REMARK   21  A    between atoms: C_61  and  C_63 
REMARK   22  A    between atoms: C_63  and  C_64 
REMARK   23  A    between atoms: C_64  and  C_65 
ROOT
HETATM    1  C   UNK N   1      29.094  13.257   3.987  0.00  0.00     0.081 A 
HETATM    2  C   UNK N   1      28.134  12.912   3.128  0.00  0.00     0.016 A 
HETATM    3  N   UNK N   1      29.261  14.277   4.848  0.00  0.00    -0.247 N 
HETATM    4  C   UNK N   1      30.119  12.421   4.007  0.00  0.00     0.049 A 
HETATM    5  C   UNK N   1      26.948  13.764   2.820  0.00  0.00     0.024 A 
HETATM    6  C   UNK N   1      28.516  11.585   2.430  0.00  0.00     0.197 A 
HETATM    7  C   UNK N   1      30.520  14.106   5.350  0.00  0.00     0.066 A 
HETATM    8 Mg   UNK N   1      27.672  15.489   5.512  0.00  0.00     0.000 Mg
HETATM    9  C   UNK N   1      31.074  12.933   4.840  0.00  0.00    -0.017 A 
HETATM   10  C   UNK N   1      29.819  11.312   3.165  0.00  0.00     0.180 A 
HETATM   11  C   UNK N   1      25.931  13.484   1.744  0.00  0.00     0.046 A 
HETATM   12  N   UNK N   1      26.801  14.909   3.353  0.00  0.00    -0.362 N 
ATOM     13  HN  UNK N   1      27.405  15.289   4.082  1.00  0.00     0.165 HD
HETATM   14  C   UNK N   1      31.132  14.893   6.244  0.00  0.00     0.062 C 
HETATM   15  N   UNK N   1      26.944  17.391   5.058  0.00  0.00    -0.248 N 
HETATM   16  C   UNK N   1      32.402  12.329   5.150  0.00  0.00     0.052 C 
HETATM   17  O   UNK N   1      30.508  10.316   3.058  0.00  0.00    -0.291 OA
HETATM   18  C   UNK N   1      25.028  14.762   1.753  0.00  0.00     0.041 A 
HETATM   19  C   UNK N   1      25.708  15.574   2.811  0.00  0.00     0.016 A 
HETATM   20  C   UNK N   1      30.568  16.142   6.775  0.00  0.00     0.041 A 
HETATM   21  C   UNK N   1      27.194  18.511   5.787  0.00  0.00     0.070 A 
HETATM   22  C   UNK N   1      25.991  17.720   4.147  0.00  0.00     0.066 A 
HETATM   23  C   UNK N   1      23.574  14.507   2.139  0.00  0.00     0.017 C 
HETATM   24  C   UNK N   1      25.352  16.826   3.142  0.00  0.00     0.057 C 
HETATM   25  C   UNK N   1      31.056  16.866   7.959  0.00  0.00    -0.024 A 
HETATM   26  N   UNK N   1      29.531  16.711   6.294  0.00  0.00    -0.355 N 
ATOM     27  HN  UNK N   1      29.023  16.419   5.459  1.00  0.00     0.166 HD
HETATM   28  C   UNK N   1      26.369  19.543   5.361  0.00  0.00     0.000 A 
HETATM   29  C   UNK N   1      28.175  18.629   6.902  0.00  0.00     0.062 C 
HETATM   30  C   UNK N   1      25.624  19.043   4.315  0.00  0.00    -0.021 A 
HETATM   31  C   UNK N   1      30.213  17.879   8.172  0.00  0.00    -0.027 A 
HETATM   32  C   UNK N   1      29.211  17.803   7.108  0.00  0.00     0.041 A 
HETATM   33  C   UNK N   1      24.578  19.778   3.546  0.00  0.00     0.052 C 
HETATM   34  C   UNK N   1      30.291  18.884   9.273  0.00  0.00     0.051 C 
ENDROOT
BRANCH  11  35
HETATM   35  C   UNK N   1      25.203  12.157   1.925  0.00  0.00     0.021 C 
BRANCH  35  36
HETATM   36  C   UNK N   1      24.862  11.595   0.554  0.00  0.00     0.112 C 
BRANCH  36  37
HETATM   37  C   UNK N   1      24.083  10.334   0.720  0.00  0.00     0.259 C 
HETATM   38  O   UNK N   1      23.954   9.573  -0.230  0.00  0.00    -0.265 OA
BRANCH  37  39
HETATM   39  O   UNK N   1      23.488  10.068   1.912  0.00  0.00    -0.318 OA
BRANCH  39  40
HETATM   40  C   UNK N   1      22.139   9.818   2.042  0.00  0.00     0.206 C 
BRANCH  40  41
HETATM   41  C   UNK N   1      21.516  10.820   2.971  0.00  0.00     0.002 C 
HETATM   42  C   UNK N   1      20.899  11.920   2.538  0.00  0.00    -0.086 C 
HETATM   43  C   UNK N   1      20.789  12.231   1.077  0.00  0.00     0.043 C 
BRANCH  42  44
HETATM   44  C   UNK N   1      20.376  12.892   3.540  0.00  0.00     0.033 C 
BRANCH  44  45
HETATM   45  C   UNK N   1      19.791  14.110   2.857  0.00  0.00     0.005 C 
BRANCH  45  46
HETATM   46  C   UNK N   1      20.064  15.370   3.652  0.00  0.00     0.004 C 
BRANCH  46  47
HETATM   47  C   UNK N   1      20.347  16.629   2.830  0.00  0.00    -0.019 C 
HETATM   48  C   UNK N   1      20.427  16.363   1.332  0.00  0.00     0.010 C 
BRANCH  47  49
HETATM   49  C   UNK N   1      21.645  17.282   3.324  0.00  0.00     0.004 C 
BRANCH  49  50
HETATM   50  C   UNK N   1      21.520  17.946   4.702  0.00  0.00     0.001 C 
BRANCH  50  51
HETATM   51  C   UNK N   1      22.517  17.355   5.700  0.00  0.00     0.004 C 
BRANCH  51  52
HETATM   52  C   UNK N   1      21.885  16.505   6.818  0.00  0.00    -0.019 C 
HETATM   53  C   UNK N   1      20.378  16.657   7.003  0.00  0.00     0.010 C 
BRANCH  52  54
HETATM   54  C   UNK N   1      22.290  15.044   6.715  0.00  0.00     0.004 C 
BRANCH  54  55
HETATM   55  C   UNK N   1      23.465  14.857   5.772  0.00  0.00     0.001 C 
BRANCH  55  56
HETATM   56  C   UNK N   1      23.468  13.438   5.241  0.00  0.00     0.004 C 
BRANCH  56  57
HETATM   57  C   UNK N   1      24.392  12.562   6.070  0.00  0.00    -0.023 C 
HETATM   58  C   UNK N   1      24.623  11.257   5.341  0.00  0.00     0.009 C 
HETATM   59  C   UNK N   1      25.728  13.246   6.303  0.00  0.00     0.009 C 
ENDBRANCH  56  57
ENDBRANCH  55  56
ENDBRANCH  54  55
ENDBRANCH  52  54
ENDBRANCH  51  52
ENDBRANCH  50  51
ENDBRANCH  49  50
ENDBRANCH  47  49
ENDBRANCH  46  47
ENDBRANCH  45  46
ENDBRANCH  44  45
ENDBRANCH  42  44
ENDBRANCH  40  41
ENDBRANCH  39  40
ENDBRANCH  37  39
ENDBRANCH  36  37
ENDBRANCH  35  36
ENDBRANCH  11  35
BRANCH  28  60
HETATM   60  C   UNK N   1      26.239  20.913   5.905  0.00  0.00     0.004 C 
HETATM   61  C   UNK N   1      27.287  21.709   6.112  0.00  0.00     0.012 C 
ENDBRANCH  28  60
BRANCH   6  62
HETATM   62  C   UNK N   1      28.824  11.748   0.954  0.00  0.00     0.274 C 
HETATM   63  O   UNK N   1      29.329  12.787   0.542  0.00  0.00    -0.264 OA
BRANCH  62  64
HETATM   64  O   UNK N   1      28.543  10.750   0.088  0.00  0.00    -0.326 OA
HETATM   65  C   UNK N   1      27.891   9.604   0.479  0.00  0.00     0.213 C 
ENDBRANCH  62  64
ENDBRANCH   6  62
BRANCH  25  66
HETATM   66  C   UNK N   1      32.273  16.530   8.768  0.00  0.00     0.037 C 
HETATM   67  C   UNK N   1      33.467  17.344   8.308  0.00  0.00     0.010 C 
ENDBRANCH  25  66
TORSDOF 23
ENDMDL
MODEL 3
REMARK VINA RESULT:      -6.9      2.846      7.025
REMARK  23 active torsions:
REMARK  status: ('A' for Active; 'I' for Inactive)
REMARK    1  A    between atoms: C_2  and  C_5 
REMARK    2  A    between atoms: C_6  and  C_14 
REMARK    3  A    between atoms: C_11  and  C_20 
REMARK    4  A    between atoms: C_14  and  O_22 
REMARK    5  A    between atoms: C_20  and  C_28 
REMARK    6  A    between atoms: C_28  and  C_37 
REMARK    7  A    between atoms: C_31  and  C_39 
REMARK    8  A    between atoms: C_34  and  C_41 
REMARK    9  A    between atoms: C_37  and  O_43 
REMARK   10  A    between atoms: O_43  and  C_48 
REMARK   11  A    between atoms: C_48  and  C_49 
REMARK   12  A    between atoms: C_50  and  C_51 
REMARK   13  A    between atoms: C_51  and  C_53 
REMARK   14  A    between atoms: C_53  and  C_54 
REMARK   15  A    between atoms: C_54  and  C_55 
REMARK   16  A    between atoms: C_55  and  C_56 
REMARK   17  A    between atoms: C_56  and  C_58 
REMARK   18  A    between atoms: C_58  and  C_59 
REMARK   19  A    between atoms: C_59  and  C_60 
REMARK   20  A    between atoms: C_60  and  C_61 
REMARK   21  A    between atoms: C_61  and  C_63 
REMARK   22  A    between atoms: C_63  and  C_64 
REMARK   23  A    between atoms: C_64  and  C_65 
ROOT
HETATM    1  C   UNK N   1      22.794  13.452   2.139  0.00  0.00     0.081 A 
HETATM    2  C   UNK N   1      21.895  14.336   2.575  0.00  0.00     0.016 A 
HETATM    3  N   UNK N   1      24.125  13.321   2.276  0.00  0.00    -0.247 N 
HETATM    4  C   UNK N   1      22.275  12.482   1.403  0.00  0.00     0.049 A 
HETATM    5  C   UNK N   1      22.249  15.592   3.300  0.00  0.00     0.024 A 
HETATM    6  C   UNK N   1      20.483  13.918   2.099  0.00  0.00     0.197 A 
HETATM    7  C   UNK N   1      24.453  12.257   1.484  0.00  0.00     0.066 A 
HETATM    8 Mg   UNK N   1      25.225  14.304   3.779  0.00  0.00     0.000 Mg
HETATM    9  C   UNK N   1      23.297  11.706   0.933  0.00  0.00    -0.017 A 
HETATM   10  C   UNK N   1      20.857  12.620   1.403  0.00  0.00     0.180 A 
HETATM   11  C   UNK N   1      21.281  16.688   3.665  0.00  0.00     0.046 A 
HETATM   12  N   UNK N   1      23.460  15.909   3.520  0.00  0.00    -0.362 N 
ATOM     13  HN  UNK N   1      24.261  15.310   3.316  1.00  0.00     0.165 HD
HETATM   14  C   UNK N   1      25.681  11.757   1.294  0.00  0.00     0.062 C 
HETATM   15  N   UNK N   1      26.452  15.988   3.881  0.00  0.00    -0.248 N 
HETATM   16  C   UNK N   1      23.174  10.510   0.052  0.00  0.00     0.052 C 
HETATM   17  O   UNK N   1      20.083  11.819   0.914  0.00  0.00    -0.291 OA
HETATM   18  C   UNK N   1      22.204  17.812   4.245  0.00  0.00     0.041 A 
HETATM   19  C   UNK N   1      23.550  17.179   4.076  0.00  0.00     0.016 A 
HETATM   20  C   UNK N   1      26.910  12.339   1.853  0.00  0.00     0.041 A 
HETATM   21  C   UNK N   1      27.811  15.959   3.867  0.00  0.00     0.070 A 
HETATM   22  C   UNK N   1      26.091  17.263   4.184  0.00  0.00     0.066 A 
HETATM   23  C   UNK N   1      21.957  18.139   5.714  0.00  0.00     0.017 C 
HETATM   24  C   UNK N   1      24.710  17.795   4.356  0.00  0.00     0.057 C 
HETATM   25  C   UNK N   1      28.218  11.669   1.924  0.00  0.00    -0.024 A 
HETATM   26  N   UNK N   1      26.960  13.489   2.406  0.00  0.00    -0.355 N 
ATOM     27  HN  UNK N   1      26.194  14.159   2.461  1.00  0.00     0.166 HD
HETATM   28  C   UNK N   1      28.312  17.211   4.197  0.00  0.00     0.000 A 
HETATM   29  C   UNK N   1      28.659  14.769   3.575  0.00  0.00     0.062 C 
HETATM   30  C   UNK N   1      27.222  18.033   4.380  0.00  0.00    -0.021 A 
HETATM   31  C   UNK N   1      29.037  12.483   2.596  0.00  0.00    -0.027 A 
HETATM   32  C   UNK N   1      28.248  13.671   2.924  0.00  0.00     0.041 A 
HETATM   33  C   UNK N   1      27.257  19.473   4.771  0.00  0.00     0.052 C 
HETATM   34  C   UNK N   1      30.468  12.225   2.931  0.00  0.00     0.051 C 
ENDROOT
BRANCH  11  35
HETATM   35  C   UNK N   1      20.151  16.223   4.576  0.00  0.00     0.021 C 
BRANCH  35  36
HETATM   36  C   UNK N   1      20.729  15.309   5.645  0.00  0.00     0.112 C 
BRANCH  36  37
HETATM   37  C   UNK N   1      19.819  15.299   6.827  0.00  0.00     0.259 C 
HETATM   38  O   UNK N   1      18.954  16.159   6.932  0.00  0.00    -0.265 OA
BRANCH  37  39
HETATM   39  O   UNK N   1      19.990  14.362   7.795  0.00  0.00    -0.318 OA
BRANCH  39  40
HETATM   40  C   UNK N   1      20.521  14.646   9.035  0.00  0.00     0.206 C 
BRANCH  40  41
HETATM   41  C   UNK N   1      21.892  14.046   9.159  0.00  0.00     0.002 C 
HETATM   42  C   UNK N   1      22.161  13.021   9.968  0.00  0.00    -0.086 C 
HETATM   43  C   UNK N   1      21.098  12.396  10.818  0.00  0.00     0.043 C 
BRANCH  42  44
HETATM   44  C   UNK N   1      23.568  12.543  10.079  0.00  0.00     0.033 C 
BRANCH  44  45
HETATM   45  C   UNK N   1      24.487  13.358   9.194  0.00  0.00     0.005 C 
BRANCH  45  46
HETATM   46  C   UNK N   1      24.780  12.637   7.894  0.00  0.00     0.004 C 
BRANCH  46  47
HETATM   47  C   UNK N   1      24.664  13.483   6.624  0.00  0.00    -0.019 C 
HETATM   48  C   UNK N   1      24.788  14.978   6.884  0.00  0.00     0.010 C 
BRANCH  47  49
HETATM   49  C   UNK N   1      23.333  13.174   5.924  0.00  0.00     0.004 C 
BRANCH  49  50
HETATM   50  C   UNK N   1      22.951  11.687   5.946  0.00  0.00     0.001 C 
BRANCH  50  51
HETATM   51  C   UNK N   1      21.507  11.488   6.409  0.00  0.00     0.004 C 
BRANCH  51  52
HETATM   52  C   UNK N   1      20.553  10.938   5.332  0.00  0.00    -0.019 C 
HETATM   53  C   UNK N   1      19.468  11.895   4.848  0.00  0.00     0.010 C 
BRANCH  52  54
HETATM   54  C   UNK N   1      21.310  10.317   4.170  0.00  0.00     0.004 C 
BRANCH  54  55
HETATM   55  C   UNK N   1      21.031   8.830   4.054  0.00  0.00     0.001 C 
BRANCH  55  56
HETATM   56  C   UNK N   1      22.250   8.126   3.495  0.00  0.00     0.004 C 
BRANCH  56  57
HETATM   57  C   UNK N   1      23.522   8.747   4.046  0.00  0.00    -0.023 C 
HETATM   58  C   UNK N   1      23.942   7.994   5.289  0.00  0.00     0.009 C 
HETATM   59  C   UNK N   1      24.643   8.688   3.024  0.00  0.00     0.009 C 
ENDBRANCH  56  57
ENDBRANCH  55  56
ENDBRANCH  54  55
ENDBRANCH  52  54
ENDBRANCH  51  52
ENDBRANCH  50  51
ENDBRANCH  49  50
ENDBRANCH  47  49
ENDBRANCH  46  47
ENDBRANCH  45  46
ENDBRANCH  44  45
ENDBRANCH  42  44
ENDBRANCH  40  41
ENDBRANCH  39  40
ENDBRANCH  37  39
ENDBRANCH  36  37
ENDBRANCH  35  36
ENDBRANCH  11  35
BRANCH  28  60
HETATM   60  C   UNK N   1      29.719  17.631   4.374  0.00  0.00     0.004 C 
HETATM   61  C   UNK N   1      30.446  17.287   5.437  0.00  0.00     0.012 C 
ENDBRANCH  28  60
BRANCH   6  62
HETATM   62  C   UNK N   1      19.891  14.861   1.069  0.00  0.00     0.274 C 
HETATM   63  O   UNK N   1      18.724  14.731   0.715  0.00  0.00    -0.264 OA
BRANCH  62  64
HETATM   64  O   UNK N   1      20.648  15.846   0.538  0.00  0.00    -0.326 OA
HETATM   65  C   UNK N   1      20.129  17.079   0.225  0.00  0.00     0.213 C 
ENDBRANCH  62  64
ENDBRANCH   6  62
BRANCH  25  66
HETATM   66  C   UNK N   1      28.564  10.329   1.347  0.00  0.00     0.037 C 
HETATM   67  C   UNK N   1      29.072  10.470  -0.075  0.00  0.00     0.010 C 
ENDBRANCH  25  66
TORSDOF 23
ENDMDL
MODEL 4
REMARK VINA RESULT:      -6.6      3.795      8.331
REMARK  23 active torsions:
REMARK  status: ('A' for Active; 'I' for Inactive)
REMARK    1  A    between atoms: C_2  and  C_5 
REMARK    2  A    between atoms: C_6  and  C_14 
REMARK    3  A    between atoms: C_11  and  C_20 
REMARK    4  A    between atoms: C_14  and  O_22 
REMARK    5  A    between atoms: C_20  and  C_28 
REMARK    6  A    between atoms: C_28  and  C_37 
REMARK    7  A    between atoms: C_31  and  C_39 
REMARK    8  A    between atoms: C_34  and  C_41 
REMARK    9  A    between atoms: C_37  and  O_43 
REMARK   10  A    between atoms: O_43  and  C_48 
REMARK   11  A    between atoms: C_48  and  C_49 
REMARK   12  A    between atoms: C_50  and  C_51 
REMARK   13  A    between atoms: C_51  and  C_53 
REMARK   14  A    between atoms: C_53  and  C_54 
REMARK   15  A    between atoms: C_54  and  C_55 
REMARK   16  A    between atoms: C_55  and  C_56 
REMARK   17  A    between atoms: C_56  and  C_58 
REMARK   18  A    between atoms: C_58  and  C_59 
REMARK   19  A    between atoms: C_59  and  C_60 
REMARK   20  A    between atoms: C_60  and  C_61 
REMARK   21  A    between atoms: C_61  and  C_63 
REMARK   22  A    between atoms: C_63  and  C_64 
REMARK   23  A    between atoms: C_64  and  C_65 
ROOT
HETATM    1  C   UNK N   1      22.180  13.400   2.222  0.00  0.00     0.081 A 
HETATM    2  C   UNK N   1      22.233  14.546   2.904  0.00  0.00     0.016 A 
HETATM    3  N   UNK N   1      23.098  12.502   1.823  0.00  0.00    -0.247 N 
HETATM    4  C   UNK N   1      20.959  13.060   1.842  0.00  0.00     0.049 A 
HETATM    5  C   UNK N   1      23.504  15.211   3.314  0.00  0.00     0.024 A 
HETATM    6  C   UNK N   1      20.803  15.114   3.072  0.00  0.00     0.197 A 
HETATM    7  C   UNK N   1      22.402  11.607   1.061  0.00  0.00     0.066 A 
HETATM    8 Mg   UNK N   1      25.024  12.379   2.668  0.00  0.00     0.000 Mg
HETATM    9  C   UNK N   1      21.047  11.936   1.070  0.00  0.00    -0.017 A 
HETATM   10  C   UNK N   1      20.034  13.989   2.399  0.00  0.00     0.180 A 
HETATM   11  C   UNK N   1      23.608  16.577   3.941  0.00  0.00     0.046 A 
HETATM   12  N   UNK N   1      24.636  14.724   3.002  0.00  0.00    -0.362 N 
ATOM     13  HN  UNK N   1      24.770  13.821   2.546  1.00  0.00     0.165 HD
HETATM   14  C   UNK N   1      22.905  10.533   0.439  0.00  0.00     0.062 C 
HETATM   15  N   UNK N   1      26.942  12.993   2.124  0.00  0.00    -0.248 N 
HETATM   16  C   UNK N   1      19.918  11.212   0.419  0.00  0.00     0.052 C 
HETATM   17  O   UNK N   1      18.824  13.887   2.332  0.00  0.00    -0.291 OA
HETATM   18  C   UNK N   1      25.151  16.835   4.003  0.00  0.00     0.041 A 
HETATM   19  C   UNK N   1      25.666  15.583   3.363  0.00  0.00     0.016 A 
HETATM   20  C   UNK N   1      24.333  10.186   0.404  0.00  0.00     0.041 A 
HETATM   21  C   UNK N   1      27.885  12.186   1.568  0.00  0.00     0.070 A 
HETATM   22  C   UNK N   1      27.560  14.162   2.435  0.00  0.00     0.066 A 
HETATM   23  C   UNK N   1      25.713  16.975   5.414  0.00  0.00     0.017 C 
HETATM   24  C   UNK N   1      26.963  15.353   3.100  0.00  0.00     0.057 C 
HETATM   25  C   UNK N   1      24.887   8.884   0.003  0.00  0.00    -0.024 A 
HETATM   26  N   UNK N   1      25.262  10.973   0.790  0.00  0.00    -0.355 N 
ATOM     27  HN  UNK N   1      25.139  11.940   1.090  1.00  0.00     0.166 HD
HETATM   28  C   UNK N   1      29.113  12.834   1.560  0.00  0.00     0.000 A 
HETATM   29  C   UNK N   1      27.667  10.801   1.065  0.00  0.00     0.062 C 
HETATM   30  C   UNK N   1      28.898  14.086   2.094  0.00  0.00    -0.021 A 
HETATM   31  C   UNK N   1      26.204   8.938   0.217  0.00  0.00    -0.027 A 
HETATM   32  C   UNK N   1      26.477  10.281   0.730  0.00  0.00     0.041 A 
HETATM   33  C   UNK N   1      29.930  15.142   2.313  0.00  0.00     0.052 C 
HETATM   34  C   UNK N   1      27.191   7.845  -0.030  0.00  0.00     0.051 C 
ENDROOT
BRANCH  11  35
HETATM   35  C   UNK N   1      22.863  16.697   5.266  0.00  0.00     0.021 C 
BRANCH  35  36
HETATM   36  C   UNK N   1      22.180  18.055   5.322  0.00  0.00     0.112 C 
BRANCH  36  37
HETATM   37  C   UNK N   1      21.070  18.005   6.316  0.00  0.00     0.259 C 
HETATM   38  O   UNK N   1      21.000  18.861   7.188  0.00  0.00    -0.265 OA
BRANCH  37  39
HETATM   39  O   UNK N   1      20.174  16.985   6.269  0.00  0.00    -0.318 OA
BRANCH  39  40
HETATM   40  C   UNK N   1      20.010  16.078   7.293  0.00  0.00     0.206 C 
BRANCH  40  41
HETATM   41  C   UNK N   1      20.326  14.691   6.810  0.00  0.00     0.002 C 
HETATM   42  C   UNK N   1      20.796  13.737   7.614  0.00  0.00    -0.086 C 
HETATM   43  C   UNK N   1      21.046  13.991   9.068  0.00  0.00     0.043 C 
BRANCH  42  44
HETATM   44  C   UNK N   1      21.150  12.413   7.026  0.00  0.00     0.033 C 
BRANCH  44  45
HETATM   45  C   UNK N   1      20.801  12.363   5.554  0.00  0.00     0.005 C 
BRANCH  45  46
HETATM   46  C   UNK N   1      19.561  11.527   5.311  0.00  0.00     0.004 C 
BRANCH  46  47
HETATM   47  C   UNK N   1      19.598  10.627   4.075  0.00  0.00    -0.019 C 
HETATM   48  C   UNK N   1      18.218  10.346   3.494  0.00  0.00     0.010 C 
BRANCH  47  49
HETATM   49  C   UNK N   1      20.306   9.311   4.421  0.00  0.00     0.004 C 
BRANCH  49  50
HETATM   50  C   UNK N   1      21.175   8.756   3.283  0.00  0.00     0.001 C 
BRANCH  50  51
HETATM   51  C   UNK N   1      22.655   8.741   3.667  0.00  0.00     0.004 C 
BRANCH  51  52
HETATM   52  C   UNK N   1      22.981   9.425   5.008  0.00  0.00    -0.019 C 
HETATM   53  C   UNK N   1      23.518   8.515   6.110  0.00  0.00     0.010 C 
BRANCH  52  54
HETATM   54  C   UNK N   1      23.858  10.651   4.819  0.00  0.00     0.004 C 
BRANCH  54  55
HETATM   55  C   UNK N   1      24.441  11.128   6.137  0.00  0.00     0.001 C 
BRANCH  55  56
HETATM   56  C   UNK N   1      24.827  12.588   6.023  0.00  0.00     0.004 C 
BRANCH  56  57
HETATM   57  C   UNK N   1      25.039  13.191   7.402  0.00  0.00    -0.023 C 
HETATM   58  C   UNK N   1      24.383  14.553   7.451  0.00  0.00     0.009 C 
HETATM   59  C   UNK N   1      24.436  12.308   8.480  0.00  0.00     0.009 C 
ENDBRANCH  56  57
ENDBRANCH  55  56
ENDBRANCH  54  55
ENDBRANCH  52  54
ENDBRANCH  51  52
ENDBRANCH  50  51
ENDBRANCH  49  50
ENDBRANCH  47  49
ENDBRANCH  46  47
ENDBRANCH  45  46
ENDBRANCH  44  45
ENDBRANCH  42  44
ENDBRANCH  40  41
ENDBRANCH  39  40
ENDBRANCH  37  39
ENDBRANCH  36  37
ENDBRANCH  35  36
ENDBRANCH  11  35
BRANCH  28  60
HETATM   60  C   UNK N   1      30.430  12.323   1.121  0.00  0.00     0.004 C 
HETATM   61  C   UNK N   1      31.243  11.639   1.925  0.00  0.00     0.012 C 
ENDBRANCH  28  60
BRANCH   6  62
HETATM   62  C   UNK N   1      20.567  16.391   2.289  0.00  0.00     0.274 C 
HETATM   63  O   UNK N   1      20.144  17.392   2.858  0.00  0.00    -0.264 OA
BRANCH  62  64
HETATM   64  O   UNK N   1      20.821  16.430   0.963  0.00  0.00    -0.326 OA
HETATM   65  C   UNK N   1      19.936  16.977   0.064  0.00  0.00     0.213 C 
ENDBRANCH  62  64
ENDBRANCH   6  62
BRANCH  25  66
HETATM   66  C   UNK N   1      24.117   7.721  -0.547  0.00  0.00     0.037 C 
HETATM   67  C   UNK N   1      23.388   6.987   0.562  0.00  0.00     0.010 C 
ENDBRANCH  25  66
TORSDOF 23
ENDMDL
MODEL 5
REMARK VINA RESULT:      -6.5      6.098     11.935
REMARK  23 active torsions:
REMARK  status: ('A' for Active; 'I' for Inactive)
REMARK    1  A    between atoms: C_2  and  C_5 
REMARK    2  A    between atoms: C_6  and  C_14 
REMARK    3  A    between atoms: C_11  and  C_20 
REMARK    4  A    between atoms: C_14  and  O_22 
REMARK    5  A    between atoms: C_20  and  C_28 
REMARK    6  A    between atoms: C_28  and  C_37 
REMARK    7  A    between atoms: C_31  and  C_39 
REMARK    8  A    between atoms: C_34  and  C_41 
REMARK    9  A    between atoms: C_37  and  O_43 
REMARK   10  A    between atoms: O_43  and  C_48 
REMARK   11  A    between atoms: C_48  and  C_49 
REMARK   12  A    between atoms: C_50  and  C_51 
REMARK   13  A    between atoms: C_51  and  C_53 
REMARK   14  A    between atoms: C_53  and  C_54 
REMARK   15  A    between atoms: C_54  and  C_55 
REMARK   16  A    between atoms: C_55  and  C_56 
REMARK   17  A    between atoms: C_56  and  C_58 
REMARK   18  A    between atoms: C_58  and  C_59 
REMARK   19  A    between atoms: C_59  and  C_60 
REMARK   20  A    between atoms: C_60  and  C_61 
REMARK   21  A    between atoms: C_61  and  C_63 
REMARK   22  A    between atoms: C_63  and  C_64 
REMARK   23  A    between atoms: C_64  and  C_65 
ROOT
HETATM    1  C   UNK N   1      30.187  16.496   7.037  0.00  0.00     0.081 A 
HETATM    2  C   UNK N   1      31.297  15.968   7.556  0.00  0.00     0.016 A 
HETATM    3  N   UNK N   1      29.329  16.119   6.072  0.00  0.00    -0.247 N 
HETATM    4  C   UNK N   1      29.841  17.651   7.582  0.00  0.00     0.049 A 
HETATM    5  C   UNK N   1      31.967  14.749   7.016  0.00  0.00     0.024 A 
HETATM    6  C   UNK N   1      31.826  16.881   8.687  0.00  0.00     0.197 A 
HETATM    7  C   UNK N   1      28.461  17.166   5.951  0.00  0.00     0.066 A 
HETATM    8 Mg   UNK N   1      29.205  14.141   5.359  0.00  0.00     0.000 Mg
HETATM    9  C   UNK N   1      28.760  18.139   6.903  0.00  0.00    -0.017 A 
HETATM   10  C   UNK N   1      30.721  17.925   8.668  0.00  0.00     0.180 A 
HETATM   11  C   UNK N   1      33.302  14.215   7.470  0.00  0.00     0.046 A 
HETATM   12  N   UNK N   1      31.520  14.149   5.988  0.00  0.00    -0.362 N 
ATOM     13  HN  UNK N   1      30.645  14.381   5.518  1.00  0.00     0.165 HD
HETATM   14  C   UNK N   1      27.430  17.248   5.098  0.00  0.00     0.062 C 
HETATM   15  N   UNK N   1      29.885  13.107   3.680  0.00  0.00    -0.248 N 
HETATM   16  C   UNK N   1      28.047  19.421   7.168  0.00  0.00     0.052 C 
HETATM   17  O   UNK N   1      30.597  18.853   9.445  0.00  0.00    -0.291 OA
HETATM   18  C   UNK N   1      33.588  13.046   6.470  0.00  0.00     0.041 A 
HETATM   19  C   UNK N   1      32.382  13.135   5.588  0.00  0.00     0.016 A 
HETATM   20  C   UNK N   1      27.115  16.240   4.077  0.00  0.00     0.041 A 
HETATM   21  C   UNK N   1      29.128  12.818   2.588  0.00  0.00     0.070 A 
HETATM   22  C   UNK N   1      31.049  12.421   3.541  0.00  0.00     0.066 A 
HETATM   23  C   UNK N   1      33.668  11.667   7.115  0.00  0.00     0.017 C 
HETATM   24  C   UNK N   1      32.192  12.376   4.496  0.00  0.00     0.057 C 
HETATM   25  C   UNK N   1      25.848  16.138   3.338  0.00  0.00    -0.024 A 
HETATM   26  N   UNK N   1      27.901  15.284   3.760  0.00  0.00    -0.355 N 
ATOM     27  HN  UNK N   1      28.849  15.148   4.112  1.00  0.00     0.166 HD
HETATM   28  C   UNK N   1      29.801  11.917   1.773  0.00  0.00     0.000 A 
HETATM   29  C   UNK N   1      27.766  13.350   2.301  0.00  0.00     0.062 C 
HETATM   30  C   UNK N   1      31.019  11.683   2.372  0.00  0.00    -0.021 A 
HETATM   31  C   UNK N   1      25.918  15.032   2.593  0.00  0.00    -0.027 A 
HETATM   32  C   UNK N   1      27.239  14.455   2.847  0.00  0.00     0.041 A 
HETATM   33  C   UNK N   1      32.084  10.762   1.878  0.00  0.00     0.052 C 
HETATM   34  C   UNK N   1      24.860  14.505   1.681  0.00  0.00     0.051 C 
ENDROOT
BRANCH  11  35
HETATM   35  C   UNK N   1      33.339  13.847   8.948  0.00  0.00     0.021 C 
BRANCH  35  36
HETATM   36  C   UNK N   1      34.773  13.947   9.442  0.00  0.00     0.112 C 
BRANCH  36  37
HETATM   37  C   UNK N   1      34.776  14.463  10.842  0.00  0.00     0.259 C 
HETATM   38  O   UNK N   1      33.751  14.938  11.313  0.00  0.00    -0.265 OA
BRANCH  37  39
HETATM   39  O   UNK N   1      35.928  14.440  11.561  0.00  0.00    -0.318 OA
BRANCH  39  40
HETATM   40  C   UNK N   1      36.470  13.284  12.080  0.00  0.00     0.206 C 
BRANCH  40  41
HETATM   41  C   UNK N   1      36.706  13.442  13.555  0.00  0.00     0.002 C 
HETATM   42  C   UNK N   1      35.841  13.010  14.474  0.00  0.00    -0.086 C 
HETATM   43  C   UNK N   1      34.562  12.335  14.088  0.00  0.00     0.043 C 
BRANCH  42  44
HETATM   44  C   UNK N   1      36.127  13.279  15.912  0.00  0.00     0.033 C 
BRANCH  44  45
HETATM   45  C   UNK N   1      34.916  12.980  16.769  0.00  0.00     0.005 C 
BRANCH  45  46
HETATM   46  C   UNK N   1      35.313  12.705  18.205  0.00  0.00     0.004 C 
BRANCH  46  47
HETATM   47  C   UNK N   1      35.197  11.249  18.661  0.00  0.00    -0.019 C 
HETATM   48  C   UNK N   1      35.010  11.103  20.165  0.00  0.00     0.010 C 
BRANCH  47  49
HETATM   49  C   UNK N   1      36.436  10.469  18.201  0.00  0.00     0.004 C 
BRANCH  49  50
HETATM   50  C   UNK N   1      36.113   9.105  17.574  0.00  0.00     0.001 C 
BRANCH  50  51
HETATM   51  C   UNK N   1      35.393   9.264  16.234  0.00  0.00     0.004 C 
BRANCH  51  52
HETATM   52  C   UNK N   1      36.322   9.470  15.022  0.00  0.00    -0.019 C 
HETATM   53  C   UNK N   1      37.771   9.028  15.208  0.00  0.00     0.010 C 
BRANCH  52  54
HETATM   54  C   UNK N   1      35.723   8.900  13.747  0.00  0.00     0.004 C 
BRANCH  54  55
HETATM   55  C   UNK N   1      36.761   8.790  12.645  0.00  0.00     0.001 C 
BRANCH  55  56
HETATM   56  C   UNK N   1      36.112   9.072  11.306  0.00  0.00     0.004 C 
BRANCH  56  57
HETATM   57  C   UNK N   1      34.609   9.229  11.466  0.00  0.00    -0.023 C 
HETATM   58  C   UNK N   1      34.183  10.549  10.864  0.00  0.00     0.009 C 
HETATM   59  C   UNK N   1      33.867   8.101  10.771  0.00  0.00     0.009 C 
ENDBRANCH  56  57
ENDBRANCH  55  56
ENDBRANCH  54  55
ENDBRANCH  52  54
ENDBRANCH  51  52
ENDBRANCH  50  51
ENDBRANCH  49  50
ENDBRANCH  47  49
ENDBRANCH  46  47
ENDBRANCH  45  46
ENDBRANCH  44  45
ENDBRANCH  42  44
ENDBRANCH  40  41
ENDBRANCH  39  40
ENDBRANCH  37  39
ENDBRANCH  36  37
ENDBRANCH  35  36
ENDBRANCH  11  35
BRANCH  28  60
HETATM   60  C   UNK N   1      29.341  11.271   0.525  0.00  0.00     0.004 C 
HETATM   61  C   UNK N   1      29.689  11.708  -0.684  0.00  0.00     0.012 C 
ENDBRANCH  28  60
BRANCH   6  62
HETATM   62  C   UNK N   1      33.136  17.565   8.346  0.00  0.00     0.274 C 
HETATM   63  O   UNK N   1      34.066  17.547   9.146  0.00  0.00    -0.264 OA
BRANCH  62  64
HETATM   64  O   UNK N   1      33.283  18.196   7.161  0.00  0.00    -0.326 OA
HETATM   65  C   UNK N   1      33.817  17.570   6.060  0.00  0.00     0.213 C 
ENDBRANCH  62  64
ENDBRANCH   6  62
BRANCH  25  66
HETATM   66  C   UNK N   1      24.698  17.097   3.408  0.00  0.00     0.037 C 
HETATM   67  C   UNK N   1      23.742  16.712   4.521  0.00  0.00     0.010 C 
ENDBRANCH  25  66
TORSDOF 23
ENDMDL
MODEL 6
REMARK VINA RESULT:      -6.5      3.872      8.552
REMARK  23 active torsions:
REMARK  status: ('A' for Active; 'I' for Inactive)
REMARK    1  A    between atoms: C_2  and  C_5 
REMARK    2  A    between atoms: C_6  and  C_14 
REMARK    3  A    between atoms: C_11  and  C_20 
REMARK    4  A    between atoms: C_14  and  O_22 
REMARK    5  A    between atoms: C_20  and  C_28 
REMARK    6  A    between atoms: C_28  and  C_37 
REMARK    7  A    between atoms: C_31  and  C_39 
REMARK    8  A    between atoms: C_34  and  C_41 
REMARK    9  A    between atoms: C_37  and  O_43 
REMARK   10  A    between atoms: O_43  and  C_48 
REMARK   11  A    between atoms: C_48  and  C_49 
REMARK   12  A    between atoms: C_50  and  C_51 
REMARK   13  A    between atoms: C_51  and  C_53 
REMARK   14  A    between atoms: C_53  and  C_54 
REMARK   15  A    between atoms: C_54  and  C_55 
REMARK   16  A    between atoms: C_55  and  C_56 
REMARK   17  A    between atoms: C_56  and  C_58 
REMARK   18  A    between atoms: C_58  and  C_59 
REMARK   19  A    between atoms: C_59  and  C_60 
REMARK   20  A    between atoms: C_60  and  C_61 
REMARK   21  A    between atoms: C_61  and  C_63 
REMARK   22  A    between atoms: C_63  and  C_64 
REMARK   23  A    between atoms: C_64  and  C_65 
ROOT
HETATM    1  C   UNK N   1      21.876  13.372   2.118  0.00  0.00     0.081 A 
HETATM    2  C   UNK N   1      21.843  14.540   2.763  0.00  0.00     0.016 A 
HETATM    3  N   UNK N   1      22.851  12.504   1.797  0.00  0.00    -0.247 N 
HETATM    4  C   UNK N   1      20.691  12.964   1.691  0.00  0.00     0.049 A 
HETATM    5  C   UNK N   1      23.061  15.275   3.212  0.00  0.00     0.024 A 
HETATM    6  C   UNK N   1      20.383  15.047   2.841  0.00  0.00     0.197 A 
HETATM    7  C   UNK N   1      22.234  11.555   1.032  0.00  0.00     0.066 A 
HETATM    8 Mg   UNK N   1      24.735  12.497   2.739  0.00  0.00     0.000 Mg
HETATM    9  C   UNK N   1      20.868  11.821   0.964  0.00  0.00    -0.017 A 
HETATM   10  C   UNK N   1      19.699  13.867   2.169  0.00  0.00     0.180 A 
HETATM   11  C   UNK N   1      23.073  16.664   3.797  0.00  0.00     0.046 A 
HETATM   12  N   UNK N   1      24.227  14.830   2.973  0.00  0.00    -0.362 N 
ATOM     13  HN  UNK N   1      24.425  13.920   2.556  1.00  0.00     0.165 HD
HETATM   14  C   UNK N   1      22.816  10.485   0.473  0.00  0.00     0.062 C 
HETATM   15  N   UNK N   1      26.650  13.179   2.269  0.00  0.00    -0.248 N 
HETATM   16  C   UNK N   1      19.806  11.026   0.282  0.00  0.00     0.052 C 
HETATM   17  O   UNK N   1      18.499  13.708   2.047  0.00  0.00    -0.291 OA
HETATM   18  C   UNK N   1      24.597  16.994   3.925  0.00  0.00     0.041 A 
HETATM   19  C   UNK N   1      25.199  15.747   3.355  0.00  0.00     0.016 A 
HETATM   20  C   UNK N   1      24.257  10.203   0.521  0.00  0.00     0.041 A 
HETATM   21  C   UNK N   1      27.654  12.400   1.788  0.00  0.00     0.070 A 
HETATM   22  C   UNK N   1      27.199  14.385   2.570  0.00  0.00     0.066 A 
HETATM   23  C   UNK N   1      25.081  17.204   5.356  0.00  0.00     0.017 C 
HETATM   24  C   UNK N   1      26.517  15.568   3.164  0.00  0.00     0.057 C 
HETATM   25  C   UNK N   1      24.888   8.916   0.191  0.00  0.00    -0.024 A 
HETATM   26  N   UNK N   1      25.130  11.044   0.924  0.00  0.00    -0.355 N 
ATOM     27  HN  UNK N   1      24.950  12.013   1.185  1.00  0.00     0.166 HD
HETATM   28  C   UNK N   1      28.851  13.103   1.819  0.00  0.00     0.000 A 
HETATM   29  C   UNK N   1      27.523  10.990   1.323  0.00  0.00     0.062 C 
HETATM   30  C   UNK N   1      28.555  14.360   2.298  0.00  0.00    -0.021 A 
HETATM   31  C   UNK N   1      26.189   9.037   0.468  0.00  0.00    -0.027 A 
HETATM   32  C   UNK N   1      26.376  10.407   0.948  0.00  0.00     0.041 A 
HETATM   33  C   UNK N   1      29.527  15.468   2.531  0.00  0.00     0.052 C 
HETATM   34  C   UNK N   1      27.234   7.982   0.308  0.00  0.00     0.051 C 
ENDROOT
BRANCH  11  35
HETATM   35  C   UNK N   1      22.257  16.792   5.077  0.00  0.00     0.021 C 
BRANCH  35  36
HETATM   36  C   UNK N   1      22.379  15.498   5.867  0.00  0.00     0.112 C 
BRANCH  36  37
HETATM   37  C   UNK N   1      21.199  15.361   6.769  0.00  0.00     0.259 C 
HETATM   38  O   UNK N   1      20.143  14.933   6.322  0.00  0.00    -0.265 OA
BRANCH  37  39
HETATM   39  O   UNK N   1      21.299  15.753   8.065  0.00  0.00    -0.318 OA
BRANCH  39  40
HETATM   40  C   UNK N   1      20.945  14.948   9.127  0.00  0.00     0.206 C 
BRANCH  40  41
HETATM   41  C   UNK N   1      22.061  13.996   9.447  0.00  0.00     0.002 C 
HETATM   42  C   UNK N   1      21.903  12.942  10.249  0.00  0.00    -0.086 C 
HETATM   43  C   UNK N   1      20.585  12.639  10.892  0.00  0.00     0.043 C 
BRANCH  42  44
HETATM   44  C   UNK N   1      23.089  12.097  10.567  0.00  0.00     0.033 C 
BRANCH  44  45
HETATM   45  C   UNK N   1      24.028  12.016   9.383  0.00  0.00     0.005 C 
BRANCH  45  46
HETATM   46  C   UNK N   1      23.628  10.901   8.438  0.00  0.00     0.004 C 
BRANCH  46  47
HETATM   47  C   UNK N   1      23.370  11.317   6.989  0.00  0.00    -0.019 C 
HETATM   48  C   UNK N   1      24.227  12.493   6.539  0.00  0.00     0.010 C 
BRANCH  47  49
HETATM   49  C   UNK N   1      21.882  11.645   6.807  0.00  0.00     0.004 C 
BRANCH  49  50
HETATM   50  C   UNK N   1      21.451  11.780   5.340  0.00  0.00     0.001 C 
BRANCH  50  51
HETATM   51  C   UNK N   1      19.936  11.637   5.187  0.00  0.00     0.004 C 
BRANCH  51  52
HETATM   52  C   UNK N   1      19.478  10.350   4.476  0.00  0.00    -0.019 C 
HETATM   53  C   UNK N   1      18.224  10.472   3.616  0.00  0.00     0.010 C 
BRANCH  52  54
HETATM   54  C   UNK N   1      20.615   9.688   3.716  0.00  0.00     0.004 C 
BRANCH  54  55
HETATM   55  C   UNK N   1      20.685   8.199   4.003  0.00  0.00     0.001 C 
BRANCH  55  56
HETATM   56  C   UNK N   1      22.118   7.725   3.880  0.00  0.00     0.004 C 
BRANCH  56  57
HETATM   57  C   UNK N   1      23.031   8.557   4.764  0.00  0.00    -0.023 C 
HETATM   58  C   UNK N   1      23.386   7.759   5.999  0.00  0.00     0.009 C 
HETATM   59  C   UNK N   1      24.307   8.931   4.029  0.00  0.00     0.009 C 
ENDBRANCH  56  57
ENDBRANCH  55  56
ENDBRANCH  54  55
ENDBRANCH  52  54
ENDBRANCH  51  52
ENDBRANCH  50  51
ENDBRANCH  49  50
ENDBRANCH  47  49
ENDBRANCH  46  47
ENDBRANCH  45  46
ENDBRANCH  44  45
ENDBRANCH  42  44
ENDBRANCH  40  41
ENDBRANCH  39  40
ENDBRANCH  37  39
ENDBRANCH  36  37
ENDBRANCH  35  36
ENDBRANCH  11  35
BRANCH  28  60
HETATM   60  C   UNK N   1      30.210  12.639   1.463  0.00  0.00     0.004 C 
HETATM   61  C   UNK N   1      31.017  12.035   2.334  0.00  0.00     0.012 C 
ENDBRANCH  28  60
BRANCH   6  62
HETATM   62  C   UNK N   1      20.131  16.286   2.004  0.00  0.00     0.274 C 
HETATM   63  O   UNK N   1      19.789  17.334   2.543  0.00  0.00    -0.264 OA
BRANCH  62  64
HETATM   64  O   UNK N   1      20.280  16.240   0.662  0.00  0.00    -0.326 OA
HETATM   65  C   UNK N   1      19.230  16.455  -0.199  0.00  0.00     0.213 C 
ENDBRANCH  62  64
ENDBRANCH   6  62
BRANCH  25  66
HETATM   66  C   UNK N   1      24.199   7.701  -0.355  0.00  0.00     0.037 C 
HETATM   67  C   UNK N   1      24.210   7.713  -1.871  0.00  0.00     0.010 C 
ENDBRANCH  25  66
TORSDOF 23
ENDMDL
MODEL 7
REMARK VINA RESULT:      -6.5      5.565     11.728
REMARK  23 active torsions:
REMARK  status: ('A' for Active; 'I' for Inactive)
REMARK    1  A    between atoms: C_2  and  C_5 
REMARK    2  A    between atoms: C_6  and  C_14 
REMARK    3  A    between atoms: C_11  and  C_20 
REMARK    4  A    between atoms: C_14  and  O_22 
REMARK    5  A    between atoms: C_20  and  C_28 
REMARK    6  A    between atoms: C_28  and  C_37 
REMARK    7  A    between atoms: C_31  and  C_39 
REMARK    8  A    between atoms: C_34  and  C_41 
REMARK    9  A    between atoms: C_37  and  O_43 
REMARK   10  A    between atoms: O_43  and  C_48 
REMARK   11  A    between atoms: C_48  and  C_49 
REMARK   12  A    between atoms: C_50  and  C_51 
REMARK   13  A    between atoms: C_51  and  C_53 
REMARK   14  A    between atoms: C_53  and  C_54 
REMARK   15  A    between atoms: C_54  and  C_55 
REMARK   16  A    between atoms: C_55  and  C_56 
REMARK   17  A    between atoms: C_56  and  C_58 
REMARK   18  A    between atoms: C_58  and  C_59 
REMARK   19  A    between atoms: C_59  and  C_60 
REMARK   20  A    between atoms: C_60  and  C_61 
REMARK   21  A    between atoms: C_61  and  C_63 
REMARK   22  A    between atoms: C_63  and  C_64 
REMARK   23  A    between atoms: C_64  and  C_65 
ROOT
HETATM    1  C   UNK N   1      30.246  16.440   6.889  0.00  0.00     0.081 A 
HETATM    2  C   UNK N   1      31.382  15.932   7.373  0.00  0.00     0.016 A 
HETATM    3  N   UNK N   1      29.388  16.068   5.923  0.00  0.00    -0.247 N 
HETATM    4  C   UNK N   1      29.869  17.562   7.481  0.00  0.00     0.049 A 
HETATM    5  C   UNK N   1      32.085  14.757   6.779  0.00  0.00     0.024 A 
HETATM    6  C   UNK N   1      31.896  16.822   8.530  0.00  0.00     0.197 A 
HETATM    7  C   UNK N   1      28.482  17.088   5.852  0.00  0.00     0.066 A 
HETATM    8 Mg   UNK N   1      29.320  14.114   5.139  0.00  0.00     0.000 Mg
HETATM    9  C   UNK N   1      28.761  18.035   6.835  0.00  0.00    -0.017 A 
HETATM   10  C   UNK N   1      30.755  17.826   8.564  0.00  0.00     0.180 A 
HETATM   11  C   UNK N   1      33.444  14.255   7.195  0.00  0.00     0.046 A 
HETATM   12  N   UNK N   1      31.644  14.180   5.736  0.00  0.00    -0.362 N 
ATOM     13  HN  UNK N   1      30.754  14.398   5.288  1.00  0.00     0.165 HD
HETATM   14  C   UNK N   1      27.437  17.165   5.018  0.00  0.00     0.062 C 
HETATM   15  N   UNK N   1      30.011  13.166   3.414  0.00  0.00    -0.248 N 
HETATM   16  C   UNK N   1      28.009  19.282   7.156  0.00  0.00     0.052 C 
HETATM   17  O   UNK N   1      30.611  18.720   9.376  0.00  0.00    -0.291 OA
HETATM   18  C   UNK N   1      33.756  13.134   6.149  0.00  0.00     0.041 A 
HETATM   19  C   UNK N   1      32.533  13.212   5.288  0.00  0.00     0.016 A 
HETATM   20  C   UNK N   1      27.141  16.183   3.964  0.00  0.00     0.041 A 
HETATM   21  C   UNK N   1      29.247  12.891   2.323  0.00  0.00     0.070 A 
HETATM   22  C   UNK N   1      31.196  12.527   3.235  0.00  0.00     0.066 A 
HETATM   23  C   UNK N   1      33.892  11.735   6.742  0.00  0.00     0.017 C 
HETATM   24  C   UNK N   1      32.354  12.487   4.171  0.00  0.00     0.057 C 
HETATM   25  C   UNK N   1      25.867  16.064   3.239  0.00  0.00    -0.024 A 
HETATM   26  N   UNK N   1      27.955  15.268   3.601  0.00  0.00    -0.355 N 
ATOM     27  HN  UNK N   1      28.911  15.153   3.935  1.00  0.00     0.166 HD
HETATM   28  C   UNK N   1      29.939  12.044   1.467  0.00  0.00     0.000 A 
HETATM   29  C   UNK N   1      27.864  13.384   2.074  0.00  0.00     0.062 C 
HETATM   30  C   UNK N   1      31.174  11.831   2.040  0.00  0.00    -0.021 A 
HETATM   31  C   UNK N   1      25.964  14.989   2.453  0.00  0.00    -0.027 A 
HETATM   32  C   UNK N   1      27.308  14.450   2.668  0.00  0.00     0.041 A 
HETATM   33  C   UNK N   1      32.262  10.966   1.497  0.00  0.00     0.052 C 
HETATM   34  C   UNK N   1      24.911  14.458   1.538  0.00  0.00     0.051 C 
ENDROOT
BRANCH  11  35
HETATM   35  C   UNK N   1      33.516  13.835   8.658  0.00  0.00     0.021 C 
BRANCH  35  36
HETATM   36  C   UNK N   1      34.811  14.361   9.256  0.00  0.00     0.112 C 
BRANCH  36  37
HETATM   37  C   UNK N   1      34.735  14.279  10.743  0.00  0.00     0.259 C 
HETATM   38  O   UNK N   1      33.869  14.904  11.340  0.00  0.00    -0.265 OA
BRANCH  37  39
HETATM   39  O   UNK N   1      35.656  13.546  11.421  0.00  0.00    -0.318 OA
BRANCH  39  40
HETATM   40  C   UNK N   1      36.735  12.941  10.812  0.00  0.00     0.206 C 
BRANCH  40  41
HETATM   41  C   UNK N   1      36.436  11.493  10.551  0.00  0.00     0.002 C 
HETATM   42  C   UNK N   1      37.347  10.641  10.081  0.00  0.00    -0.086 C 
HETATM   43  C   UNK N   1      38.745  11.081   9.775  0.00  0.00     0.043 C 
BRANCH  42  44
HETATM   44  C   UNK N   1      36.935   9.239   9.784  0.00  0.00     0.033 C 
BRANCH  44  45
HETATM   45  C   UNK N   1      36.505   8.523  11.047  0.00  0.00     0.005 C 
BRANCH  45  46
HETATM   46  C   UNK N   1      35.083   8.012  10.932  0.00  0.00     0.004 C 
BRANCH  46  47
HETATM   47  C   UNK N   1      34.037   8.762  11.759  0.00  0.00    -0.019 C 
HETATM   48  C   UNK N   1      33.267   9.801  10.956  0.00  0.00     0.010 C 
BRANCH  47  49
HETATM   49  C   UNK N   1      34.717   9.422  12.966  0.00  0.00     0.004 C 
BRANCH  49  50
HETATM   50  C   UNK N   1      34.095  10.766  13.371  0.00  0.00     0.001 C 
BRANCH  50  51
HETATM   51  C   UNK N   1      33.991  10.899  14.891  0.00  0.00     0.004 C 
BRANCH  51  52
HETATM   52  C   UNK N   1      34.583  12.198  15.467  0.00  0.00    -0.019 C 
HETATM   53  C   UNK N   1      35.007  12.147  16.932  0.00  0.00     0.010 C 
BRANCH  52  54
HETATM   54  C   UNK N   1      35.687  12.757  14.585  0.00  0.00     0.004 C 
BRANCH  54  55
HETATM   55  C   UNK N   1      37.058  12.306  15.056  0.00  0.00     0.001 C 
BRANCH  55  56
HETATM   56  C   UNK N   1      37.669  11.378  14.026  0.00  0.00     0.004 C 
BRANCH  56  57
HETATM   57  C   UNK N   1      38.324  10.187  14.705  0.00  0.00    -0.023 C 
HETATM   58  C   UNK N   1      37.356   9.595  15.705  0.00  0.00     0.009 C 
HETATM   59  C   UNK N   1      38.705   9.124  13.690  0.00  0.00     0.009 C 
ENDBRANCH  56  57
ENDBRANCH  55  56
ENDBRANCH  54  55
ENDBRANCH  52  54
ENDBRANCH  51  52
ENDBRANCH  50  51
ENDBRANCH  49  50
ENDBRANCH  47  49
ENDBRANCH  46  47
ENDBRANCH  45  46
ENDBRANCH  44  45
ENDBRANCH  42  44
ENDBRANCH  40  41
ENDBRANCH  39  40
ENDBRANCH  37  39
ENDBRANCH  36  37
ENDBRANCH  35  36
ENDBRANCH  11  35
BRANCH  28  60
HETATM   60  C   UNK N   1      29.483  11.427   0.202  0.00  0.00     0.004 C 
HETATM   61  C   UNK N   1      29.909  11.833  -0.993  0.00  0.00     0.012 C 
ENDBRANCH  28  60
BRANCH   6  62
HETATM   62  C   UNK N   1      33.176  17.562   8.196  0.00  0.00     0.274 C 
HETATM   63  O   UNK N   1      34.089  17.612   9.014  0.00  0.00    -0.264 OA
BRANCH  62  64
HETATM   64  O   UNK N   1      33.315  18.172   6.998  0.00  0.00    -0.326 OA
HETATM   65  C   UNK N   1      33.835  17.523   5.903  0.00  0.00     0.213 C 
ENDBRANCH  62  64
ENDBRANCH   6  62
BRANCH  25  66
HETATM   66  C   UNK N   1      24.686  16.980   3.360  0.00  0.00     0.037 C 
HETATM   67  C   UNK N   1      23.759  16.520   4.470  0.00  0.00     0.010 C 
ENDBRANCH  25  66
TORSDOF 23
ENDMDL
MODEL 8
REMARK VINA RESULT:      -6.5      2.133      4.079
REMARK  23 active torsions:
REMARK  status: ('A' for Active; 'I' for Inactive)
REMARK    1  A    between atoms: C_2  and  C_5 
REMARK    2  A    between atoms: C_6  and  C_14 
REMARK    3  A    between atoms: C_11  and  C_20 
REMARK    4  A    between atoms: C_14  and  O_22 
REMARK    5  A    between atoms: C_20  and  C_28 
REMARK    6  A    between atoms: C_28  and  C_37 
REMARK    7  A    between atoms: C_31  and  C_39 
REMARK    8  A    between atoms: C_34  and  C_41 
REMARK    9  A    between atoms: C_37  and  O_43 
REMARK   10  A    between atoms: O_43  and  C_48 
REMARK   11  A    between atoms: C_48  and  C_49 
REMARK   12  A    between atoms: C_50  and  C_51 
REMARK   13  A    between atoms: C_51  and  C_53 
REMARK   14  A    between atoms: C_53  and  C_54 
REMARK   15  A    between atoms: C_54  and  C_55 
REMARK   16  A    between atoms: C_55  and  C_56 
REMARK   17  A    between atoms: C_56  and  C_58 
REMARK   18  A    between atoms: C_58  and  C_59 
REMARK   19  A    between atoms: C_59  and  C_60 
REMARK   20  A    between atoms: C_60  and  C_61 
REMARK   21  A    between atoms: C_61  and  C_63 
REMARK   22  A    between atoms: C_63  and  C_64 
REMARK   23  A    between atoms: C_64  and  C_65 
ROOT
HETATM    1  C   UNK N   1      26.487  12.762   1.918  0.00  0.00     0.081 A 
HETATM    2  C   UNK N   1      25.153  12.801   1.909  0.00  0.00     0.016 A 
HETATM    3  N   UNK N   1      27.447  13.566   2.408  0.00  0.00    -0.247 N 
HETATM    4  C   UNK N   1      26.993  11.703   1.307  0.00  0.00     0.049 A 
HETATM    5  C   UNK N   1      24.353  13.960   2.404  0.00  0.00     0.024 A 
HETATM    6  C   UNK N   1      24.602  11.542   1.199  0.00  0.00     0.197 A 
HETATM    7  C   UNK N   1      28.619  13.011   1.977  0.00  0.00     0.066 A 
HETATM    8 Mg   UNK N   1      27.079  15.023   3.884  0.00  0.00     0.000 Mg
HETATM    9  C   UNK N   1      28.354  11.828   1.291  0.00  0.00    -0.017 A 
HETATM   10  C   UNK N   1      25.924  10.845   0.922  0.00  0.00     0.180 A 
HETATM   11  C   UNK N   1      22.860  14.109   2.266  0.00  0.00     0.046 A 
HETATM   12  N   UNK N   1      24.915  15.011   2.845  0.00  0.00    -0.362 N 
ATOM     13  HN  UNK N   1      25.921  15.114   2.985  1.00  0.00     0.165 HD
HETATM   14  C   UNK N   1      29.852  13.476   2.216  0.00  0.00     0.062 C 
HETATM   15  N   UNK N   1      26.816  17.092   3.917  0.00  0.00    -0.248 N 
HETATM   16  C   UNK N   1      29.329  10.871   0.692  0.00  0.00     0.052 C 
HETATM   17  O   UNK N   1      26.063   9.735   0.443  0.00  0.00    -0.291 OA
HETATM   18  C   UNK N   1      22.586  15.556   2.796  0.00  0.00     0.041 A 
HETATM   19  C   UNK N   1      23.980  16.003   3.113  0.00  0.00     0.016 A 
HETATM   20  C   UNK N   1      30.145  14.732   2.922  0.00  0.00     0.041 A 
HETATM   21  C   UNK N   1      27.780  17.990   4.250  0.00  0.00     0.070 A 
HETATM   22  C   UNK N   1      25.649  17.783   3.831  0.00  0.00     0.066 A 
HETATM   23  C   UNK N   1      21.717  15.618   4.047  0.00  0.00     0.017 C 
HETATM   24  C   UNK N   1      24.295  17.240   3.532  0.00  0.00     0.057 C 
HETATM   25  C   UNK N   1      31.455  15.123   3.463  0.00  0.00    -0.024 A 
HETATM   26  N   UNK N   1      29.259  15.608   3.203  0.00  0.00    -0.355 N 
ATOM     27  HN  UNK N   1      28.281  15.582   2.916  1.00  0.00     0.166 HD
HETATM   28  C   UNK N   1      27.215  19.249   4.411  0.00  0.00     0.000 A 
HETATM   29  C   UNK N   1      29.226  17.690   4.449  0.00  0.00     0.062 C 
HETATM   30  C   UNK N   1      25.874  19.114   4.129  0.00  0.00    -0.021 A 
HETATM   31  C   UNK N   1      31.277  16.271   4.122  0.00  0.00    -0.027 A 
HETATM   32  C   UNK N   1      29.861  16.610   3.973  0.00  0.00     0.041 A 
HETATM   33  C   UNK N   1      24.846  20.195   4.190  0.00  0.00     0.052 C 
HETATM   34  C   UNK N   1      32.322  17.047   4.854  0.00  0.00     0.051 C 
ENDROOT
BRANCH  11  35
HETATM   35  C   UNK N   1      22.072  12.995   2.945  0.00  0.00     0.021 C 
BRANCH  35  36
HETATM   36  C   UNK N   1      21.071  12.427   1.950  0.00  0.00     0.112 C 
BRANCH  36  37
HETATM   37  C   UNK N   1      19.707  12.929   2.285  0.00  0.00     0.259 C 
HETATM   38  O   UNK N   1      18.824  12.890   1.439  0.00  0.00    -0.265 OA
BRANCH  37  39
HETATM   39  O   UNK N   1      19.474  13.464   3.511  0.00  0.00    -0.318 OA
BRANCH  39  40
HETATM   40  C   UNK N   1      18.846  12.776   4.528  0.00  0.00     0.206 C 
BRANCH  40  41
HETATM   41  C   UNK N   1      19.805  11.813   5.168  0.00  0.00     0.002 C 
HETATM   42  C   UNK N   1      20.612  12.159   6.172  0.00  0.00    -0.086 C 
HETATM   43  C   UNK N   1      20.617  13.548   6.729  0.00  0.00     0.043 C 
BRANCH  42  44
HETATM   44  C   UNK N   1      21.582  11.153   6.692  0.00  0.00     0.033 C 
BRANCH  44  45
HETATM   45  C   UNK N   1      21.430   9.831   5.971  0.00  0.00     0.005 C 
BRANCH  45  46
HETATM   46  C   UNK N   1      22.774   9.172   5.743  0.00  0.00     0.004 C 
BRANCH  46  47
HETATM   47  C   UNK N   1      23.691   9.862   4.731  0.00  0.00    -0.019 C 
HETATM   48  C   UNK N   1      23.866   9.072   3.440  0.00  0.00     0.010 C 
BRANCH  47  49
HETATM   49  C   UNK N   1      25.057  10.131   5.378  0.00  0.00     0.004 C 
BRANCH  49  50
HETATM   50  C   UNK N   1      25.589  11.551   5.137  0.00  0.00     0.001 C 
BRANCH  50  51
HETATM   51  C   UNK N   1      24.609  12.608   5.649  0.00  0.00     0.004 C 
BRANCH  51  52
HETATM   52  C   UNK N   1      25.121  13.438   6.841  0.00  0.00    -0.019 C 
HETATM   53  C   UNK N   1      25.691  14.813   6.504  0.00  0.00     0.010 C 
BRANCH  52  54
HETATM   54  C   UNK N   1      24.092  13.518   7.957  0.00  0.00     0.004 C 
BRANCH  54  55
HETATM   55  C   UNK N   1      24.606  12.882   9.235  0.00  0.00     0.001 C 
BRANCH  55  56
HETATM   56  C   UNK N   1      23.565  11.926   9.780  0.00  0.00     0.004 C 
BRANCH  56  57
HETATM   57  C   UNK N   1      22.743  12.598  10.867  0.00  0.00    -0.023 C 
HETATM   58  C   UNK N   1      21.285  12.579  10.466  0.00  0.00     0.009 C 
HETATM   59  C   UNK N   1      22.904  11.879  12.195  0.00  0.00     0.009 C 
ENDBRANCH  56  57
ENDBRANCH  55  56
ENDBRANCH  54  55
ENDBRANCH  52  54
ENDBRANCH  51  52
ENDBRANCH  50  51
ENDBRANCH  49  50
ENDBRANCH  47  49
ENDBRANCH  46  47
ENDBRANCH  45  46
ENDBRANCH  44  45
ENDBRANCH  42  44
ENDBRANCH  40  41
ENDBRANCH  39  40
ENDBRANCH  37  39
ENDBRANCH  36  37
ENDBRANCH  35  36
ENDBRANCH  11  35
BRANCH  28  60
HETATM   60  C   UNK N   1      27.862  20.509   4.837  0.00  0.00     0.004 C 
HETATM   61  C   UNK N   1      27.783  20.974   6.083  0.00  0.00     0.012 C 
ENDBRANCH  28  60
BRANCH   6  62
HETATM   62  C   UNK N   1      23.932  11.843  -0.127  0.00  0.00     0.274 C 
HETATM   63  O   UNK N   1      23.887  12.995  -0.546  0.00  0.00    -0.264 OA
BRANCH  62  64
HETATM   64  O   UNK N   1      23.381  10.844  -0.851  0.00  0.00    -0.326 OA
HETATM   65  C   UNK N   1      22.577   9.886  -0.282  0.00  0.00     0.213 C 
ENDBRANCH  62  64
ENDBRANCH   6  62
BRANCH  25  66
HETATM   66  C   UNK N   1      32.744  14.375   3.301  0.00  0.00     0.037 C 
HETATM   67  C   UNK N   1      32.910  13.344   4.401  0.00  0.00     0.010 C 
ENDBRANCH  25  66
TORSDOF 23
ENDMDL
MODEL 9
REMARK VINA RESULT:      -6.5      1.124      2.707
REMARK  23 active torsions:
REMARK  status: ('A' for Active; 'I' for Inactive)
REMARK    1  A    between atoms: C_2  and  C_5 
REMARK    2  A    between atoms: C_6  and  C_14 
REMARK    3  A    between atoms: C_11  and  C_20 
REMARK    4  A    between atoms: C_14  and  O_22 
REMARK    5  A    between atoms: C_20  and  C_28 
REMARK    6  A    between atoms: C_28  and  C_37 
REMARK    7  A    between atoms: C_31  and  C_39 
REMARK    8  A    between atoms: C_34  and  C_41 
REMARK    9  A    between atoms: C_37  and  O_43 
REMARK   10  A    between atoms: O_43  and  C_48 
REMARK   11  A    between atoms: C_48  and  C_49 
REMARK   12  A    between atoms: C_50  and  C_51 
REMARK   13  A    between atoms: C_51  and  C_53 
REMARK   14  A    between atoms: C_53  and  C_54 
REMARK   15  A    between atoms: C_54  and  C_55 
REMARK   16  A    between atoms: C_55  and  C_56 
REMARK   17  A    between atoms: C_56  and  C_58 
REMARK   18  A    between atoms: C_58  and  C_59 
REMARK   19  A    between atoms: C_59  and  C_60 
REMARK   20  A    between atoms: C_60  and  C_61 
REMARK   21  A    between atoms: C_61  and  C_63 
REMARK   22  A    between atoms: C_63  and  C_64 
REMARK   23  A    between atoms: C_64  and  C_65 
ROOT
HETATM    1  C   UNK N   1      29.179  12.945   3.928  0.00  0.00     0.081 A 
HETATM    2  C   UNK N   1      28.150  12.576   3.161  0.00  0.00     0.016 A 
HETATM    3  N   UNK N   1      29.405  13.972   4.765  0.00  0.00    -0.247 N 
HETATM    4  C   UNK N   1      30.217  12.128   3.856  0.00  0.00     0.049 A 
HETATM    5  C   UNK N   1      26.926  13.405   2.960  0.00  0.00     0.024 A 
HETATM    6  C   UNK N   1      28.493  11.253   2.436  0.00  0.00     0.197 A 
HETATM    7  C   UNK N   1      30.707  13.827   5.150  0.00  0.00     0.066 A 
HETATM    8 Mg   UNK N   1      27.860  15.158   5.568  0.00  0.00     0.000 Mg
HETATM    9  C   UNK N   1      31.235  12.662   4.596  0.00  0.00    -0.017 A 
HETATM   10  C   UNK N   1      29.862  11.009   3.049  0.00  0.00     0.180 A 
HETATM   11  C   UNK N   1      25.819  13.100   1.983  0.00  0.00     0.046 A 
HETATM   12  N   UNK N   1      26.806  14.550   3.499  0.00  0.00    -0.362 N 
ATOM     13  HN  UNK N   1      27.467  14.945   4.169  1.00  0.00     0.165 HD
HETATM   14  C   UNK N   1      31.384  14.631   5.981  0.00  0.00     0.062 C 
HETATM   15  N   UNK N   1      27.058  17.043   5.174  0.00  0.00    -0.248 N 
HETATM   16  C   UNK N   1      32.596  12.084   4.785  0.00  0.00     0.052 C 
HETATM   17  O   UNK N   1      30.557  10.025   2.884  0.00  0.00    -0.291 OA
HETATM   18  C   UNK N   1      24.897  14.361   2.070  0.00  0.00     0.041 A 
HETATM   19  C   UNK N   1      25.656  15.191   3.058  0.00  0.00     0.016 A 
HETATM   20  C   UNK N   1      30.847  15.872   6.557  0.00  0.00     0.041 A 
HETATM   21  C   UNK N   1      27.352  18.172   5.874  0.00  0.00     0.070 A 
HETATM   22  C   UNK N   1      26.019  17.350   4.354  0.00  0.00     0.066 A 
HETATM   23  C   UNK N   1      23.490  14.082   2.589  0.00  0.00     0.017 C 
HETATM   24  C   UNK N   1      25.307  16.439   3.415  0.00  0.00     0.057 C 
HETATM   25  C   UNK N   1      31.428  16.612   7.688  0.00  0.00    -0.024 A 
HETATM   26  N   UNK N   1      29.759  16.419   6.170  0.00  0.00    -0.355 N 
ATOM     27  HN  UNK N   1      29.183  16.113   5.386  1.00  0.00     0.166 HD
HETATM   28  C   UNK N   1      26.472  19.187   5.520  0.00  0.00     0.000 A 
HETATM   29  C   UNK N   1      28.429  18.315   6.893  0.00  0.00     0.062 C 
HETATM   30  C   UNK N   1      25.644  18.666   4.550  0.00  0.00    -0.021 A 
HETATM   31  C   UNK N   1      30.588  17.610   7.974  0.00  0.00    -0.027 A 
HETATM   32  C   UNK N   1      29.495  17.509   7.006  0.00  0.00     0.041 A 
HETATM   33  C   UNK N   1      24.518  19.377   3.877  0.00  0.00     0.052 C 
HETATM   34  C   UNK N   1      30.748  18.623   9.058  0.00  0.00     0.051 C 
ENDROOT
BRANCH  11  35
HETATM   35  C   UNK N   1      25.137  11.761   2.235  0.00  0.00     0.021 C 
BRANCH  35  36
HETATM   36  C   UNK N   1      24.600  11.229   0.916  0.00  0.00     0.112 C 
BRANCH  36  37
HETATM   37  C   UNK N   1      23.401  10.381   1.179  0.00  0.00     0.259 C 
HETATM   38  O   UNK N   1      23.469   9.170   1.017  0.00  0.00    -0.265 OA
BRANCH  37  39
HETATM   39  O   UNK N   1      22.236  10.969   1.554  0.00  0.00    -0.318 OA
BRANCH  39  40
HETATM   40  C   UNK N   1      21.426  10.471   2.552  0.00  0.00     0.206 C 
BRANCH  40  41
HETATM   41  C   UNK N   1      21.196  11.520   3.602  0.00  0.00     0.002 C 
HETATM   42  C   UNK N   1      20.646  11.247   4.786  0.00  0.00    -0.086 C 
HETATM   43  C   UNK N   1      20.214   9.860   5.147  0.00  0.00     0.043 C 
BRANCH  42  44
HETATM   44  C   UNK N   1      20.390  12.369   5.735  0.00  0.00     0.033 C 
BRANCH  44  45
HETATM   45  C   UNK N   1      19.971  13.620   4.993  0.00  0.00     0.005 C 
BRANCH  45  46
HETATM   46  C   UNK N   1      20.154  14.855   5.850  0.00  0.00     0.004 C 
BRANCH  46  47
HETATM   47  C   UNK N   1      20.606  16.117   5.113  0.00  0.00    -0.019 C 
HETATM   48  C   UNK N   1      20.663  15.942   3.601  0.00  0.00     0.010 C 
BRANCH  47  49
HETATM   49  C   UNK N   1      21.975  16.560   5.647  0.00  0.00     0.004 C 
BRANCH  49  50
HETATM   50  C   UNK N   1      22.528  15.657   6.759  0.00  0.00     0.001 C 
BRANCH  50  51
HETATM   51  C   UNK N   1      23.914  15.117   6.402  0.00  0.00     0.004 C 
BRANCH  51  52
HETATM   52  C   UNK N   1      24.029  13.581   6.408  0.00  0.00    -0.019 C 
HETATM   53  C   UNK N   1      25.437  13.015   6.248  0.00  0.00     0.010 C 
BRANCH  52  54
HETATM   54  C   UNK N   1      23.311  12.964   7.596  0.00  0.00     0.004 C 
BRANCH  54  55
HETATM   55  C   UNK N   1      23.937  11.642   8.001  0.00  0.00     0.001 C 
BRANCH  55  56
HETATM   56  C   UNK N   1      23.147  10.499   7.397  0.00  0.00     0.004 C 
BRANCH  56  57
HETATM   57  C   UNK N   1      24.077   9.511   6.715  0.00  0.00    -0.023 C 
HETATM   58  C   UNK N   1      23.649   8.104   7.068  0.00  0.00     0.009 C 
HETATM   59  C   UNK N   1      24.040   9.679   5.206  0.00  0.00     0.009 C 
ENDBRANCH  56  57
ENDBRANCH  55  56
ENDBRANCH  54  55
ENDBRANCH  52  54
ENDBRANCH  51  52
ENDBRANCH  50  51
ENDBRANCH  49  50
ENDBRANCH  47  49
ENDBRANCH  46  47
ENDBRANCH  45  46
ENDBRANCH  44  45
ENDBRANCH  42  44
ENDBRANCH  40  41
ENDBRANCH  39  40
ENDBRANCH  37  39
ENDBRANCH  36  37
ENDBRANCH  35  36
ENDBRANCH  11  35
BRANCH  28  60
HETATM   60  C   UNK N   1      26.367  20.556   6.069  0.00  0.00     0.004 C 
HETATM   61  C   UNK N   1      27.227  21.525   5.759  0.00  0.00     0.012 C 
ENDBRANCH  28  60
BRANCH   6  62
HETATM   62  C   UNK N   1      28.661  11.413   0.938  0.00  0.00     0.274 C 
HETATM   63  O   UNK N   1      28.010  10.715   0.167  0.00  0.00    -0.264 OA
BRANCH  62  64
HETATM   64  O   UNK N   1      29.529  12.325   0.446  0.00  0.00    -0.326 OA
HETATM   65  C   UNK N   1      30.450  12.009  -0.523  0.00  0.00     0.213 C 
ENDBRANCH  62  64
ENDBRANCH   6  62
BRANCH  25  66
HETATM   66  C   UNK N   1      32.720  16.303   8.383  0.00  0.00     0.037 C 
HETATM   67  C   UNK N   1      32.526  15.213   9.421  0.00  0.00     0.010 C 
ENDBRANCH  25  66
TORSDOF 23
ENDMDL
