MODEL 1
REMARK VINA RESULT:      -4.8      0.000      0.000
REMARK  6 active torsions:
REMARK  status: ('A' for Active; 'I' for Inactive)
REMARK       I    between atoms: C_2  and  N_4 
REMARK    1  A    between atoms: N_4  and  C_6 
REMARK    2  A    between atoms: C_6  and  C_7 
REMARK    3  A    between atoms: C_7  and  O_8 
REMARK    4  A    between atoms: O_8  and  P_9 
REMARK    5  A    between atoms: P_9  and  O_10 
REMARK    6  A    between atoms: P_9  and  O_11 
ROOT
HETATM    1  C   UNK N   1      33.424  15.978   8.811  0.00  0.00     0.201 C 
ENDROOT
BRANCH   1   2
HETATM    2  C   UNK N   1      32.703  17.228   8.326  0.00  0.00     0.166 C 
BRANCH   2   3
HETATM    3  N   UNK N   1      32.354  17.143   6.926  0.00  0.00    -0.282 N 
HETATM    4  C   UNK N   1      33.209  17.570   5.953  0.00  0.00     0.225 C 
HETATM    5  C   UNK N   1      32.816  17.531   4.514  0.00  0.00     0.118 C 
HETATM    6  O   UNK N   1      34.315  18.003   6.249  0.00  0.00    -0.273 OA
HETATM    7 Br   UNK N   1      30.634  16.503   6.490  0.00  0.00     0.052 Br
ENDBRANCH   2   3
ENDBRANCH   1   2
BRANCH   1   8
HETATM    8  O   UNK N   1      34.798  16.247   8.860  0.00  0.00    -0.295 OA
BRANCH   8   9
HETATM    9  P   UNK N   1      35.255  16.095  10.534  0.00  0.00     0.390 P 
HETATM   10  O   UNK N   1      35.708  17.554  10.249  0.00  0.00    -0.632 OA
BRANCH   9  11
HETATM   11  O   UNK N   1      36.921  16.081  11.017  0.00  0.00    -0.307 OA
HETATM   12  H   UNK N   1      37.543  15.370  10.799  0.00  0.00     0.222 HD
ENDBRANCH   9  11
BRANCH   9  13
HETATM   13  O   UNK N   1      36.195  15.019   9.546  0.00  0.00    -0.307 OA
HETATM   14  H   UNK N   1      36.720  15.270   8.769  0.00  0.00     0.222 HD
ENDBRANCH   9  13
ENDBRANCH   8   9
ENDBRANCH   1   8
TORSDOF 6
ENDMDL
MODEL 2
REMARK VINA RESULT:      -4.7      6.231      7.805
REMARK  6 active torsions:
REMARK  status: ('A' for Active; 'I' for Inactive)
REMARK       I    between atoms: C_2  and  N_4 
REMARK    1  A    between atoms: N_4  and  C_6 
REMARK    2  A    between atoms: C_6  and  C_7 
REMARK    3  A    between atoms: C_7  and  O_8 
REMARK    4  A    between atoms: O_8  and  P_9 
REMARK    5  A    between atoms: P_9  and  O_10 
REMARK    6  A    between atoms: P_9  and  O_11 
ROOT
HETATM    1  C   UNK N   1      35.914  14.608  12.558  0.00  0.00     0.201 C 
ENDROOT
BRANCH   1   2
HETATM    2  C   UNK N   1      36.130  13.343  13.378  0.00  0.00     0.166 C 
BRANCH   2   3
HETATM    3  N   UNK N   1      35.946  13.577  14.792  0.00  0.00    -0.282 N 
HETATM    4  C   UNK N   1      34.925  12.991  15.482  0.00  0.00     0.225 C 
HETATM    5  C   UNK N   1      34.708  13.285  16.930  0.00  0.00     0.118 C 
HETATM    6  O   UNK N   1      34.161  12.219  14.918  0.00  0.00    -0.273 OA
HETATM    7 Br   UNK N   1      37.110  14.795  15.638  0.00  0.00     0.052 Br
ENDBRANCH   2   3
ENDBRANCH   1   2
BRANCH   1   8
HETATM    8  O   UNK N   1      34.584  14.633  12.121  0.00  0.00    -0.295 OA
BRANCH   8   9
HETATM    9  P   UNK N   1      34.635  15.180  10.468  0.00  0.00     0.390 P 
HETATM   10  O   UNK N   1      35.252  16.409  11.191  0.00  0.00    -0.632 OA
BRANCH   9  11
HETATM   11  O   UNK N   1      33.638  16.490   9.918  0.00  0.00    -0.307 OA
HETATM   12  H   UNK N   1      33.933  17.413   9.874  0.00  0.00     0.222 HD
ENDBRANCH   9  11
BRANCH   9  13
HETATM   13  O   UNK N   1      32.991  14.993  10.997  0.00  0.00    -0.307 OA
HETATM   14  H   UNK N   1      32.199  15.112  10.449  0.00  0.00     0.222 HD
ENDBRANCH   9  13
ENDBRANCH   8   9
ENDBRANCH   1   8
TORSDOF 6
ENDMDL
MODEL 3
REMARK VINA RESULT:      -4.7      4.179      5.928
REMARK  6 active torsions:
REMARK  status: ('A' for Active; 'I' for Inactive)
REMARK       I    between atoms: C_2  and  N_4 
REMARK    1  A    between atoms: N_4  and  C_6 
REMARK    2  A    between atoms: C_6  and  C_7 
REMARK    3  A    between atoms: C_7  and  O_8 
REMARK    4  A    between atoms: O_8  and  P_9 
REMARK    5  A    between atoms: P_9  and  O_10 
REMARK    6  A    between atoms: P_9  and  O_11 
ROOT
HETATM    1  C   UNK N   1      34.888  16.261  10.218  0.00  0.00     0.201 C 
ENDROOT
BRANCH   1   2
HETATM    2  C   UNK N   1      35.909  15.959  11.306  0.00  0.00     0.166 C 
BRANCH   2   3
HETATM    3  N   UNK N   1      36.353  14.584  11.264  0.00  0.00    -0.282 N 
HETATM    4  C   UNK N   1      35.941  13.676  12.195  0.00  0.00     0.225 C 
HETATM    5  C   UNK N   1      36.451  12.273  12.178  0.00  0.00     0.118 C 
HETATM    6  O   UNK N   1      35.150  14.003  13.070  0.00  0.00    -0.273 OA
HETATM    7 Br   UNK N   1      37.597  14.105   9.930  0.00  0.00     0.052 Br
ENDBRANCH   2   3
ENDBRANCH   1   2
BRANCH   1   8
HETATM    8  O   UNK N   1      35.145  17.541   9.710  0.00  0.00    -0.295 OA
BRANCH   8   9
HETATM    9  P   UNK N   1      34.014  17.772   8.405  0.00  0.00     0.390 P 
HETATM   10  O   UNK N   1      34.691  16.446   7.960  0.00  0.00    -0.632 OA
BRANCH   9  11
HETATM   11  O   UNK N   1      34.553  18.137   6.797  0.00  0.00    -0.307 OA
HETATM   12  H   UNK N   1      35.374  18.612   6.595  0.00  0.00     0.222 HD
ENDBRANCH   9  11
BRANCH   9  13
HETATM   13  O   UNK N   1      35.209  19.033   8.406  0.00  0.00    -0.307 OA
HETATM   14  H   UNK N   1      35.758  19.297   9.161  0.00  0.00     0.222 HD
ENDBRANCH   9  13
ENDBRANCH   8   9
ENDBRANCH   1   8
TORSDOF 6
ENDMDL
MODEL 4
REMARK VINA RESULT:      -4.7     13.973     15.391
REMARK  6 active torsions:
REMARK  status: ('A' for Active; 'I' for Inactive)
REMARK       I    between atoms: C_2  and  N_4 
REMARK    1  A    between atoms: N_4  and  C_6 
REMARK    2  A    between atoms: C_6  and  C_7 
REMARK    3  A    between atoms: C_7  and  O_8 
REMARK    4  A    between atoms: O_8  and  P_9 
REMARK    5  A    between atoms: P_9  and  O_10 
REMARK    6  A    between atoms: P_9  and  O_11 
ROOT
HETATM    1  C   UNK N   1      28.537  24.150  -3.687  0.00  0.00     0.201 C 
ENDROOT
BRANCH   1   2
HETATM    2  C   UNK N   1      27.037  24.316  -3.484  0.00  0.00     0.166 C 
BRANCH   2   3
HETATM    3  N   UNK N   1      26.523  25.477  -4.174  0.00  0.00    -0.282 N 
HETATM    4  C   UNK N   1      25.610  25.358  -5.180  0.00  0.00     0.225 C 
HETATM    5  C   UNK N   1      25.129  26.558  -5.926  0.00  0.00     0.118 C 
HETATM    6  O   UNK N   1      25.177  24.257  -5.495  0.00  0.00    -0.273 OA
HETATM    7 Br   UNK N   1      27.225  27.161  -3.699  0.00  0.00     0.052 Br
ENDBRANCH   2   3
ENDBRANCH   1   2
BRANCH   1   8
HETATM    8  O   UNK N   1      28.998  23.159  -2.811  0.00  0.00    -0.295 OA
BRANCH   8   9
HETATM    9  P   UNK N   1      30.717  23.052  -3.073  0.00  0.00     0.390 P 
HETATM   10  O   UNK N   1      30.258  21.682  -3.646  0.00  0.00    -0.632 OA
BRANCH   9  11
HETATM   11  O   UNK N   1      31.696  21.920  -2.194  0.00  0.00    -0.307 OA
HETATM   12  H   UNK N   1      32.665  21.916  -2.210  0.00  0.00     0.222 HD
ENDBRANCH   9  11
BRANCH   9  13
HETATM   13  O   UNK N   1      30.361  23.090  -1.373  0.00  0.00    -0.307 OA
HETATM   14  H   UNK N   1      30.552  23.823  -0.767  0.00  0.00     0.222 HD
ENDBRANCH   9  13
ENDBRANCH   8   9
ENDBRANCH   1   8
TORSDOF 6
ENDMDL
MODEL 5
REMARK VINA RESULT:      -4.6      5.798      7.393
REMARK  6 active torsions:
REMARK  status: ('A' for Active; 'I' for Inactive)
REMARK       I    between atoms: C_2  and  N_4 
REMARK    1  A    between atoms: N_4  and  C_6 
REMARK    2  A    between atoms: C_6  and  C_7 
REMARK    3  A    between atoms: C_7  and  O_8 
REMARK    4  A    between atoms: O_8  and  P_9 
REMARK    5  A    between atoms: P_9  and  O_10 
REMARK    6  A    between atoms: P_9  and  O_11 
ROOT
HETATM    1  C   UNK N   1      35.992  14.531  12.575  0.00  0.00     0.201 C 
ENDROOT
BRANCH   1   2
HETATM    2  C   UNK N   1      36.050  13.761  13.887  0.00  0.00     0.166 C 
BRANCH   2   3
HETATM    3  N   UNK N   1      35.367  12.490  13.800  0.00  0.00    -0.282 N 
HETATM    4  C   UNK N   1      34.411  12.134  14.705  0.00  0.00     0.225 C 
HETATM    5  C   UNK N   1      33.753  10.796  14.641  0.00  0.00     0.118 C 
HETATM    6  O   UNK N   1      34.084  12.908  15.595  0.00  0.00    -0.273 OA
HETATM    7 Br   UNK N   1      35.907  11.297  12.443  0.00  0.00     0.052 Br
ENDBRANCH   2   3
ENDBRANCH   1   2
BRANCH   1   8
HETATM    8  O   UNK N   1      34.656  14.600  12.158  0.00  0.00    -0.295 OA
BRANCH   8   9
HETATM    9  P   UNK N   1      34.699  15.147  10.505  0.00  0.00     0.390 P 
HETATM   10  O   UNK N   1      35.368  16.353  11.219  0.00  0.00    -0.632 OA
BRANCH   9  11
HETATM   11  O   UNK N   1      33.737  16.489   9.972  0.00  0.00    -0.307 OA
HETATM   12  H   UNK N   1      33.838  16.918   9.109  0.00  0.00     0.222 HD
ENDBRANCH   9  11
BRANCH   9  13
HETATM   13  O   UNK N   1      33.058  15.013  11.060  0.00  0.00    -0.307 OA
HETATM   14  H   UNK N   1      32.770  14.988  11.986  0.00  0.00     0.222 HD
ENDBRANCH   9  13
ENDBRANCH   8   9
ENDBRANCH   1   8
TORSDOF 6
ENDMDL
MODEL 6
REMARK VINA RESULT:      -4.6      2.894      3.415
REMARK  6 active torsions:
REMARK  status: ('A' for Active; 'I' for Inactive)
REMARK       I    between atoms: C_2  and  N_4 
REMARK    1  A    between atoms: N_4  and  C_6 
REMARK    2  A    between atoms: C_6  and  C_7 
REMARK    3  A    between atoms: C_7  and  O_8 
REMARK    4  A    between atoms: O_8  and  P_9 
REMARK    5  A    between atoms: P_9  and  O_10 
REMARK    6  A    between atoms: P_9  and  O_11 
ROOT
HETATM    1  C   UNK N   1      35.969  15.647  10.638  0.00  0.00     0.201 C 
ENDROOT
BRANCH   1   2
HETATM    2  C   UNK N   1      35.325  16.995  10.345  0.00  0.00     0.166 C 
BRANCH   2   3
HETATM    3  N   UNK N   1      34.502  16.956   9.158  0.00  0.00    -0.282 N 
HETATM    4  C   UNK N   1      34.478  17.997   8.276  0.00  0.00     0.225 C 
HETATM    5  C   UNK N   1      33.581  17.971   7.083  0.00  0.00     0.118 C 
HETATM    6  O   UNK N   1      35.187  18.977   8.457  0.00  0.00    -0.273 OA
HETATM    7 Br   UNK N   1      33.391  15.453   8.911  0.00  0.00     0.052 Br
ENDBRANCH   2   3
ENDBRANCH   1   2
BRANCH   1   8
HETATM    8  O   UNK N   1      36.239  15.571  12.010  0.00  0.00    -0.295 OA
BRANCH   8   9
HETATM    9  P   UNK N   1      36.015  13.901  12.449  0.00  0.00     0.390 P 
HETATM   10  O   UNK N   1      34.540  14.332  12.217  0.00  0.00    -0.632 OA
BRANCH   9  11
HETATM   11  O   UNK N   1      35.245  13.454  13.939  0.00  0.00    -0.307 OA
HETATM   12  H   UNK N   1      35.698  13.004  14.669  0.00  0.00     0.222 HD
ENDBRANCH   9  11
BRANCH   9  13
HETATM   13  O   UNK N   1      36.653  14.802  13.790  0.00  0.00    -0.307 OA
HETATM   14  H   UNK N   1      36.489  14.620  14.729  0.00  0.00     0.222 HD
ENDBRANCH   9  13
ENDBRANCH   8   9
ENDBRANCH   1   8
TORSDOF 6
ENDMDL
MODEL 7
REMARK VINA RESULT:      -4.5     17.483     18.645
REMARK  6 active torsions:
REMARK  status: ('A' for Active; 'I' for Inactive)
REMARK       I    between atoms: C_2  and  N_4 
REMARK    1  A    between atoms: N_4  and  C_6 
REMARK    2  A    between atoms: C_6  and  C_7 
REMARK    3  A    between atoms: C_7  and  O_8 
REMARK    4  A    between atoms: O_8  and  P_9 
REMARK    5  A    between atoms: P_9  and  O_10 
REMARK    6  A    between atoms: P_9  and  O_11 
ROOT
HETATM    1  C   UNK N   1      26.305  24.160  -5.789  0.00  0.00     0.201 C 
ENDROOT
BRANCH   1   2
HETATM    2  C   UNK N   1      26.115  24.924  -4.485  0.00  0.00     0.166 C 
BRANCH   2   3
HETATM    3  N   UNK N   1      26.099  26.354  -4.694  0.00  0.00    -0.282 N 
HETATM    4  C   UNK N   1      26.048  27.224  -3.645  0.00  0.00     0.225 C 
HETATM    5  C   UNK N   1      25.973  28.698  -3.872  0.00  0.00     0.118 C 
HETATM    6  O   UNK N   1      26.052  26.806  -2.494  0.00  0.00    -0.273 OA
HETATM    7 Br   UNK N   1      26.059  26.979  -6.472  0.00  0.00     0.052 Br
ENDBRANCH   2   3
ENDBRANCH   1   2
BRANCH   1   8
HETATM    8  O   UNK N   1      25.306  23.182  -5.881  0.00  0.00    -0.295 OA
BRANCH   8   9
HETATM    9  P   UNK N   1      25.543  22.402  -7.421  0.00  0.00     0.390 P 
HETATM   10  O   UNK N   1      25.082  23.811  -7.886  0.00  0.00    -0.632 OA
BRANCH   9  11
HETATM   11  O   UNK N   1      24.206  22.043  -8.467  0.00  0.00    -0.307 OA
HETATM   12  H   UNK N   1      24.003  21.156  -8.802  0.00  0.00     0.222 HD
ENDBRANCH   9  11
BRANCH   9  13
HETATM   13  O   UNK N   1      24.240  21.651  -6.552  0.00  0.00    -0.307 OA
HETATM   14  H   UNK N   1      23.377  22.051  -6.361  0.00  0.00     0.222 HD
ENDBRANCH   9  13
ENDBRANCH   8   9
ENDBRANCH   1   8
TORSDOF 6
ENDMDL
MODEL 8
REMARK VINA RESULT:      -4.4     13.400     14.850
REMARK  6 active torsions:
REMARK  status: ('A' for Active; 'I' for Inactive)
REMARK       I    between atoms: C_2  and  N_4 
REMARK    1  A    between atoms: N_4  and  C_6 
REMARK    2  A    between atoms: C_6  and  C_7 
REMARK    3  A    between atoms: C_7  and  O_8 
REMARK    4  A    between atoms: O_8  and  P_9 
REMARK    5  A    between atoms: P_9  and  O_10 
REMARK    6  A    between atoms: P_9  and  O_11 
ROOT
HETATM    1  C   UNK N   1      20.176  17.718   2.511  0.00  0.00     0.201 C 
ENDROOT
BRANCH   1   2
HETATM    2  C   UNK N   1      21.204  17.239   3.527  0.00  0.00     0.166 C 
BRANCH   2   3
HETATM    3  N   UNK N   1      20.613  17.001   4.824  0.00  0.00    -0.282 N 
HETATM    4  C   UNK N   1      21.167  17.511   5.961  0.00  0.00     0.225 C 
HETATM    5  C   UNK N   1      20.582  17.211   7.302  0.00  0.00     0.118 C 
HETATM    6  O   UNK N   1      22.163  18.219   5.900  0.00  0.00    -0.273 OA
HETATM    7 Br   UNK N   1      19.097  15.882   4.904  0.00  0.00     0.052 Br
ENDBRANCH   2   3
ENDBRANCH   1   2
BRANCH   1   8
HETATM    8  O   UNK N   1      19.747  18.999   2.883  0.00  0.00    -0.295 OA
BRANCH   8   9
HETATM    9  P   UNK N   1      21.145  20.030   2.742  0.00  0.00     0.390 P 
HETATM   10  O   UNK N   1      20.373  20.754   3.879  0.00  0.00    -0.632 OA
BRANCH   9  11
HETATM   11  O   UNK N   1      21.014  21.653   2.143  0.00  0.00    -0.307 OA
HETATM   12  H   UNK N   1      21.655  22.354   2.335  0.00  0.00     0.222 HD
ENDBRANCH   9  11
BRANCH   9  13
HETATM   13  O   UNK N   1      20.190  20.097   1.293  0.00  0.00    -0.307 OA
HETATM   14  H   UNK N   1      20.380  19.630   0.463  0.00  0.00     0.222 HD
ENDBRANCH   9  13
ENDBRANCH   8   9
ENDBRANCH   1   8
TORSDOF 6
ENDMDL
MODEL 9
REMARK VINA RESULT:      -4.4     12.120     12.611
REMARK  6 active torsions:
REMARK  status: ('A' for Active; 'I' for Inactive)
REMARK       I    between atoms: C_2  and  N_4 
REMARK    1  A    between atoms: N_4  and  C_6 
REMARK    2  A    between atoms: C_6  and  C_7 
REMARK    3  A    between atoms: C_7  and  O_8 
REMARK    4  A    between atoms: O_8  and  P_9 
REMARK    5  A    between atoms: P_9  and  O_10 
REMARK    6  A    between atoms: P_9  and  O_11 
ROOT
HETATM    1  C   UNK N   1      22.855  13.391   8.788  0.00  0.00     0.201 C 
ENDROOT
BRANCH   1   2
HETATM    2  C   UNK N   1      21.465  13.447   8.169  0.00  0.00     0.166 C 
BRANCH   2   3
HETATM    3  N   UNK N   1      20.941  14.794   8.138  0.00  0.00    -0.282 N 
HETATM    4  C   UNK N   1      19.891  15.165   8.927  0.00  0.00     0.225 C 
HETATM    5  C   UNK N   1      19.319  16.541   8.845  0.00  0.00     0.118 C 
HETATM    6  O   UNK N   1      19.393  14.366   9.710  0.00  0.00    -0.273 OA
HETATM    7 Br   UNK N   1      21.697  16.001   6.903  0.00  0.00     0.052 Br
ENDBRANCH   2   3
ENDBRANCH   1   2
BRANCH   1   8
HETATM    8  O   UNK N   1      22.719  13.288  10.178  0.00  0.00    -0.295 OA
BRANCH   8   9
HETATM    9  P   UNK N   1      23.754  11.973  10.663  0.00  0.00     0.390 P 
HETATM   10  O   UNK N   1      23.007  12.250  11.996  0.00  0.00    -0.632 OA
BRANCH   9  11
HETATM   11  O   UNK N   1      25.053  12.212  11.788  0.00  0.00    -0.307 OA
HETATM   12  H   UNK N   1      25.687  11.522  12.038  0.00  0.00     0.222 HD
ENDBRANCH   9  11
BRANCH   9  13
HETATM   13  O   UNK N   1      24.699  13.371  10.254  0.00  0.00    -0.307 OA
HETATM   14  H   UNK N   1      24.394  14.134   9.737  0.00  0.00     0.222 HD
ENDBRANCH   9  13
ENDBRANCH   8   9
ENDBRANCH   1   8
TORSDOF 6
ENDMDL
