REMARK  3 active torsions:
REMARK  status: ('A' for Active; 'I' for Inactive)
REMARK    1  A    between atoms: N_1  and  C_2 
REMARK    2  A    between atoms: C_5  and  C_8 
REMARK    3  A    between atoms: C_8  and  O_9 
ROOT
HETATM    1  C   UNK N   1       0.697  -1.162  -0.000  0.00  0.00     0.025 A 
HETATM    2  C   UNK N   1      -0.518  -0.472   0.000  0.00  0.00     0.030 A 
HETATM    3  C   UNK N   1      -0.527   0.925   0.000  0.00  0.00     0.020 A 
HETATM    4  C   UNK N   1       0.680   1.636   0.000  0.00  0.00     0.037 A 
HETATM    5  C   UNK N   1       1.896   0.938   0.000  0.00  0.00     0.020 A 
HETATM    6  C   UNK N   1       1.903  -0.458  -0.000  0.00  0.00     0.030 A 
ENDROOT
BRANCH   4   7
HETATM    7  C   UNK N   1       0.669   3.107   0.000  0.00  0.00     0.176 C 
HETATM    8  O   UNK N   1       1.716   3.731  -0.000  0.00  0.00    -0.646 OA
BRANCH   7   9
HETATM    9  O   UNK N   1      -0.503   3.772  -0.000  0.00  0.00    -0.773 OA
HETATM   10  H   UNK N   1      -0.510   4.709  -0.000  0.00  0.00     0.167 HD
ENDBRANCH   7   9
ENDBRANCH   4   7
BRANCH   1  11
HETATM   11  N   UNK N   1       0.705  -2.569  -0.000  0.00  0.00    -0.399 N 
HETATM   12  H   UNK N   1      -0.145  -3.066  -0.000  0.00  0.00     0.156 HD
HETATM   13  H   UNK N   1       1.560  -3.056  -0.000  0.00  0.00     0.156 HD
ENDBRANCH   1  11
TORSDOF 3
