MODEL 1
REMARK VINA RESULT:      -7.1      0.000      0.000
REMARK  7 active torsions:
REMARK  status: ('A' for Active; 'I' for Inactive)
REMARK    1  A    between atoms: C_4  and  O_23 
REMARK    2  A    between atoms: C_6  and  O_18 
REMARK    3  A    between atoms: N_10  and  C_7 
REMARK    4  A    between atoms: C_9  and  N_17 
REMARK    5  A    between atoms: P_24  and  O_19 
REMARK    6  A    between atoms: P_24  and  O_20 
REMARK    7  A    between atoms: P_24  and  O_23 
ROOT
HETATM    1  C   UNK N   1      34.134  10.800  13.700  0.00  0.00     0.183 A 
HETATM    2  C   UNK N   1      36.395  14.608  13.843  0.00  0.00     0.188 A 
HETATM    3  C   UNK N   1      35.719  12.771  14.712  0.00  0.00     0.122 A 
HETATM    4  C   UNK N   1      35.399  11.687  15.515  0.00  0.00     0.131 A 
HETATM    5  C   UNK N   1      35.250  12.840  13.452  0.00  0.00     0.142 A 
HETATM    6  N   UNK N   1      34.603  10.709  14.987  0.00  0.00    -0.337 N 
ATOM      7  HN  UNK N   1      34.355   9.900  15.557  1.00  0.00     0.168 HD
HETATM    8  N   UNK N   1      34.455  11.878  12.923  0.00  0.00    -0.336 N 
ATOM      9  HN  UNK N   1      34.105  11.956  11.968  1.00  0.00     0.168 HD
HETATM   10  N   UNK N   1      36.451  13.867  14.986  0.00  0.00    -0.346 N 
ATOM     11  HN  UNK N   1      36.938  14.091  15.855  1.00  0.00     0.167 HD
HETATM   12  N   UNK N   1      35.669  13.982  12.879  0.00  0.00    -0.297 N 
ENDROOT
BRANCH  12  13
HETATM   13  C   UNK N   1      35.337  14.527  11.552  0.00  0.00     0.261 C 
HETATM   14  C   UNK N   1      35.800  15.966  11.372  0.00  0.00     0.199 C 
HETATM   15  C   UNK N   1      34.784  16.542  10.397  0.00  0.00     0.190 C 
HETATM   16  C   UNK N   1      33.878  15.350  10.152  0.00  0.00     0.205 C 
HETATM   17  O   UNK N   1      33.952  14.563  11.322  0.00  0.00    -0.361 OA
BRANCH  14  18
HETATM   18  O   UNK N   1      37.114  15.985  10.897  0.00  0.00    -0.388 OA
HETATM   19  H   UNK N   1      37.897  16.548  11.007  0.00  0.00     0.210 HD
ENDBRANCH  14  18
BRANCH  15  20
HETATM   20  O   UNK N   1      35.361  17.038   9.204  0.00  0.00    -0.287 OA
BRANCH  20  21
HETATM   21  P   UNK N   1      34.062  17.704   8.225  0.00  0.00     0.391 P 
HETATM   22  O   UNK N   1      34.983  18.947   8.326  0.00  0.00    -0.632 OA
BRANCH  21  23
HETATM   23  O   UNK N   1      34.264  18.157   6.563  0.00  0.00    -0.307 OA
HETATM   24  H   UNK N   1      35.027  17.883   6.029  0.00  0.00     0.222 HD
ENDBRANCH  21  23
BRANCH  21  25
HETATM   25  O   UNK N   1      34.916  16.485   7.333  0.00  0.00    -0.307 OA
HETATM   26  H   UNK N   1      35.875  16.440   7.196  0.00  0.00     0.222 HD
ENDBRANCH  21  25
ENDBRANCH  20  21
ENDBRANCH  15  20
ENDBRANCH  12  13
BRANCH   4  27
HETATM   27  N   UNK N   1      35.860  11.595  16.843  0.00  0.00    -0.383 N 
HETATM   28  H   UNK N   1      36.638  12.121  17.140  0.00  0.00     0.157 HD
HETATM   29  H   UNK N   1      35.400  11.001  17.480  0.00  0.00     0.157 HD
ENDBRANCH   4  27
TORSDOF 7
ENDMDL
MODEL 2
REMARK VINA RESULT:      -6.7      5.907      8.020
REMARK  7 active torsions:
REMARK  status: ('A' for Active; 'I' for Inactive)
REMARK    1  A    between atoms: C_4  and  O_23 
REMARK    2  A    between atoms: C_6  and  O_18 
REMARK    3  A    between atoms: N_10  and  C_7 
REMARK    4  A    between atoms: C_9  and  N_17 
REMARK    5  A    between atoms: P_24  and  O_19 
REMARK    6  A    between atoms: P_24  and  O_20 
REMARK    7  A    between atoms: P_24  and  O_23 
ROOT
HETATM    1  C   UNK N   1      29.245  18.430   9.594  0.00  0.00     0.183 A 
HETATM    2  C   UNK N   1      31.076  16.525   6.037  0.00  0.00     0.188 A 
HETATM    3  C   UNK N   1      29.390  17.233   7.152  0.00  0.00     0.122 A 
HETATM    4  C   UNK N   1      28.145  17.561   7.667  0.00  0.00     0.131 A 
HETATM    5  C   UNK N   1      30.505  17.506   7.854  0.00  0.00     0.142 A 
HETATM    6  N   UNK N   1      28.096  18.162   8.893  0.00  0.00    -0.337 N 
ATOM      7  HN  UNK N   1      27.192  18.416   9.294  1.00  0.00     0.168 HD
HETATM    8  N   UNK N   1      30.465  18.095   9.073  0.00  0.00    -0.336 N 
ATOM      9  HN  UNK N   1      31.324  18.285   9.591  1.00  0.00     0.168 HD
HETATM   10  N   UNK N   1      29.716  16.622   5.997  0.00  0.00    -0.346 N 
ATOM     11  HN  UNK N   1      29.087  16.303   5.259  1.00  0.00     0.167 HD
HETATM   12  N   UNK N   1      31.582  17.079   7.170  0.00  0.00    -0.297 N 
ENDROOT
BRANCH  12  13
HETATM   13  C   UNK N   1      32.996  17.083   7.577  0.00  0.00     0.261 C 
HETATM   14  C   UNK N   1      33.263  16.203   8.792  0.00  0.00     0.199 C 
HETATM   15  C   UNK N   1      34.441  16.889   9.468  0.00  0.00     0.190 C 
HETATM   16  C   UNK N   1      34.687  18.067   8.546  0.00  0.00     0.205 C 
HETATM   17  O   UNK N   1      33.439  18.361   7.955  0.00  0.00    -0.361 OA
BRANCH  14  18
HETATM   18  O   UNK N   1      33.530  14.895   8.380  0.00  0.00    -0.388 OA
HETATM   19  H   UNK N   1      34.217  14.230   8.543  0.00  0.00     0.210 HD
ENDBRANCH  14  18
BRANCH  15  20
HETATM   20  O   UNK N   1      35.579  16.058   9.603  0.00  0.00    -0.287 OA
BRANCH  20  21
HETATM   21  P   UNK N   1      35.589  15.436  11.246  0.00  0.00     0.391 P 
HETATM   22  O   UNK N   1      35.444  14.107  10.459  0.00  0.00    -0.632 OA
BRANCH  21  23
HETATM   23  O   UNK N   1      36.884  14.476  11.889  0.00  0.00    -0.307 OA
HETATM   24  H   UNK N   1      37.213  13.674  11.455  0.00  0.00     0.222 HD
ENDBRANCH  21  23
BRANCH  21  25
HETATM   25  O   UNK N   1      37.138  16.115  10.856  0.00  0.00    -0.307 OA
HETATM   26  H   UNK N   1      37.661  16.709  11.416  0.00  0.00     0.222 HD
ENDBRANCH  21  25
ENDBRANCH  20  21
ENDBRANCH  15  20
ENDBRANCH  12  13
BRANCH   4  27
HETATM   27  N   UNK N   1      26.960  17.273   6.963  0.00  0.00    -0.383 N 
HETATM   28  H   UNK N   1      26.729  17.769   6.145  0.00  0.00     0.157 HD
HETATM   29  H   UNK N   1      26.356  16.567   7.292  0.00  0.00     0.157 HD
ENDBRANCH   4  27
TORSDOF 7
ENDMDL
MODEL 3
REMARK VINA RESULT:      -6.6     15.697     17.868
REMARK  7 active torsions:
REMARK  status: ('A' for Active; 'I' for Inactive)
REMARK    1  A    between atoms: C_4  and  O_23 
REMARK    2  A    between atoms: C_6  and  O_18 
REMARK    3  A    between atoms: N_10  and  C_7 
REMARK    4  A    between atoms: C_9  and  N_17 
REMARK    5  A    between atoms: P_24  and  O_19 
REMARK    6  A    between atoms: P_24  and  O_20 
REMARK    7  A    between atoms: P_24  and  O_23 
ROOT
HETATM    1  C   UNK N   1      22.923  20.090   3.106  0.00  0.00     0.183 A 
HETATM    2  C   UNK N   1      19.321  17.511   3.200  0.00  0.00     0.188 A 
HETATM    3  C   UNK N   1      20.474  19.129   2.400  0.00  0.00     0.122 A 
HETATM    4  C   UNK N   1      20.981  20.233   1.731  0.00  0.00     0.131 A 
HETATM    5  C   UNK N   1      21.187  18.547   3.382  0.00  0.00     0.142 A 
HETATM    6  N   UNK N   1      22.213  20.697   2.101  0.00  0.00    -0.337 N 
ATOM      7  HN  UNK N   1      22.609  21.506   1.622  1.00  0.00     0.168 HD
HETATM    8  N   UNK N   1      22.405  19.005   3.759  0.00  0.00    -0.336 N 
ATOM      9  HN  UNK N   1      22.924  18.553   4.513  1.00  0.00     0.168 HD
HETATM   10  N   UNK N   1      19.295  18.494   2.255  0.00  0.00    -0.346 N 
ATOM     11  HN  UNK N   1      18.551  18.703   1.588  1.00  0.00     0.167 HD
HETATM   12  N   UNK N   1      20.488  17.519   3.896  0.00  0.00    -0.297 N 
ENDROOT
BRANCH  12  13
HETATM   13  C   UNK N   1      20.824  16.652   5.037  0.00  0.00     0.261 C 
HETATM   14  C   UNK N   1      19.598  15.999   5.663  0.00  0.00     0.199 C 
HETATM   15  C   UNK N   1      19.998  15.830   7.121  0.00  0.00     0.190 C 
HETATM   16  C   UNK N   1      21.399  16.411   7.129  0.00  0.00     0.205 C 
HETATM   17  O   UNK N   1      21.428  17.363   6.087  0.00  0.00    -0.361 OA
BRANCH  14  18
HETATM   18  O   UNK N   1      19.318  14.795   5.010  0.00  0.00    -0.388 OA
HETATM   19  H   UNK N   1      19.827  14.090   4.580  0.00  0.00     0.210 HD
ENDBRANCH  14  18
BRANCH  15  20
HETATM   20  O   UNK N   1      19.965  14.488   7.566  0.00  0.00    -0.287 OA
BRANCH  20  21
HETATM   21  P   UNK N   1      20.622  14.454   9.196  0.00  0.00     0.391 P 
HETATM   22  O   UNK N   1      19.116  14.628   9.520  0.00  0.00    -0.632 OA
BRANCH  21  23
HETATM   23  O   UNK N   1      20.327  13.158  10.311  0.00  0.00    -0.307 OA
HETATM   24  H   UNK N   1      20.122  13.303  11.248  0.00  0.00     0.222 HD
ENDBRANCH  21  23
BRANCH  21  25
HETATM   25  O   UNK N   1      20.824  12.906   8.439  0.00  0.00    -0.307 OA
HETATM   26  H   UNK N   1      20.509  12.652   7.557  0.00  0.00     0.222 HD
ENDBRANCH  21  25
ENDBRANCH  20  21
ENDBRANCH  15  20
ENDBRANCH  12  13
BRANCH   4  27
HETATM   27  N   UNK N   1      20.251  20.873   0.711  0.00  0.00    -0.383 N 
HETATM   28  H   UNK N   1      19.607  21.586   0.928  0.00  0.00     0.157 HD
HETATM   29  H   UNK N   1      20.386  20.607  -0.227  0.00  0.00     0.157 HD
ENDBRANCH   4  27
TORSDOF 7
ENDMDL
MODEL 4
REMARK VINA RESULT:      -6.3      3.784      5.185
REMARK  7 active torsions:
REMARK  status: ('A' for Active; 'I' for Inactive)
REMARK    1  A    between atoms: C_4  and  O_23 
REMARK    2  A    between atoms: C_6  and  O_18 
REMARK    3  A    between atoms: N_10  and  C_7 
REMARK    4  A    between atoms: C_9  and  N_17 
REMARK    5  A    between atoms: P_24  and  O_19 
REMARK    6  A    between atoms: P_24  and  O_20 
REMARK    7  A    between atoms: P_24  and  O_23 
ROOT
HETATM    1  C   UNK N   1      36.645  13.822   7.682  0.00  0.00     0.183 A 
HETATM    2  C   UNK N   1      35.548  16.117  11.310  0.00  0.00     0.188 A 
HETATM    3  C   UNK N   1      36.820  14.777  10.226  0.00  0.00     0.122 A 
HETATM    4  C   UNK N   1      37.774  13.875   9.780  0.00  0.00     0.131 A 
HETATM    5  C   UNK N   1      35.826  15.171   9.408  0.00  0.00     0.142 A 
HETATM    6  N   UNK N   1      37.668  13.410   8.499  0.00  0.00    -0.337 N 
ATOM      7  HN  UNK N   1      38.358  12.747   8.146  1.00  0.00     0.168 HD
HETATM    8  N   UNK N   1      35.710  14.709   8.140  0.00  0.00    -0.336 N 
ATOM      9  HN  UNK N   1      34.943  15.015   7.540  1.00  0.00     0.168 HD
HETATM   10  N   UNK N   1      36.678  15.363  11.431  0.00  0.00    -0.346 N 
ATOM     11  HN  UNK N   1      37.280  15.264  12.249  1.00  0.00     0.167 HD
HETATM   12  N   UNK N   1      35.016  16.022  10.063  0.00  0.00    -0.297 N 
ENDROOT
BRANCH  12  13
HETATM   13  C   UNK N   1      33.760  16.638   9.606  0.00  0.00     0.261 C 
HETATM   14  C   UNK N   1      32.712  15.610   9.201  0.00  0.00     0.199 C 
HETATM   15  C   UNK N   1      31.908  16.332   8.130  0.00  0.00     0.190 C 
HETATM   16  C   UNK N   1      32.608  17.676   8.070  0.00  0.00     0.205 C 
HETATM   17  O   UNK N   1      33.942  17.435   8.464  0.00  0.00    -0.361 OA
BRANCH  14  18
HETATM   18  O   UNK N   1      31.959  15.236  10.318  0.00  0.00    -0.388 OA
HETATM   19  H   UNK N   1      31.987  15.397  11.274  0.00  0.00     0.210 HD
ENDBRANCH  14  18
BRANCH  15  20
HETATM   20  O   UNK N   1      30.532  16.451   8.437  0.00  0.00    -0.287 OA
BRANCH  20  21
HETATM   21  P   UNK N   1      30.213  18.142   8.792  0.00  0.00     0.391 P 
HETATM   22  O   UNK N   1      29.177  17.907   7.662  0.00  0.00    -0.632 OA
BRANCH  21  23
HETATM   23  O   UNK N   1      28.736  18.697   9.516  0.00  0.00    -0.307 OA
HETATM   24  H   UNK N   1      27.923  18.848   9.009  0.00  0.00     0.222 HD
ENDBRANCH  21  23
BRANCH  21  25
HETATM   25  O   UNK N   1      29.755  17.153  10.142  0.00  0.00    -0.307 OA
HETATM   26  H   UNK N   1      28.924  17.211  10.641  0.00  0.00     0.222 HD
ENDBRANCH  21  25
ENDBRANCH  20  21
ENDBRANCH  15  20
ENDBRANCH  12  13
BRANCH   4  27
HETATM   27  N   UNK N   1      38.815  13.433  10.618  0.00  0.00    -0.383 N 
HETATM   28  H   UNK N   1      39.092  12.487  10.617  0.00  0.00     0.157 HD
HETATM   29  H   UNK N   1      39.271  14.074  11.211  0.00  0.00     0.157 HD
ENDBRANCH   4  27
TORSDOF 7
ENDMDL
MODEL 5
REMARK VINA RESULT:      -6.3      2.560      4.338
REMARK  7 active torsions:
REMARK  status: ('A' for Active; 'I' for Inactive)
REMARK    1  A    between atoms: C_4  and  O_23 
REMARK    2  A    between atoms: C_6  and  O_18 
REMARK    3  A    between atoms: N_10  and  C_7 
REMARK    4  A    between atoms: C_9  and  N_17 
REMARK    5  A    between atoms: P_24  and  O_19 
REMARK    6  A    between atoms: P_24  and  O_20 
REMARK    7  A    between atoms: P_24  and  O_23 
ROOT
HETATM    1  C   UNK N   1      35.048  13.878  19.201  0.00  0.00     0.183 A 
HETATM    2  C   UNK N   1      35.642  10.968  15.913  0.00  0.00     0.188 A 
HETATM    3  C   UNK N   1      35.455  11.475  17.986  0.00  0.00     0.122 A 
HETATM    4  C   UNK N   1      35.411  11.528  19.371  0.00  0.00     0.131 A 
HETATM    5  C   UNK N   1      35.297  12.597  17.260  0.00  0.00     0.142 A 
HETATM    6  N   UNK N   1      35.204  12.744  19.959  0.00  0.00    -0.337 N 
ATOM      7  HN  UNK N   1      35.166  12.810  20.977  1.00  0.00     0.168 HD
HETATM    8  N   UNK N   1      35.099  13.808  17.836  0.00  0.00    -0.336 N 
ATOM      9  HN  UNK N   1      34.990  14.647  17.266  1.00  0.00     0.168 HD
HETATM   10  N   UNK N   1      35.667  10.428  17.165  0.00  0.00    -0.346 N 
ATOM     11  HN  UNK N   1      35.812   9.451  17.423  1.00  0.00     0.167 HD
HETATM   12  N   UNK N   1      35.401  12.305  15.951  0.00  0.00    -0.297 N 
ENDROOT
BRANCH  12  13
HETATM   13  C   UNK N   1      35.385  13.217  14.796  0.00  0.00     0.261 C 
HETATM   14  C   UNK N   1      35.458  12.483  13.464  0.00  0.00     0.199 C 
HETATM   15  C   UNK N   1      36.167  13.477  12.555  0.00  0.00     0.190 C 
HETATM   16  C   UNK N   1      36.401  14.644  13.495  0.00  0.00     0.205 C 
HETATM   17  O   UNK N   1      36.487  14.087  14.789  0.00  0.00    -0.361 OA
BRANCH  14  18
HETATM   18  O   UNK N   1      34.170  12.146  13.037  0.00  0.00    -0.388 OA
HETATM   19  H   UNK N   1      33.400  11.690  13.411  0.00  0.00     0.210 HD
ENDBRANCH  14  18
BRANCH  15  20
HETATM   20  O   UNK N   1      35.412  13.842  11.416  0.00  0.00    -0.287 OA
BRANCH  20  21
HETATM   21  P   UNK N   1      35.305  15.596  11.391  0.00  0.00     0.391 P 
HETATM   22  O   UNK N   1      35.915  15.346   9.987  0.00  0.00    -0.632 OA
BRANCH  21  23
HETATM   23  O   UNK N   1      34.221  16.464  10.351  0.00  0.00    -0.307 OA
HETATM   24  H   UNK N   1      34.515  16.942   9.560  0.00  0.00     0.222 HD
ENDBRANCH  21  23
BRANCH  21  25
HETATM   25  O   UNK N   1      33.714  14.901  11.406  0.00  0.00    -0.307 OA
HETATM   26  H   UNK N   1      33.484  14.001  11.688  0.00  0.00     0.222 HD
ENDBRANCH  21  25
ENDBRANCH  20  21
ENDBRANCH  15  20
ENDBRANCH  12  13
BRANCH   4  27
HETATM   27  N   UNK N   1      35.590  10.374  20.156  0.00  0.00    -0.383 N 
HETATM   28  H   UNK N   1      34.948   9.629  20.106  0.00  0.00     0.157 HD
HETATM   29  H   UNK N   1      36.365  10.309  20.760  0.00  0.00     0.157 HD
ENDBRANCH   4  27
TORSDOF 7
ENDMDL
MODEL 6
REMARK VINA RESULT:      -6.2     13.126     14.464
REMARK  7 active torsions:
REMARK  status: ('A' for Active; 'I' for Inactive)
REMARK    1  A    between atoms: C_4  and  O_23 
REMARK    2  A    between atoms: C_6  and  O_18 
REMARK    3  A    between atoms: N_10  and  C_7 
REMARK    4  A    between atoms: C_9  and  N_17 
REMARK    5  A    between atoms: P_24  and  O_19 
REMARK    6  A    between atoms: P_24  and  O_20 
REMARK    7  A    between atoms: P_24  and  O_23 
ROOT
HETATM    1  C   UNK N   1      24.651  13.007   9.691  0.00  0.00     0.183 A 
HETATM    2  C   UNK N   1      20.269  13.662   9.753  0.00  0.00     0.188 A 
HETATM    3  C   UNK N   1      22.078  12.861  10.573  0.00  0.00     0.122 A 
HETATM    4  C   UNK N   1      23.071  12.208  11.287  0.00  0.00     0.131 A 
HETATM    5  C   UNK N   1      22.389  13.555   9.462  0.00  0.00     0.142 A 
HETATM    6  N   UNK N   1      24.355  12.296  10.827  0.00  0.00    -0.337 N 
ATOM      7  HN  UNK N   1      25.105  11.826  11.336  1.00  0.00     0.168 HD
HETATM    8  N   UNK N   1      23.658  13.641   8.995  0.00  0.00    -0.336 N 
ATOM      9  HN  UNK N   1      23.869  14.165   8.146  1.00  0.00     0.168 HD
HETATM   10  N   UNK N   1      20.750  12.916  10.788  0.00  0.00    -0.346 N 
ATOM     11  HN  UNK N   1      20.223  12.494  11.553  1.00  0.00     0.167 HD
HETATM   12  N   UNK N   1      21.269  14.077   8.931  0.00  0.00    -0.297 N 
ENDROOT
BRANCH  12  13
HETATM   13  C   UNK N   1      21.105  14.832   7.678  0.00  0.00     0.261 C 
HETATM   14  C   UNK N   1      21.011  13.930   6.454  0.00  0.00     0.199 C 
HETATM   15  C   UNK N   1      21.598  14.787   5.342  0.00  0.00     0.190 C 
HETATM   16  C   UNK N   1      21.947  16.063   6.084  0.00  0.00     0.205 C 
HETATM   17  O   UNK N   1      22.196  15.677   7.419  0.00  0.00    -0.361 OA
BRANCH  14  18
HETATM   18  O   UNK N   1      19.681  13.559   6.240  0.00  0.00    -0.388 OA
HETATM   19  H   UNK N   1      18.915  13.919   5.766  0.00  0.00     0.210 HD
ENDBRANCH  14  18
BRANCH  15  20
HETATM   20  O   UNK N   1      20.705  15.012   4.268  0.00  0.00    -0.287 OA
BRANCH  20  21
HETATM   21  P   UNK N   1      20.287  16.718   4.275  0.00  0.00     0.391 P 
HETATM   22  O   UNK N   1      20.806  16.578   2.821  0.00  0.00    -0.632 OA
BRANCH  21  23
HETATM   23  O   UNK N   1      18.979  17.378   3.345  0.00  0.00    -0.307 OA
HETATM   24  H   UNK N   1      18.183  17.759   3.747  0.00  0.00     0.222 HD
ENDBRANCH  21  23
BRANCH  21  25
HETATM   25  O   UNK N   1      18.852  15.752   4.420  0.00  0.00    -0.307 OA
HETATM   26  H   UNK N   1      17.948  16.082   4.539  0.00  0.00     0.222 HD
ENDBRANCH  21  25
ENDBRANCH  20  21
ENDBRANCH  15  20
ENDBRANCH  12  13
BRANCH   4  27
HETATM   27  N   UNK N   1      22.774  11.460  12.443  0.00  0.00    -0.383 N 
HETATM   28  H   UNK N   1      22.319  11.881  13.208  0.00  0.00     0.157 HD
HETATM   29  H   UNK N   1      23.023  10.508  12.486  0.00  0.00     0.157 HD
ENDBRANCH   4  27
TORSDOF 7
ENDMDL
MODEL 7
REMARK VINA RESULT:      -6.1      2.166      2.596
REMARK  7 active torsions:
REMARK  status: ('A' for Active; 'I' for Inactive)
REMARK    1  A    between atoms: C_4  and  O_23 
REMARK    2  A    between atoms: C_6  and  O_18 
REMARK    3  A    between atoms: N_10  and  C_7 
REMARK    4  A    between atoms: C_9  and  N_17 
REMARK    5  A    between atoms: P_24  and  O_19 
REMARK    6  A    between atoms: P_24  and  O_20 
REMARK    7  A    between atoms: P_24  and  O_23 
ROOT
HETATM    1  C   UNK N   1      36.670  11.046  10.830  0.00  0.00     0.183 A 
HETATM    2  C   UNK N   1      36.103  15.260  12.078  0.00  0.00     0.188 A 
HETATM    3  C   UNK N   1      36.771  13.254  12.422  0.00  0.00     0.122 A 
HETATM    4  C   UNK N   1      37.248  12.049  12.914  0.00  0.00     0.131 A 
HETATM    5  C   UNK N   1      36.267  13.324  11.175  0.00  0.00     0.142 A 
HETATM    6  N   UNK N   1      37.189  10.954  12.098  0.00  0.00    -0.337 N 
ATOM      7  HN  UNK N   1      37.535  10.056  12.435  1.00  0.00     0.168 HD
HETATM    8  N   UNK N   1      36.199  12.242  10.362  0.00  0.00    -0.336 N 
ATOM      9  HN  UNK N   1      35.805  12.317   9.424  1.00  0.00     0.168 HD
HETATM   10  N   UNK N   1      36.689  14.460  13.014  0.00  0.00    -0.346 N 
ATOM     11  HN  UNK N   1      36.996  14.718  13.953  1.00  0.00     0.167 HD
HETATM   12  N   UNK N   1      35.849  14.578  10.930  0.00  0.00    -0.297 N 
ENDROOT
BRANCH  12  13
HETATM   13  C   UNK N   1      35.155  15.105   9.743  0.00  0.00     0.261 C 
HETATM   14  C   UNK N   1      34.383  16.386  10.031  0.00  0.00     0.199 C 
HETATM   15  C   UNK N   1      33.228  16.329   9.042  0.00  0.00     0.190 C 
HETATM   16  C   UNK N   1      33.499  15.021   8.324  0.00  0.00     0.205 C 
HETATM   17  O   UNK N   1      34.194  14.210   9.247  0.00  0.00    -0.361 OA
BRANCH  14  18
HETATM   18  O   UNK N   1      35.220  17.492   9.860  0.00  0.00    -0.388 OA
HETATM   19  H   UNK N   1      35.468  18.083   9.132  0.00  0.00     0.210 HD
ENDBRANCH  14  18
BRANCH  15  20
HETATM   20  O   UNK N   1      33.182  17.433   8.160  0.00  0.00    -0.287 OA
BRANCH  20  21
HETATM   21  P   UNK N   1      33.627  16.853   6.562  0.00  0.00     0.391 P 
HETATM   22  O   UNK N   1      32.218  17.423   6.255  0.00  0.00    -0.632 OA
BRANCH  21  23
HETATM   23  O   UNK N   1      33.935  17.910   5.221  0.00  0.00    -0.307 OA
HETATM   24  H   UNK N   1      33.232  18.384   4.749  0.00  0.00     0.222 HD
ENDBRANCH  21  23
BRANCH  21  25
HETATM   25  O   UNK N   1      34.646  18.181   7.020  0.00  0.00    -0.307 OA
HETATM   26  H   UNK N   1      34.422  18.886   7.648  0.00  0.00     0.222 HD
ENDBRANCH  21  25
ENDBRANCH  20  21
ENDBRANCH  15  20
ENDBRANCH  12  13
BRANCH   4  27
HETATM   27  N   UNK N   1      37.764  11.941  14.219  0.00  0.00    -0.383 N 
HETATM   28  H   UNK N   1      37.191  12.115  15.001  0.00  0.00     0.157 HD
HETATM   29  H   UNK N   1      38.707  11.690  14.353  0.00  0.00     0.157 HD
ENDBRANCH   4  27
TORSDOF 7
ENDMDL
MODEL 8
REMARK VINA RESULT:      -6.1     15.460     17.550
REMARK  7 active torsions:
REMARK  status: ('A' for Active; 'I' for Inactive)
REMARK    1  A    between atoms: C_4  and  O_23 
REMARK    2  A    between atoms: C_6  and  O_18 
REMARK    3  A    between atoms: N_10  and  C_7 
REMARK    4  A    between atoms: C_9  and  N_17 
REMARK    5  A    between atoms: P_24  and  O_19 
REMARK    6  A    between atoms: P_24  and  O_20 
REMARK    7  A    between atoms: P_24  and  O_23 
ROOT
HETATM    1  C   UNK N   1      19.745  16.743   1.089  0.00  0.00     0.183 A 
HETATM    2  C   UNK N   1      21.118  19.002   4.645  0.00  0.00     0.188 A 
HETATM    3  C   UNK N   1      20.660  18.846   2.558  0.00  0.00     0.122 A 
HETATM    4  C   UNK N   1      20.482  19.007   1.193  0.00  0.00     0.131 A 
HETATM    5  C   UNK N   1      20.383  17.665   3.142  0.00  0.00     0.142 A 
HETATM    6  N   UNK N   1      20.021  17.940   0.475  0.00  0.00    -0.337 N 
ATOM      7  HN  UNK N   1      19.879  18.033  -0.531  1.00  0.00     0.168 HD
HETATM    8  N   UNK N   1      19.931  16.600   2.437  0.00  0.00    -0.336 N 
ATOM      9  HN  UNK N   1      19.735  15.711   2.899  1.00  0.00     0.168 HD
HETATM   10  N   UNK N   1      21.119  19.713   3.481  0.00  0.00    -0.346 N 
ATOM     11  HN  UNK N   1      21.403  20.683   3.340  1.00  0.00     0.167 HD
HETATM   12  N   UNK N   1      20.653  17.739   4.457  0.00  0.00    -0.297 N 
ENDROOT
BRANCH  12  13
HETATM   13  C   UNK N   1      20.589  16.678   5.475  0.00  0.00     0.261 C 
HETATM   14  C   UNK N   1      21.354  17.030   6.744  0.00  0.00     0.199 C 
HETATM   15  C   UNK N   1      21.803  15.674   7.269  0.00  0.00     0.190 C 
HETATM   16  C   UNK N   1      21.232  14.732   6.227  0.00  0.00     0.205 C 
HETATM   17  O   UNK N   1      21.164  15.477   5.030  0.00  0.00    -0.361 OA
BRANCH  14  18
HETATM   18  O   UNK N   1      20.521  17.729   7.622  0.00  0.00    -0.388 OA
HETATM   19  H   UNK N   1      20.627  18.410   8.304  0.00  0.00     0.210 HD
ENDBRANCH  14  18
BRANCH  15  20
HETATM   20  O   UNK N   1      21.336  15.388   8.573  0.00  0.00    -0.287 OA
BRANCH  20  21
HETATM   21  P   UNK N   1      21.120  13.648   8.689  0.00  0.00     0.391 P 
HETATM   22  O   UNK N   1      22.164  13.862   9.815  0.00  0.00    -0.632 OA
BRANCH  21  23
HETATM   23  O   UNK N   1      20.370  12.873  10.047  0.00  0.00    -0.307 OA
HETATM   24  H   UNK N   1      20.417  13.226  10.950  0.00  0.00     0.222 HD
ENDBRANCH  21  23
BRANCH  21  25
HETATM   25  O   UNK N   1      19.661  14.462   9.159  0.00  0.00    -0.307 OA
HETATM   26  H   UNK N   1      19.560  15.072   9.906  0.00  0.00     0.222 HD
ENDBRANCH  21  25
ENDBRANCH  20  21
ENDBRANCH  15  20
ENDBRANCH  12  13
BRANCH   4  27
HETATM   27  N   UNK N   1      20.781  20.225   0.552  0.00  0.00    -0.383 N 
HETATM   28  H   UNK N   1      21.707  20.557   0.513  0.00  0.00     0.157 HD
HETATM   29  H   UNK N   1      20.057  20.750   0.139  0.00  0.00     0.157 HD
ENDBRANCH   4  27
TORSDOF 7
ENDMDL
MODEL 9
REMARK VINA RESULT:      -6.1      3.468      5.100
REMARK  7 active torsions:
REMARK  status: ('A' for Active; 'I' for Inactive)
REMARK    1  A    between atoms: C_4  and  O_23 
REMARK    2  A    between atoms: C_6  and  O_18 
REMARK    3  A    between atoms: N_10  and  C_7 
REMARK    4  A    between atoms: C_9  and  N_17 
REMARK    5  A    between atoms: P_24  and  O_19 
REMARK    6  A    between atoms: P_24  and  O_20 
REMARK    7  A    between atoms: P_24  and  O_23 
ROOT
HETATM    1  C   UNK N   1      34.871  12.908  10.406  0.00  0.00     0.183 A 
HETATM    2  C   UNK N   1      34.640  17.230   9.458  0.00  0.00     0.188 A 
HETATM    3  C   UNK N   1      35.206  15.593  10.718  0.00  0.00     0.122 A 
HETATM    4  C   UNK N   1      35.639  14.741  11.722  0.00  0.00     0.131 A 
HETATM    5  C   UNK N   1      34.630  15.093   9.608  0.00  0.00     0.142 A 
HETATM    6  N   UNK N   1      35.463  13.398  11.544  0.00  0.00    -0.337 N 
ATOM      7  HN  UNK N   1      35.775  12.749  12.268  1.00  0.00     0.168 HD
HETATM    8  N   UNK N   1      34.445  13.763   9.427  0.00  0.00    -0.336 N 
ATOM      9  HN  UNK N   1      33.999  13.407   8.582  1.00  0.00     0.168 HD
HETATM   10  N   UNK N   1      35.234  16.938  10.650  0.00  0.00    -0.346 N 
ATOM     11  HN  UNK N   1      35.615  17.590  11.336  1.00  0.00     0.167 HD
HETATM   12  N   UNK N   1      34.273  16.102   8.794  0.00  0.00    -0.297 N 
ENDROOT
BRANCH  12  13
HETATM   13  C   UNK N   1      33.539  16.045   7.519  0.00  0.00     0.261 C 
HETATM   14  C   UNK N   1      33.125  17.421   7.015  0.00  0.00     0.199 C 
HETATM   15  C   UNK N   1      31.848  17.139   6.237  0.00  0.00     0.190 C 
HETATM   16  C   UNK N   1      31.708  15.638   6.404  0.00  0.00     0.205 C 
HETATM   17  O   UNK N   1      32.339  15.325   7.627  0.00  0.00    -0.361 OA
BRANCH  14  18
HETATM   18  O   UNK N   1      34.150  17.970   6.239  0.00  0.00    -0.388 OA
HETATM   19  H   UNK N   1      35.120  17.966   6.247  0.00  0.00     0.210 HD
ENDBRANCH  14  18
BRANCH  15  20
HETATM   20  O   UNK N   1      31.913  17.530   4.879  0.00  0.00    -0.287 OA
BRANCH  20  21
HETATM   21  P   UNK N   1      30.823  16.489   3.976  0.00  0.00     0.391 P 
HETATM   22  O   UNK N   1      29.818  17.561   4.470  0.00  0.00    -0.632 OA
BRANCH  21  23
HETATM   23  O   UNK N   1      30.045  16.979   2.505  0.00  0.00    -0.307 OA
HETATM   24  H   UNK N   1      30.073  17.889   2.169  0.00  0.00     0.222 HD
ENDBRANCH  21  23
BRANCH  21  25
HETATM   25  O   UNK N   1      31.936  17.267   2.896  0.00  0.00    -0.307 OA
HETATM   26  H   UNK N   1      32.217  16.939   2.027  0.00  0.00     0.222 HD
ENDBRANCH  21  25
ENDBRANCH  20  21
ENDBRANCH  15  20
ENDBRANCH  12  13
BRANCH   4  27
HETATM   27  N   UNK N   1      36.229  15.236  12.901  0.00  0.00    -0.383 N 
HETATM   28  H   UNK N   1      36.785  16.049  12.881  0.00  0.00     0.157 HD
HETATM   29  H   UNK N   1      36.084  14.766  13.754  0.00  0.00     0.157 HD
ENDBRANCH   4  27
TORSDOF 7
ENDMDL
