MODEL 1
REMARK VINA RESULT:      -6.6      0.000      0.000
REMARK  12 active torsions:
REMARK  status: ('A' for Active; 'I' for Inactive)
REMARK    1  A    between atoms: C_2  and  O_16 
REMARK    2  A    between atoms: C_3  and  O_19 
REMARK    3  A    between atoms: C_4  and  O_20 
REMARK    4  A    between atoms: C_5  and  C_22 
REMARK    5  A    between atoms: C_6  and  O_21 
REMARK    6  A    between atoms: C_7  and  O_13 
REMARK    7  A    between atoms: C_8  and  O_14 
REMARK    8  A    between atoms: C_10  and  O_15 
REMARK    9  A    between atoms: C_11  and  C_17 
REMARK   10  A    between atoms: C_12  and  O_16 
REMARK   11  A    between atoms: O_18  and  C_17 
REMARK   12  A    between atoms: C_22  and  O_23 
ROOT
HETATM    1  O   UNK N   1      32.595  15.992   7.367  0.00  0.00    -0.348 OA
ENDROOT
BRANCH   1   2
HETATM    2  C   UNK N   1      31.244  16.316   7.202  0.00  0.00     0.292 C 
HETATM    3  O   UNK N   1      30.871  17.199   8.236  0.00  0.00    -0.348 OA
HETATM    4  C   UNK N   1      29.474  17.331   8.192  0.00  0.00     0.179 C 
HETATM    5  C   UNK N   1      29.105  18.184   6.974  0.00  0.00     0.180 C 
HETATM    6  C   UNK N   1      29.570  17.434   5.724  0.00  0.00     0.183 C 
HETATM    7  C   UNK N   1      31.038  17.022   5.854  0.00  0.00     0.204 C 
BRANCH   4   8
HETATM    8  C   UNK N   1      28.992  17.981   9.479  0.00  0.00     0.198 C 
BRANCH   8   9
HETATM    9  O   UNK N   1      27.602  17.883   9.568  0.00  0.00    -0.398 OA
HETATM   10  H   UNK N   1      27.067  17.673   8.787  0.00  0.00     0.209 HD
ENDBRANCH   8   9
ENDBRANCH   4   8
BRANCH   5  11
HETATM   11  O   UNK N   1      27.724  18.382   6.915  0.00  0.00    -0.390 OA
HETATM   12  H   UNK N   1      27.019  18.201   7.555  0.00  0.00     0.210 HD
ENDBRANCH   5  11
BRANCH   6  13
HETATM   13  O   UNK N   1      29.394  18.233   4.593  0.00  0.00    -0.390 OA
HETATM   14  H   UNK N   1      28.862  17.926   3.842  0.00  0.00     0.210 HD
ENDBRANCH   6  13
BRANCH   7  15
HETATM   15  O   UNK N   1      31.381  16.166   4.804  0.00  0.00    -0.388 OA
HETATM   16  H   UNK N   1      31.807  15.300   4.895  0.00  0.00     0.210 HD
ENDBRANCH   7  15
ENDBRANCH   1   2
BRANCH   1  17
HETATM   17  C   UNK N   1      32.960  16.334   8.679  0.00  0.00     0.187 C 
HETATM   18  C   UNK N   1      33.065  15.034   9.488  0.00  0.00     0.183 C 
HETATM   19  C   UNK N   1      33.785  15.234  10.823  0.00  0.00     0.204 C 
HETATM   20  C   UNK N   1      35.082  15.988  10.544  0.00  0.00     0.288 C 
HETATM   21  O   UNK N   1      34.759  17.245  10.016  0.00  0.00    -0.349 OA
HETATM   22  C   UNK N   1      34.342  17.028   8.690  0.00  0.00     0.180 C 
BRANCH  18  23
HETATM   23  O   UNK N   1      31.800  14.483   9.698  0.00  0.00    -0.390 OA
HETATM   24  H   UNK N   1      31.364  14.439  10.562  0.00  0.00     0.210 HD
ENDBRANCH  18  23
BRANCH  19  25
HETATM   25  O   UNK N   1      34.066  13.990  11.390  0.00  0.00    -0.388 OA
HETATM   26  H   UNK N   1      34.275  13.854  12.328  0.00  0.00     0.210 HD
ENDBRANCH  19  25
BRANCH  20  27
HETATM   27  O   UNK N   1      35.806  16.156  11.725  0.00  0.00    -0.369 OA
HETATM   28  H   UNK N   1      35.754  16.947  12.285  0.00  0.00     0.212 HD
ENDBRANCH  20  27
BRANCH  22  29
HETATM   29  C   UNK N   1      34.292  18.369   7.979  0.00  0.00     0.198 C 
BRANCH  29  30
HETATM   30  O   UNK N   1      35.265  19.223   8.499  0.00  0.00    -0.398 OA
HETATM   31  H   UNK N   1      35.894  18.943   9.183  0.00  0.00     0.209 HD
ENDBRANCH  29  30
ENDBRANCH  22  29
ENDBRANCH   1  17
TORSDOF 12
ENDMDL
MODEL 2
REMARK VINA RESULT:      -6.4      3.151      5.267
REMARK  12 active torsions:
REMARK  status: ('A' for Active; 'I' for Inactive)
REMARK    1  A    between atoms: C_2  and  O_16 
REMARK    2  A    between atoms: C_3  and  O_19 
REMARK    3  A    between atoms: C_4  and  O_20 
REMARK    4  A    between atoms: C_5  and  C_22 
REMARK    5  A    between atoms: C_6  and  O_21 
REMARK    6  A    between atoms: C_7  and  O_13 
REMARK    7  A    between atoms: C_8  and  O_14 
REMARK    8  A    between atoms: C_10  and  O_15 
REMARK    9  A    between atoms: C_11  and  C_17 
REMARK   10  A    between atoms: C_12  and  O_16 
REMARK   11  A    between atoms: O_18  and  C_17 
REMARK   12  A    between atoms: C_22  and  O_23 
ROOT
HETATM    1  O   UNK N   1      34.197  14.955  10.525  0.00  0.00    -0.348 OA
ENDROOT
BRANCH   1   2
HETATM    2  C   UNK N   1      34.428  15.593   9.301  0.00  0.00     0.292 C 
HETATM    3  O   UNK N   1      33.310  15.376   8.470  0.00  0.00    -0.348 OA
HETATM    4  C   UNK N   1      33.652  15.821   7.183  0.00  0.00     0.179 C 
HETATM    5  C   UNK N   1      33.679  17.353   7.189  0.00  0.00     0.180 C 
HETATM    6  C   UNK N   1      34.768  17.794   8.170  0.00  0.00     0.183 C 
HETATM    7  C   UNK N   1      34.589  17.104   9.524  0.00  0.00     0.204 C 
BRANCH   4   8
HETATM    8  C   UNK N   1      32.631  15.298   6.185  0.00  0.00     0.198 C 
BRANCH   8   9
HETATM    9  O   UNK N   1      31.938  14.219   6.737  0.00  0.00    -0.398 OA
HETATM   10  H   UNK N   1      32.042  13.988   7.673  0.00  0.00     0.209 HD
ENDBRANCH   8   9
ENDBRANCH   4   8
BRANCH   5  11
HETATM   11  O   UNK N   1      33.969  17.844   5.915  0.00  0.00    -0.390 OA
HETATM   12  H   UNK N   1      34.772  18.243   5.545  0.00  0.00     0.210 HD
ENDBRANCH   5  11
BRANCH   6  13
HETATM   13  O   UNK N   1      34.736  19.180   8.329  0.00  0.00    -0.390 OA
HETATM   14  H   UNK N   1      35.105  19.601   9.121  0.00  0.00     0.210 HD
ENDBRANCH   6  13
BRANCH   7  15
HETATM   15  O   UNK N   1      35.702  17.357  10.331  0.00  0.00    -0.388 OA
HETATM   16  H   UNK N   1      36.343  16.696  10.636  0.00  0.00     0.210 HD
ENDBRANCH   7  15
ENDBRANCH   1   2
BRANCH   1  17
HETATM   17  C   UNK N   1      35.197  13.983  10.695  0.00  0.00     0.187 C 
HETATM   18  C   UNK N   1      35.862  14.232  12.056  0.00  0.00     0.183 C 
HETATM   19  C   UNK N   1      36.718  13.049  12.512  0.00  0.00     0.204 C 
HETATM   20  C   UNK N   1      35.878  11.783  12.368  0.00  0.00     0.288 C 
HETATM   21  O   UNK N   1      35.563  11.613  11.012  0.00  0.00    -0.349 OA
HETATM   22  C   UNK N   1      34.575  12.567  10.708  0.00  0.00     0.180 C 
BRANCH  18  23
HETATM   23  O   UNK N   1      36.626  15.399  12.022  0.00  0.00    -0.390 OA
HETATM   24  H   UNK N   1      36.261  16.281  11.852  0.00  0.00     0.210 HD
ENDBRANCH  18  23
BRANCH  19  25
HETATM   25  O   UNK N   1      37.087  13.229  13.846  0.00  0.00    -0.388 OA
HETATM   26  H   UNK N   1      36.985  12.554  14.534  0.00  0.00     0.210 HD
ENDBRANCH  19  25
BRANCH  20  27
HETATM   27  O   UNK N   1      36.595  10.673  12.817  0.00  0.00    -0.369 OA
HETATM   28  H   UNK N   1      37.098  10.081  12.235  0.00  0.00     0.212 HD
ENDBRANCH  20  27
BRANCH  22  29
HETATM   29  C   UNK N   1      33.973  12.216   9.359  0.00  0.00     0.198 C 
BRANCH  29  30
HETATM   30  O   UNK N   1      32.647  12.648   9.299  0.00  0.00    -0.398 OA
HETATM   31  H   UNK N   1      31.933  12.210   9.788  0.00  0.00     0.209 HD
ENDBRANCH  29  30
ENDBRANCH  22  29
ENDBRANCH   1  17
TORSDOF 12
ENDMDL
MODEL 3
REMARK VINA RESULT:      -6.0      2.765      4.725
REMARK  12 active torsions:
REMARK  status: ('A' for Active; 'I' for Inactive)
REMARK    1  A    between atoms: C_2  and  O_16 
REMARK    2  A    between atoms: C_3  and  O_19 
REMARK    3  A    between atoms: C_4  and  O_20 
REMARK    4  A    between atoms: C_5  and  C_22 
REMARK    5  A    between atoms: C_6  and  O_21 
REMARK    6  A    between atoms: C_7  and  O_13 
REMARK    7  A    between atoms: C_8  and  O_14 
REMARK    8  A    between atoms: C_10  and  O_15 
REMARK    9  A    between atoms: C_11  and  C_17 
REMARK   10  A    between atoms: C_12  and  O_16 
REMARK   11  A    between atoms: O_18  and  C_17 
REMARK   12  A    between atoms: C_22  and  O_23 
ROOT
HETATM    1  O   UNK N   1      35.098  13.714   9.972  0.00  0.00    -0.348 OA
ENDROOT
BRANCH   1   2
HETATM    2  C   UNK N   1      34.095  14.546   9.462  0.00  0.00     0.292 C 
HETATM    3  O   UNK N   1      34.711  15.644   8.826  0.00  0.00    -0.348 OA
HETATM    4  C   UNK N   1      33.704  16.575   8.526  0.00  0.00     0.179 C 
HETATM    5  C   UNK N   1      32.870  16.030   7.361  0.00  0.00     0.180 C 
HETATM    6  C   UNK N   1      32.217  14.727   7.826  0.00  0.00     0.183 C 
HETATM    7  C   UNK N   1      33.260  13.781   8.426  0.00  0.00     0.204 C 
BRANCH   4   8
HETATM    8  C   UNK N   1      34.344  17.906   8.164  0.00  0.00     0.198 C 
BRANCH   8   9
HETATM    9  O   UNK N   1      34.537  17.978   6.784  0.00  0.00    -0.398 OA
HETATM   10  H   UNK N   1      34.205  18.733   6.274  0.00  0.00     0.209 HD
ENDBRANCH   8   9
ENDBRANCH   4   8
BRANCH   5  11
HETATM   11  O   UNK N   1      31.882  16.946   6.996  0.00  0.00    -0.390 OA
HETATM   12  H   UNK N   1      31.259  17.469   7.525  0.00  0.00     0.210 HD
ENDBRANCH   5  11
BRANCH   6  13
HETATM   13  O   UNK N   1      31.566  14.110   6.757  0.00  0.00    -0.390 OA
HETATM   14  H   UNK N   1      32.067  13.716   6.028  0.00  0.00     0.210 HD
ENDBRANCH   6  13
BRANCH   7  15
HETATM   15  O   UNK N   1      32.619  12.696   9.029  0.00  0.00    -0.388 OA
HETATM   16  H   UNK N   1      31.941  12.138   8.618  0.00  0.00     0.210 HD
ENDBRANCH   7  15
ENDBRANCH   1   2
BRANCH   1  17
HETATM   17  C   UNK N   1      34.906  13.616  11.360  0.00  0.00     0.187 C 
HETATM   18  C   UNK N   1      34.983  12.129  11.736  0.00  0.00     0.183 C 
HETATM   19  C   UNK N   1      35.138  11.916  13.243  0.00  0.00     0.204 C 
HETATM   20  C   UNK N   1      36.271  12.817  13.727  0.00  0.00     0.288 C 
HETATM   21  O   UNK N   1      35.905  14.151  13.498  0.00  0.00    -0.349 OA
HETATM   22  C   UNK N   1      36.029  14.367  12.114  0.00  0.00     0.180 C 
BRANCH  18  23
HETATM   23  O   UNK N   1      33.863  11.445  11.263  0.00  0.00    -0.390 OA
HETATM   24  H   UNK N   1      33.752  10.484  11.316  0.00  0.00     0.210 HD
ENDBRANCH  18  23
BRANCH  19  25
HETATM   25  O   UNK N   1      35.449  10.579  13.494  0.00  0.00    -0.388 OA
HETATM   26  H   UNK N   1      35.068  10.059  14.219  0.00  0.00     0.210 HD
ENDBRANCH  19  25
BRANCH  20  27
HETATM   27  O   UNK N   1      36.489  12.627  15.093  0.00  0.00    -0.369 OA
HETATM   28  H   UNK N   1      36.303  11.799  15.562  0.00  0.00     0.212 HD
ENDBRANCH  20  27
BRANCH  22  29
HETATM   29  C   UNK N   1      35.960  15.862  11.856  0.00  0.00     0.198 C 
BRANCH  29  30
HETATM   30  O   UNK N   1      36.827  16.210  10.820  0.00  0.00    -0.398 OA
HETATM   31  H   UNK N   1      37.316  17.048  10.808  0.00  0.00     0.209 HD
ENDBRANCH  29  30
ENDBRANCH  22  29
ENDBRANCH   1  17
TORSDOF 12
ENDMDL
MODEL 4
REMARK VINA RESULT:      -5.9      1.755      5.877
REMARK  12 active torsions:
REMARK  status: ('A' for Active; 'I' for Inactive)
REMARK    1  A    between atoms: C_2  and  O_16 
REMARK    2  A    between atoms: C_3  and  O_19 
REMARK    3  A    between atoms: C_4  and  O_20 
REMARK    4  A    between atoms: C_5  and  C_22 
REMARK    5  A    between atoms: C_6  and  O_21 
REMARK    6  A    between atoms: C_7  and  O_13 
REMARK    7  A    between atoms: C_8  and  O_14 
REMARK    8  A    between atoms: C_10  and  O_15 
REMARK    9  A    between atoms: C_11  and  C_17 
REMARK   10  A    between atoms: C_12  and  O_16 
REMARK   11  A    between atoms: O_18  and  C_17 
REMARK   12  A    between atoms: C_22  and  O_23 
ROOT
HETATM    1  O   UNK N   1      31.675  17.963   7.250  0.00  0.00    -0.348 OA
ENDROOT
BRANCH   1   2
HETATM    2  C   UNK N   1      32.803  17.306   7.753  0.00  0.00     0.292 C 
HETATM    3  O   UNK N   1      32.372  16.177   8.480  0.00  0.00    -0.348 OA
HETATM    4  C   UNK N   1      33.487  15.666   9.162  0.00  0.00     0.179 C 
HETATM    5  C   UNK N   1      34.409  14.985   8.145  0.00  0.00     0.180 C 
HETATM    6  C   UNK N   1      34.881  16.054   7.157  0.00  0.00     0.183 C 
HETATM    7  C   UNK N   1      33.691  16.834   6.592  0.00  0.00     0.204 C 
BRANCH   4   8
HETATM    8  C   UNK N   1      33.018  14.679  10.220  0.00  0.00     0.198 C 
BRANCH   8   9
HETATM    9  O   UNK N   1      33.756  14.854  11.391  0.00  0.00    -0.398 OA
HETATM   10  H   UNK N   1      33.521  14.379  12.203  0.00  0.00     0.209 HD
ENDBRANCH   8   9
ENDBRANCH   4   8
BRANCH   5  11
HETATM   11  O   UNK N   1      35.513  14.419   8.786  0.00  0.00    -0.390 OA
HETATM   12  H   UNK N   1      36.181  14.800   9.376  0.00  0.00     0.210 HD
ENDBRANCH   5  11
BRANCH   6  13
HETATM   13  O   UNK N   1      35.604  15.463   6.121  0.00  0.00    -0.390 OA
HETATM   14  H   UNK N   1      35.321  15.555   5.198  0.00  0.00     0.210 HD
ENDBRANCH   6  13
BRANCH   7  15
HETATM   15  O   UNK N   1      34.153  17.932   5.860  0.00  0.00    -0.388 OA
HETATM   16  H   UNK N   1      33.629  18.710   5.615  0.00  0.00     0.210 HD
ENDBRANCH   7  15
ENDBRANCH   1   2
BRANCH   1  17
HETATM   17  C   UNK N   1      30.563  17.133   7.472  0.00  0.00     0.187 C 
HETATM   18  C   UNK N   1      29.658  17.832   8.498  0.00  0.00     0.183 C 
HETATM   19  C   UNK N   1      28.263  17.208   8.564  0.00  0.00     0.204 C 
HETATM   20  C   UNK N   1      27.737  17.090   7.136  0.00  0.00     0.288 C 
HETATM   21  O   UNK N   1      28.580  16.227   6.423  0.00  0.00    -0.349 OA
HETATM   22  C   UNK N   1      29.761  16.946   6.163  0.00  0.00     0.180 C 
BRANCH  18  23
HETATM   23  O   UNK N   1      30.253  17.825   9.760  0.00  0.00    -0.390 OA
HETATM   24  H   UNK N   1      30.788  17.094  10.104  0.00  0.00     0.210 HD
ENDBRANCH  18  23
BRANCH  19  25
HETATM   25  O   UNK N   1      27.423  18.028   9.318  0.00  0.00    -0.388 OA
HETATM   26  H   UNK N   1      27.669  18.426  10.167  0.00  0.00     0.210 HD
ENDBRANCH  19  25
BRANCH  20  27
HETATM   27  O   UNK N   1      26.442  16.569   7.140  0.00  0.00    -0.369 OA
HETATM   28  H   UNK N   1      25.741  16.863   7.743  0.00  0.00     0.212 HD
ENDBRANCH  20  27
BRANCH  22  29
HETATM   29  C   UNK N   1      30.567  16.181   5.128  0.00  0.00     0.198 C 
BRANCH  29  30
HETATM   30  O   UNK N   1      31.348  17.064   4.381  0.00  0.00    -0.398 OA
HETATM   31  H   UNK N   1      32.307  16.958   4.285  0.00  0.00     0.209 HD
ENDBRANCH  29  30
ENDBRANCH  22  29
ENDBRANCH   1  17
TORSDOF 12
ENDMDL
MODEL 5
REMARK VINA RESULT:      -5.9      6.860     10.252
REMARK  12 active torsions:
REMARK  status: ('A' for Active; 'I' for Inactive)
REMARK    1  A    between atoms: C_2  and  O_16 
REMARK    2  A    between atoms: C_3  and  O_19 
REMARK    3  A    between atoms: C_4  and  O_20 
REMARK    4  A    between atoms: C_5  and  C_22 
REMARK    5  A    between atoms: C_6  and  O_21 
REMARK    6  A    between atoms: C_7  and  O_13 
REMARK    7  A    between atoms: C_8  and  O_14 
REMARK    8  A    between atoms: C_10  and  O_15 
REMARK    9  A    between atoms: C_11  and  C_17 
REMARK   10  A    between atoms: C_12  and  O_16 
REMARK   11  A    between atoms: O_18  and  C_17 
REMARK   12  A    between atoms: C_22  and  O_23 
ROOT
HETATM    1  O   UNK N   1      23.560  18.940   4.456  0.00  0.00    -0.348 OA
ENDROOT
BRANCH   1   2
HETATM    2  C   UNK N   1      22.597  18.605   3.498  0.00  0.00     0.292 C 
HETATM    3  O   UNK N   1      21.628  17.785   4.112  0.00  0.00    -0.348 OA
HETATM    4  C   UNK N   1      20.805  17.275   3.095  0.00  0.00     0.179 C 
HETATM    5  C   UNK N   1      19.906  18.406   2.584  0.00  0.00     0.180 C 
HETATM    6  C   UNK N   1      20.811  19.488   1.991  0.00  0.00     0.183 C 
HETATM    7  C   UNK N   1      21.910  19.878   2.982  0.00  0.00     0.204 C 
BRANCH   4   8
HETATM    8  C   UNK N   1      19.976  16.128   3.650  0.00  0.00     0.198 C 
BRANCH   8   9
HETATM    9  O   UNK N   1      18.814  16.625   4.241  0.00  0.00    -0.398 OA
HETATM   10  H   UNK N   1      18.531  17.540   4.090  0.00  0.00     0.209 HD
ENDBRANCH   8   9
ENDBRANCH   4   8
BRANCH   5  11
HETATM   11  O   UNK N   1      19.035  17.933   1.601  0.00  0.00    -0.390 OA
HETATM   12  H   UNK N   1      19.197  17.561   0.720  0.00  0.00     0.210 HD
ENDBRANCH   5  11
BRANCH   6  13
HETATM   13  O   UNK N   1      20.055  20.608   1.645  0.00  0.00    -0.390 OA
HETATM   14  H   UNK N   1      19.132  20.695   1.930  0.00  0.00     0.210 HD
ENDBRANCH   6  13
BRANCH   7  15
HETATM   15  O   UNK N   1      22.841  20.706   2.350  0.00  0.00    -0.388 OA
HETATM   16  H   UNK N   1      22.946  20.814   1.392  0.00  0.00     0.210 HD
ENDBRANCH   7  15
ENDBRANCH   1   2
BRANCH   1  17
HETATM   17  C   UNK N   1      24.767  18.326   4.082  0.00  0.00     0.187 C 
HETATM   18  C   UNK N   1      25.821  19.430   3.921  0.00  0.00     0.183 C 
HETATM   19  C   UNK N   1      27.244  18.873   3.859  0.00  0.00     0.204 C 
HETATM   20  C   UNK N   1      27.418  17.907   5.028  0.00  0.00     0.288 C 
HETATM   21  O   UNK N   1      26.514  16.848   4.867  0.00  0.00    -0.349 OA
HETATM   22  C   UNK N   1      25.242  17.355   5.188  0.00  0.00     0.180 C 
BRANCH  18  23
HETATM   23  O   UNK N   1      25.553  20.203   2.791  0.00  0.00    -0.390 OA
HETATM   24  H   UNK N   1      26.062  20.988   2.538  0.00  0.00     0.210 HD
ENDBRANCH  18  23
BRANCH  19  25
HETATM   25  O   UNK N   1      28.159  19.921   3.963  0.00  0.00    -0.388 OA
HETATM   26  H   UNK N   1      27.947  20.794   4.327  0.00  0.00     0.210 HD
ENDBRANCH  19  25
BRANCH  20  27
HETATM   27  O   UNK N   1      28.720  17.403   5.048  0.00  0.00    -0.369 OA
HETATM   28  H   UNK N   1      29.481  17.850   4.646  0.00  0.00     0.212 HD
ENDBRANCH  20  27
BRANCH  22  29
HETATM   29  C   UNK N   1      24.287  16.185   5.344  0.00  0.00     0.198 C 
BRANCH  29  30
HETATM   30  O   UNK N   1      23.265  16.516   6.233  0.00  0.00    -0.398 OA
HETATM   31  H   UNK N   1      22.965  17.428   6.368  0.00  0.00     0.209 HD
ENDBRANCH  29  30
ENDBRANCH  22  29
ENDBRANCH   1  17
TORSDOF 12
ENDMDL
MODEL 6
REMARK VINA RESULT:      -5.9     11.417     13.440
REMARK  12 active torsions:
REMARK  status: ('A' for Active; 'I' for Inactive)
REMARK    1  A    between atoms: C_2  and  O_16 
REMARK    2  A    between atoms: C_3  and  O_19 
REMARK    3  A    between atoms: C_4  and  O_20 
REMARK    4  A    between atoms: C_5  and  C_22 
REMARK    5  A    between atoms: C_6  and  O_21 
REMARK    6  A    between atoms: C_7  and  O_13 
REMARK    7  A    between atoms: C_8  and  O_14 
REMARK    8  A    between atoms: C_10  and  O_15 
REMARK    9  A    between atoms: C_11  and  C_17 
REMARK   10  A    between atoms: C_12  and  O_16 
REMARK   11  A    between atoms: O_18  and  C_17 
REMARK   12  A    between atoms: C_22  and  O_23 
ROOT
HETATM    1  O   UNK N   1      19.470  17.159   3.749  0.00  0.00    -0.348 OA
ENDROOT
BRANCH   1   2
HETATM    2  C   UNK N   1      19.784  15.832   3.435  0.00  0.00     0.292 C 
HETATM    3  O   UNK N   1      21.064  15.806   2.846  0.00  0.00    -0.348 OA
HETATM    4  C   UNK N   1      21.265  14.514   2.333  0.00  0.00     0.179 C 
HETATM    5  C   UNK N   1      21.498  13.557   3.506  0.00  0.00     0.180 C 
HETATM    6  C   UNK N   1      20.231  13.557   4.365  0.00  0.00     0.183 C 
HETATM    7  C   UNK N   1      19.815  14.987   4.717  0.00  0.00     0.204 C 
BRANCH   4   8
HETATM    8  C   UNK N   1      22.461  14.529   1.394  0.00  0.00     0.198 C 
BRANCH   8   9
HETATM    9  O   UNK N   1      22.317  13.530   0.429  0.00  0.00    -0.398 OA
HETATM   10  H   UNK N   1      21.463  13.094   0.288  0.00  0.00     0.209 HD
ENDBRANCH   8   9
ENDBRANCH   4   8
BRANCH   5  11
HETATM   11  O   UNK N   1      21.749  12.264   3.041  0.00  0.00    -0.390 OA
HETATM   12  H   UNK N   1      21.213  11.654   2.512  0.00  0.00     0.210 HD
ENDBRANCH   5  11
BRANCH   6  13
HETATM   13  O   UNK N   1      20.442  12.816   5.529  0.00  0.00    -0.390 OA
HETATM   14  H   UNK N   1      20.233  13.186   6.401  0.00  0.00     0.210 HD
ENDBRANCH   6  13
BRANCH   7  15
HETATM   15  O   UNK N   1      18.554  14.975   5.319  0.00  0.00    -0.388 OA
HETATM   16  H   UNK N   1      17.722  14.730   4.885  0.00  0.00     0.210 HD
ENDBRANCH   7  15
ENDBRANCH   1   2
BRANCH   1  17
HETATM   17  C   UNK N   1      20.512  17.969   3.267  0.00  0.00     0.187 C 
HETATM   18  C   UNK N   1      19.969  18.763   2.070  0.00  0.00     0.183 C 
HETATM   19  C   UNK N   1      20.883  19.924   1.677  0.00  0.00     0.204 C 
HETATM   20  C   UNK N   1      21.210  20.709   2.944  0.00  0.00     0.288 C 
HETATM   21  O   UNK N   1      21.907  19.866   3.821  0.00  0.00    -0.349 OA
HETATM   22  C   UNK N   1      20.960  18.973   4.354  0.00  0.00     0.180 C 
BRANCH  18  23
HETATM   23  O   UNK N   1      19.758  17.920   0.978  0.00  0.00    -0.390 OA
HETATM   24  H   UNK N   1      20.210  17.072   0.853  0.00  0.00     0.210 HD
ENDBRANCH  18  23
BRANCH  19  25
HETATM   25  O   UNK N   1      20.225  20.745   0.761  0.00  0.00    -0.388 OA
HETATM   26  H   UNK N   1      20.221  20.598  -0.197  0.00  0.00     0.210 HD
ENDBRANCH  19  25
BRANCH  20  27
HETATM   27  O   UNK N   1      22.006  21.813   2.637  0.00  0.00    -0.369 OA
HETATM   28  H   UNK N   1      21.839  22.711   2.965  0.00  0.00     0.212 HD
ENDBRANCH  20  27
BRANCH  22  29
HETATM   29  C   UNK N   1      21.590  18.260   5.538  0.00  0.00     0.198 C 
BRANCH  29  30
HETATM   30  O   UNK N   1      21.091  18.780   6.732  0.00  0.00    -0.398 OA
HETATM   31  H   UNK N   1      20.777  18.216   7.456  0.00  0.00     0.209 HD
ENDBRANCH  29  30
ENDBRANCH  22  29
ENDBRANCH   1  17
TORSDOF 12
ENDMDL
MODEL 7
REMARK VINA RESULT:      -5.9      7.999     12.325
REMARK  12 active torsions:
REMARK  status: ('A' for Active; 'I' for Inactive)
REMARK    1  A    between atoms: C_2  and  O_16 
REMARK    2  A    between atoms: C_3  and  O_19 
REMARK    3  A    between atoms: C_4  and  O_20 
REMARK    4  A    between atoms: C_5  and  C_22 
REMARK    5  A    between atoms: C_6  and  O_21 
REMARK    6  A    between atoms: C_7  and  O_13 
REMARK    7  A    between atoms: C_8  and  O_14 
REMARK    8  A    between atoms: C_10  and  O_15 
REMARK    9  A    between atoms: C_11  and  C_17 
REMARK   10  A    between atoms: C_12  and  O_16 
REMARK   11  A    between atoms: O_18  and  C_17 
REMARK   12  A    between atoms: C_22  and  O_23 
ROOT
HETATM    1  O   UNK N   1      21.146  17.116   5.733  0.00  0.00    -0.348 OA
ENDROOT
BRANCH   1   2
HETATM    2  C   UNK N   1      21.689  15.839   5.916  0.00  0.00     0.292 C 
HETATM    3  O   UNK N   1      22.951  15.978   6.529  0.00  0.00    -0.348 OA
HETATM    4  C   UNK N   1      23.575  14.720   6.496  0.00  0.00     0.179 C 
HETATM    5  C   UNK N   1      22.886  13.809   7.517  0.00  0.00     0.180 C 
HETATM    6  C   UNK N   1      21.426  13.648   7.086  0.00  0.00     0.183 C 
HETATM    7  C   UNK N   1      20.781  15.013   6.839  0.00  0.00     0.204 C 
BRANCH   4   8
HETATM    8  C   UNK N   1      25.051  14.885   6.819  0.00  0.00     0.198 C 
BRANCH   8   9
HETATM    9  O   UNK N   1      25.462  16.182   6.507  0.00  0.00    -0.398 OA
HETATM   10  H   UNK N   1      26.046  16.351   5.751  0.00  0.00     0.209 HD
ENDBRANCH   8   9
ENDBRANCH   4   8
BRANCH   5  11
HETATM   11  O   UNK N   1      23.505  12.557   7.552  0.00  0.00    -0.390 OA
HETATM   12  H   UNK N   1      23.651  11.891   6.863  0.00  0.00     0.210 HD
ENDBRANCH   5  11
BRANCH   6  13
HETATM   13  O   UNK N   1      20.714  12.948   8.061  0.00  0.00    -0.390 OA
HETATM   14  H   UNK N   1      20.463  12.021   7.927  0.00  0.00     0.210 HD
ENDBRANCH   6  13
BRANCH   7  15
HETATM   15  O   UNK N   1      19.525  14.840   6.251  0.00  0.00    -0.388 OA
HETATM   16  H   UNK N   1      19.309  14.204   5.552  0.00  0.00     0.210 HD
ENDBRANCH   7  15
ENDBRANCH   1   2
BRANCH   1  17
HETATM   17  C   UNK N   1      21.113  17.373   4.353  0.00  0.00     0.187 C 
HETATM   18  C   UNK N   1      19.655  17.657   3.966  0.00  0.00     0.183 C 
HETATM   19  C   UNK N   1      19.532  18.286   2.578  0.00  0.00     0.204 C 
HETATM   20  C   UNK N   1      20.512  19.454   2.507  0.00  0.00     0.288 C 
HETATM   21  O   UNK N   1      21.812  18.951   2.658  0.00  0.00    -0.349 OA
HETATM   22  C   UNK N   1      21.959  18.623   4.018  0.00  0.00     0.180 C 
BRANCH  18  23
HETATM   23  O   UNK N   1      18.892  16.491   4.039  0.00  0.00    -0.390 OA
HETATM   24  H   UNK N   1      19.264  15.596   3.999  0.00  0.00     0.210 HD
ENDBRANCH  18  23
BRANCH  19  25
HETATM   25  O   UNK N   1      18.227  18.745   2.389  0.00  0.00    -0.388 OA
HETATM   26  H   UNK N   1      18.001  19.654   2.138  0.00  0.00     0.210 HD
ENDBRANCH  19  25
BRANCH  20  27
HETATM   27  O   UNK N   1      20.408  20.098   1.273  0.00  0.00    -0.369 OA
HETATM   28  H   UNK N   1      19.693  19.940   0.638  0.00  0.00     0.212 HD
ENDBRANCH  20  27
BRANCH  22  29
HETATM   29  C   UNK N   1      23.433  18.383   4.295  0.00  0.00     0.198 C 
BRANCH  29  30
HETATM   30  O   UNK N   1      23.699  18.551   5.654  0.00  0.00    -0.398 OA
HETATM   31  H   UNK N   1      24.245  17.929   6.159  0.00  0.00     0.209 HD
ENDBRANCH  29  30
ENDBRANCH  22  29
ENDBRANCH   1  17
TORSDOF 12
ENDMDL
MODEL 8
REMARK VINA RESULT:      -5.9      2.562      6.061
REMARK  12 active torsions:
REMARK  status: ('A' for Active; 'I' for Inactive)
REMARK    1  A    between atoms: C_2  and  O_16 
REMARK    2  A    between atoms: C_3  and  O_19 
REMARK    3  A    between atoms: C_4  and  O_20 
REMARK    4  A    between atoms: C_5  and  C_22 
REMARK    5  A    between atoms: C_6  and  O_21 
REMARK    6  A    between atoms: C_7  and  O_13 
REMARK    7  A    between atoms: C_8  and  O_14 
REMARK    8  A    between atoms: C_10  and  O_15 
REMARK    9  A    between atoms: C_11  and  C_17 
REMARK   10  A    between atoms: C_12  and  O_16 
REMARK   11  A    between atoms: O_18  and  C_17 
REMARK   12  A    between atoms: C_22  and  O_23 
ROOT
HETATM    1  O   UNK N   1      31.782  17.464   6.317  0.00  0.00    -0.348 OA
ENDROOT
BRANCH   1   2
HETATM    2  C   UNK N   1      32.445  16.280   5.977  0.00  0.00     0.292 C 
HETATM    3  O   UNK N   1      32.221  16.023   4.609  0.00  0.00    -0.348 OA
HETATM    4  C   UNK N   1      32.694  14.729   4.341  0.00  0.00     0.179 C 
HETATM    5  C   UNK N   1      34.226  14.758   4.354  0.00  0.00     0.180 C 
HETATM    6  C   UNK N   1      34.670  15.166   5.761  0.00  0.00     0.183 C 
HETATM    7  C   UNK N   1      33.955  16.443   6.207  0.00  0.00     0.204 C 
BRANCH   4   8
HETATM    8  C   UNK N   1      32.168  14.274   2.989  0.00  0.00     0.198 C 
BRANCH   8   9
HETATM    9  O   UNK N   1      32.098  12.880   2.952  0.00  0.00    -0.398 OA
HETATM   10  H   UNK N   1      31.455  12.399   3.496  0.00  0.00     0.209 HD
ENDBRANCH   8   9
ENDBRANCH   4   8
BRANCH   5  11
HETATM   11  O   UNK N   1      34.742  13.498   4.046  0.00  0.00    -0.390 OA
HETATM   12  H   UNK N   1      35.150  13.147   3.239  0.00  0.00     0.210 HD
ENDBRANCH   5  11
BRANCH   6  13
HETATM   13  O   UNK N   1      36.053  15.353   5.790  0.00  0.00    -0.390 OA
HETATM   14  H   UNK N   1      36.572  15.118   6.574  0.00  0.00     0.210 HD
ENDBRANCH   6  13
BRANCH   7  15
HETATM   15  O   UNK N   1      34.214  16.680   7.560  0.00  0.00    -0.388 OA
HETATM   16  H   UNK N   1      34.342  17.550   7.968  0.00  0.00     0.210 HD
ENDBRANCH   7  15
ENDBRANCH   1   2
BRANCH   1  17
HETATM   17  C   UNK N   1      30.695  17.124   7.138  0.00  0.00     0.187 C 
HETATM   18  C   UNK N   1      30.911  17.799   8.500  0.00  0.00     0.183 C 
HETATM   19  C   UNK N   1      29.645  17.797   9.359  0.00  0.00     0.204 C 
HETATM   20  C   UNK N   1      28.496  18.315   8.499  0.00  0.00     0.288 C 
HETATM   21  O   UNK N   1      28.312  17.431   7.427  0.00  0.00    -0.349 OA
HETATM   22  C   UNK N   1      29.375  17.658   6.533  0.00  0.00     0.180 C 
BRANCH  18  23
HETATM   23  O   UNK N   1      31.963  17.193   9.186  0.00  0.00    -0.390 OA
HETATM   24  H   UNK N   1      32.370  16.353   8.923  0.00  0.00     0.210 HD
ENDBRANCH  18  23
BRANCH  19  25
HETATM   25  O   UNK N   1      29.831  18.631  10.463  0.00  0.00    -0.388 OA
HETATM   26  H   UNK N   1      30.663  19.083  10.669  0.00  0.00     0.210 HD
ENDBRANCH  19  25
BRANCH  20  27
HETATM   27  O   UNK N   1      27.321  18.380   9.249  0.00  0.00    -0.369 OA
HETATM   28  H   UNK N   1      26.475  18.002   8.964  0.00  0.00     0.212 HD
ENDBRANCH  20  27
BRANCH  22  29
HETATM   29  C   UNK N   1      29.051  16.968   5.220  0.00  0.00     0.198 C 
BRANCH  29  30
HETATM   30  O   UNK N   1      29.711  17.604   4.169  0.00  0.00    -0.398 OA
HETATM   31  H   UNK N   1      30.519  18.124   4.299  0.00  0.00     0.209 HD
ENDBRANCH  29  30
ENDBRANCH  22  29
ENDBRANCH   1  17
TORSDOF 12
ENDMDL
MODEL 9
REMARK VINA RESULT:      -5.8     10.949     13.584
REMARK  12 active torsions:
REMARK  status: ('A' for Active; 'I' for Inactive)
REMARK    1  A    between atoms: C_2  and  O_16 
REMARK    2  A    between atoms: C_3  and  O_19 
REMARK    3  A    between atoms: C_4  and  O_20 
REMARK    4  A    between atoms: C_5  and  C_22 
REMARK    5  A    between atoms: C_6  and  O_21 
REMARK    6  A    between atoms: C_7  and  O_13 
REMARK    7  A    between atoms: C_8  and  O_14 
REMARK    8  A    between atoms: C_10  and  O_15 
REMARK    9  A    between atoms: C_11  and  C_17 
REMARK   10  A    between atoms: C_12  and  O_16 
REMARK   11  A    between atoms: O_18  and  C_17 
REMARK   12  A    between atoms: C_22  and  O_23 
ROOT
HETATM    1  O   UNK N   1      19.954  16.821   2.631  0.00  0.00    -0.348 OA
ENDROOT
BRANCH   1   2
HETATM    2  C   UNK N   1      20.471  15.653   2.060  0.00  0.00     0.292 C 
HETATM    3  O   UNK N   1      20.970  14.837   3.096  0.00  0.00    -0.348 OA
HETATM    4  C   UNK N   1      21.684  13.787   2.496  0.00  0.00     0.179 C 
HETATM    5  C   UNK N   1      20.682  12.819   1.859  0.00  0.00     0.180 C 
HETATM    6  C   UNK N   1      19.923  13.584   0.773  0.00  0.00     0.183 C 
HETATM    7  C   UNK N   1      19.356  14.893   1.328  0.00  0.00     0.204 C 
BRANCH   4   8
HETATM    8  C   UNK N   1      22.524  13.086   3.552  0.00  0.00     0.198 C 
BRANCH   8   9
HETATM    9  O   UNK N   1      22.642  13.899   4.680  0.00  0.00    -0.398 OA
HETATM   10  H   UNK N   1      21.966  13.888   5.375  0.00  0.00     0.209 HD
ENDBRANCH   8   9
ENDBRANCH   4   8
BRANCH   5  11
HETATM   11  O   UNK N   1      21.346  11.731   1.289  0.00  0.00    -0.390 OA
HETATM   12  H   UNK N   1      21.727  11.599   0.407  0.00  0.00     0.210 HD
ENDBRANCH   5  11
BRANCH   6  13
HETATM   13  O   UNK N   1      18.893  12.793   0.260  0.00  0.00    -0.390 OA
HETATM   14  H   UNK N   1      18.625  12.863  -0.669  0.00  0.00     0.210 HD
ENDBRANCH   6  13
BRANCH   7  15
HETATM   15  O   UNK N   1      18.851  15.669   0.280  0.00  0.00    -0.388 OA
HETATM   16  H   UNK N   1      18.030  16.184   0.301  0.00  0.00     0.210 HD
ENDBRANCH   7  15
ENDBRANCH   1   2
BRANCH   1  17
HETATM   17  C   UNK N   1      20.892  17.847   2.431  0.00  0.00     0.187 C 
HETATM   18  C   UNK N   1      20.313  18.810   1.384  0.00  0.00     0.183 C 
HETATM   19  C   UNK N   1      21.070  20.138   1.333  0.00  0.00     0.204 C 
HETATM   20  C   UNK N   1      21.198  20.657   2.762  0.00  0.00     0.288 C 
HETATM   21  O   UNK N   1      21.956  19.738   3.501  0.00  0.00    -0.349 OA
HETATM   22  C   UNK N   1      21.120  18.633   3.743  0.00  0.00     0.180 C 
BRANCH  18  23
HETATM   23  O   UNK N   1      20.297  18.212   0.124  0.00  0.00    -0.390 OA
HETATM   24  H   UNK N   1      20.164  17.263  -0.024  0.00  0.00     0.210 HD
ENDBRANCH  18  23
BRANCH  19  25
HETATM   25  O   UNK N   1      20.355  21.050   0.555  0.00  0.00    -0.388 OA
HETATM   26  H   UNK N   1      20.128  20.909  -0.377  0.00  0.00     0.210 HD
ENDBRANCH  19  25
BRANCH  20  27
HETATM   27  O   UNK N   1      21.841  21.896   2.771  0.00  0.00    -0.369 OA
HETATM   28  H   UNK N   1      22.389  22.217   3.504  0.00  0.00     0.212 HD
ENDBRANCH  20  27
BRANCH  22  29
HETATM   29  C   UNK N   1      21.774  17.762   4.801  0.00  0.00     0.198 C 
BRANCH  29  30
HETATM   30  O   UNK N   1      22.705  16.907   4.210  0.00  0.00    -0.398 OA
HETATM   31  H   UNK N   1      22.588  16.545   3.317  0.00  0.00     0.209 HD
ENDBRANCH  29  30
ENDBRANCH  22  29
ENDBRANCH   1  17
TORSDOF 12
ENDMDL
