MODEL 1
REMARK VINA RESULT:      -4.5      0.000      0.000
REMARK  9 active torsions:
REMARK  status: ('A' for Active; 'I' for Inactive)
REMARK    1  A    between atoms: C_4  and  C_2 
REMARK    2  A    between atoms: O_7  and  C_2 
REMARK    3  A    between atoms: C_5  and  C_3 
REMARK    4  A    between atoms: C_3  and  O_8 
REMARK    5  A    between atoms: C_6  and  C_4 
REMARK    6  A    between atoms: C_4  and  O_9 
REMARK    7  A    between atoms: C_6  and  C_5 
REMARK    8  A    between atoms: C_5  and  O_10 
REMARK    9  A    between atoms: C_6  and  O_11 
ROOT
HETATM    1  C   UNK N   1      35.504  15.060  11.965  0.00  0.00     0.180 C 
ENDROOT
BRANCH   1   2
HETATM    2  C   UNK N   1      34.545  14.922  10.755  0.00  0.00     0.173 C 
BRANCH   2   3
HETATM    3  C   UNK N   1      34.737  16.038   9.731  0.00  0.00     0.198 C 
BRANCH   3   4
HETATM    4  O   UNK N   1      34.819  17.285  10.351  0.00  0.00    -0.398 OA
HETATM    5  H   UNK N   1      35.650  17.785  10.338  0.00  0.00     0.209 HD
ENDBRANCH   3   4
ENDBRANCH   2   3
BRANCH   2   6
HETATM    6  O   UNK N   1      33.219  14.979  11.185  0.00  0.00    -0.391 OA
HETATM    7  H   UNK N   1      32.544  14.431  10.754  0.00  0.00     0.210 HD
ENDBRANCH   2   6
ENDBRANCH   1   2
BRANCH   1   8
HETATM    8  C   UNK N   1      35.664  13.725  12.745  0.00  0.00     0.177 C 
BRANCH   8   9
HETATM    9  C   UNK N   1      36.134  13.932  14.199  0.00  0.00     0.145 C 
HETATM   10  C   UNK N   1      36.895  12.711  14.691  0.00  0.00     0.042 C 
BRANCH   9  11
HETATM   11  O   UNK N   1      36.973  15.042  14.301  0.00  0.00    -0.393 OA
HETATM   12  H   UNK N   1      37.736  15.023  14.901  0.00  0.00     0.210 HD
ENDBRANCH   9  11
ENDBRANCH   8   9
BRANCH   8  13
HETATM   13  O   UNK N   1      34.440  13.048  12.774  0.00  0.00    -0.390 OA
HETATM   14  H   UNK N   1      33.750  13.256  12.126  0.00  0.00     0.210 HD
ENDBRANCH   8  13
ENDBRANCH   1   8
BRANCH   1  15
HETATM   15  O   UNK N   1      36.756  15.486  11.511  0.00  0.00    -0.390 OA
HETATM   16  H   UNK N   1      36.827  16.040  10.719  0.00  0.00     0.210 HD
ENDBRANCH   1  15
TORSDOF 9
ENDMDL
MODEL 2
REMARK VINA RESULT:      -4.4      2.141      4.030
REMARK  9 active torsions:
REMARK  status: ('A' for Active; 'I' for Inactive)
REMARK    1  A    between atoms: C_4  and  C_2 
REMARK    2  A    between atoms: O_7  and  C_2 
REMARK    3  A    between atoms: C_5  and  C_3 
REMARK    4  A    between atoms: C_3  and  O_8 
REMARK    5  A    between atoms: C_6  and  C_4 
REMARK    6  A    between atoms: C_4  and  O_9 
REMARK    7  A    between atoms: C_6  and  C_5 
REMARK    8  A    between atoms: C_5  and  O_10 
REMARK    9  A    between atoms: C_6  and  O_11 
ROOT
HETATM    1  C   UNK N   1      35.046  16.606   8.924  0.00  0.00     0.180 C 
ENDROOT
BRANCH   1   2
HETATM    2  C   UNK N   1      34.315  17.944   8.643  0.00  0.00     0.173 C 
BRANCH   2   3
HETATM    3  C   UNK N   1      33.504  17.903   7.350  0.00  0.00     0.198 C 
BRANCH   3   4
HETATM    4  O   UNK N   1      34.335  17.772   6.237  0.00  0.00    -0.398 OA
HETATM    5  H   UNK N   1      35.202  17.346   6.320  0.00  0.00     0.209 HD
ENDBRANCH   3   4
ENDBRANCH   2   3
BRANCH   2   6
HETATM    6  O   UNK N   1      35.242  18.979   8.518  0.00  0.00    -0.391 OA
HETATM    7  H   UNK N   1      35.256  19.701   9.166  0.00  0.00     0.210 HD
ENDBRANCH   2   6
ENDBRANCH   1   2
BRANCH   1   8
HETATM    8  C   UNK N   1      35.217  16.337  10.445  0.00  0.00     0.177 C 
BRANCH   8   9
HETATM    9  C   UNK N   1      34.652  14.969  10.880  0.00  0.00     0.145 C 
HETATM   10  C   UNK N   1      35.342  14.487  12.146  0.00  0.00     0.042 C 
BRANCH   9  11
HETATM   11  O   UNK N   1      33.282  15.050  11.131  0.00  0.00    -0.393 OA
HETATM   12  H   UNK N   1      32.694  15.479  10.489  0.00  0.00     0.210 HD
ENDBRANCH   9  11
ENDBRANCH   8   9
BRANCH   8  13
HETATM   13  O   UNK N   1      36.575  16.373  10.779  0.00  0.00    -0.390 OA
HETATM   14  H   UNK N   1      37.134  17.105  10.477  0.00  0.00     0.210 HD
ENDBRANCH   8  13
ENDBRANCH   1   8
BRANCH   1  15
HETATM   15  O   UNK N   1      34.321  15.558   8.346  0.00  0.00    -0.390 OA
HETATM   16  H   UNK N   1      34.203  15.517   7.385  0.00  0.00     0.210 HD
ENDBRANCH   1  15
TORSDOF 9
ENDMDL
MODEL 3
REMARK VINA RESULT:      -4.4      1.686      2.797
REMARK  9 active torsions:
REMARK  status: ('A' for Active; 'I' for Inactive)
REMARK    1  A    between atoms: C_4  and  C_2 
REMARK    2  A    between atoms: O_7  and  C_2 
REMARK    3  A    between atoms: C_5  and  C_3 
REMARK    4  A    between atoms: C_3  and  O_8 
REMARK    5  A    between atoms: C_6  and  C_4 
REMARK    6  A    between atoms: C_4  and  O_9 
REMARK    7  A    between atoms: C_6  and  C_5 
REMARK    8  A    between atoms: C_5  and  O_10 
REMARK    9  A    between atoms: C_6  and  O_11 
ROOT
HETATM    1  C   UNK N   1      34.732  16.790  10.137  0.00  0.00     0.180 C 
ENDROOT
BRANCH   1   2
HETATM    2  C   UNK N   1      34.586  16.862   8.595  0.00  0.00     0.173 C 
BRANCH   2   3
HETATM    3  C   UNK N   1      34.285  18.277   8.105  0.00  0.00     0.198 C 
BRANCH   3   4
HETATM    4  O   UNK N   1      35.281  19.171   8.500  0.00  0.00    -0.398 OA
HETATM    5  H   UNK N   1      35.637  19.141   9.401  0.00  0.00     0.209 HD
ENDBRANCH   3   4
ENDBRANCH   2   3
BRANCH   2   6
HETATM    6  O   UNK N   1      33.536  16.046   8.174  0.00  0.00    -0.391 OA
HETATM    7  H   UNK N   1      33.299  16.005   7.234  0.00  0.00     0.210 HD
ENDBRANCH   2   6
ENDBRANCH   1   2
BRANCH   1   8
HETATM    8  C   UNK N   1      34.680  15.329  10.665  0.00  0.00     0.177 C 
BRANCH   8   9
HETATM    9  C   UNK N   1      35.691  15.065  11.801  0.00  0.00     0.145 C 
HETATM   10  C   UNK N   1      35.320  13.801  12.559  0.00  0.00     0.042 C 
BRANCH   9  11
HETATM   11  O   UNK N   1      36.982  14.910  11.296  0.00  0.00    -0.393 OA
HETATM   12  H   UNK N   1      37.325  15.533  10.635  0.00  0.00     0.210 HD
ENDBRANCH   9  11
ENDBRANCH   8   9
BRANCH   8  13
HETATM   13  O   UNK N   1      33.398  15.048  11.148  0.00  0.00    -0.390 OA
HETATM   14  H   UNK N   1      32.861  14.353  10.738  0.00  0.00     0.210 HD
ENDBRANCH   8  13
ENDBRANCH   1   8
BRANCH   1  15
HETATM   15  O   UNK N   1      35.946  17.375  10.510  0.00  0.00    -0.390 OA
HETATM   16  H   UNK N   1      36.383  17.112  11.335  0.00  0.00     0.210 HD
ENDBRANCH   1  15
TORSDOF 9
ENDMDL
MODEL 4
REMARK VINA RESULT:      -4.4      1.324      2.421
REMARK  9 active torsions:
REMARK  status: ('A' for Active; 'I' for Inactive)
REMARK    1  A    between atoms: C_4  and  C_2 
REMARK    2  A    between atoms: O_7  and  C_2 
REMARK    3  A    between atoms: C_5  and  C_3 
REMARK    4  A    between atoms: C_3  and  O_8 
REMARK    5  A    between atoms: C_6  and  C_4 
REMARK    6  A    between atoms: C_4  and  O_9 
REMARK    7  A    between atoms: C_6  and  C_5 
REMARK    8  A    between atoms: C_5  and  O_10 
REMARK    9  A    between atoms: C_6  and  O_11 
ROOT
HETATM    1  C   UNK N   1      35.076  14.741  11.324  0.00  0.00     0.180 C 
ENDROOT
BRANCH   1   2
HETATM    2  C   UNK N   1      35.640  16.134  10.942  0.00  0.00     0.173 C 
BRANCH   2   3
HETATM    3  C   UNK N   1      35.078  16.646   9.618  0.00  0.00     0.198 C 
BRANCH   3   4
HETATM    4  O   UNK N   1      33.820  17.225   9.793  0.00  0.00    -0.398 OA
HETATM    5  H   UNK N   1      33.253  17.405   9.028  0.00  0.00     0.209 HD
ENDBRANCH   3   4
ENDBRANCH   2   3
BRANCH   2   6
HETATM    6  O   UNK N   1      37.027  16.069  10.804  0.00  0.00    -0.391 OA
HETATM    7  H   UNK N   1      37.460  15.217  10.634  0.00  0.00     0.210 HD
ENDBRANCH   2   6
ENDBRANCH   1   2
BRANCH   1   8
HETATM    8  C   UNK N   1      35.663  14.217  12.664  0.00  0.00     0.177 C 
BRANCH   8   9
HETATM    9  C   UNK N   1      36.600  13.006  12.476  0.00  0.00     0.145 C 
HETATM   10  C   UNK N   1      35.889  11.896  11.719  0.00  0.00     0.042 C 
BRANCH   9  11
HETATM   11  O   UNK N   1      37.743  13.364  11.760  0.00  0.00    -0.393 OA
HETATM   12  H   UNK N   1      38.517  13.718  12.225  0.00  0.00     0.210 HD
ENDBRANCH   9  11
ENDBRANCH   8   9
BRANCH   8  13
HETATM   13  O   UNK N   1      36.387  15.235  13.292  0.00  0.00    -0.390 OA
HETATM   14  H   UNK N   1      37.122  15.669  12.831  0.00  0.00     0.210 HD
ENDBRANCH   8  13
ENDBRANCH   1   8
BRANCH   1  15
HETATM   15  O   UNK N   1      33.684  14.823  11.427  0.00  0.00    -0.390 OA
HETATM   16  H   UNK N   1      33.241  15.685  11.391  0.00  0.00     0.210 HD
ENDBRANCH   1  15
TORSDOF 9
ENDMDL
MODEL 5
REMARK VINA RESULT:      -4.3     14.092     16.361
REMARK  9 active torsions:
REMARK  status: ('A' for Active; 'I' for Inactive)
REMARK    1  A    between atoms: C_4  and  C_2 
REMARK    2  A    between atoms: O_7  and  C_2 
REMARK    3  A    between atoms: C_5  and  C_3 
REMARK    4  A    between atoms: C_3  and  O_8 
REMARK    5  A    between atoms: C_6  and  C_4 
REMARK    6  A    between atoms: C_4  and  O_9 
REMARK    7  A    between atoms: C_6  and  C_5 
REMARK    8  A    between atoms: C_5  and  O_10 
REMARK    9  A    between atoms: C_6  and  O_11 
ROOT
HETATM    1  C   UNK N   1      22.606  19.516   3.186  0.00  0.00     0.180 C 
ENDROOT
BRANCH   1   2
HETATM    2  C   UNK N   1      21.434  20.449   2.788  0.00  0.00     0.173 C 
BRANCH   2   3
HETATM    3  C   UNK N   1      20.892  20.140   1.394  0.00  0.00     0.198 C 
BRANCH   3   4
HETATM    4  O   UNK N   1      21.618  20.812   0.409  0.00  0.00    -0.398 OA
HETATM    5  H   UNK N   1      22.286  21.471   0.657  0.00  0.00     0.209 HD
ENDBRANCH   3   4
ENDBRANCH   2   3
BRANCH   2   6
HETATM    6  O   UNK N   1      21.859  21.778   2.780  0.00  0.00    -0.391 OA
HETATM    7  H   UNK N   1      21.271  22.475   2.449  0.00  0.00     0.210 HD
ENDBRANCH   2   6
ENDBRANCH   1   2
BRANCH   1   8
HETATM    8  C   UNK N   1      23.948  20.287   3.332  0.00  0.00     0.177 C 
BRANCH   8   9
HETATM    9  C   UNK N   1      25.098  19.397   3.847  0.00  0.00     0.145 C 
HETATM   10  C   UNK N   1      26.441  20.052   3.570  0.00  0.00     0.042 C 
BRANCH   9  11
HETATM   11  O   UNK N   1      24.989  19.183   5.221  0.00  0.00    -0.393 OA
HETATM   12  H   UNK N   1      25.633  18.620   5.679  0.00  0.00     0.210 HD
ENDBRANCH   9  11
ENDBRANCH   8   9
BRANCH   8  13
HETATM   13  O   UNK N   1      24.325  20.813   2.092  0.00  0.00    -0.390 OA
HETATM   14  H   UNK N   1      24.926  20.319   1.513  0.00  0.00     0.210 HD
ENDBRANCH   8  13
ENDBRANCH   1   8
BRANCH   1  15
HETATM   15  O   UNK N   1      22.299  18.886   4.396  0.00  0.00    -0.390 OA
HETATM   16  H   UNK N   1      21.979  17.971   4.403  0.00  0.00     0.210 HD
ENDBRANCH   1  15
TORSDOF 9
ENDMDL
MODEL 6
REMARK VINA RESULT:      -4.2      1.546      4.891
REMARK  9 active torsions:
REMARK  status: ('A' for Active; 'I' for Inactive)
REMARK    1  A    between atoms: C_4  and  C_2 
REMARK    2  A    between atoms: O_7  and  C_2 
REMARK    3  A    between atoms: C_5  and  C_3 
REMARK    4  A    between atoms: C_3  and  O_8 
REMARK    5  A    between atoms: C_6  and  C_4 
REMARK    6  A    between atoms: C_4  and  O_9 
REMARK    7  A    between atoms: C_6  and  C_5 
REMARK    8  A    between atoms: C_5  and  O_10 
REMARK    9  A    between atoms: C_6  and  O_11 
ROOT
HETATM    1  C   UNK N   1      34.570  15.747  10.702  0.00  0.00     0.180 C 
ENDROOT
BRANCH   1   2
HETATM    2  C   UNK N   1      35.907  15.132  11.188  0.00  0.00     0.173 C 
BRANCH   2   3
HETATM    3  C   UNK N   1      35.925  14.900  12.698  0.00  0.00     0.198 C 
BRANCH   3   4
HETATM    4  O   UNK N   1      35.105  13.829  13.054  0.00  0.00    -0.398 OA
HETATM    5  H   UNK N   1      35.258  12.948  12.678  0.00  0.00     0.209 HD
ENDBRANCH   3   4
ENDBRANCH   2   3
BRANCH   2   6
HETATM    6  O   UNK N   1      36.967  15.989  10.889  0.00  0.00    -0.391 OA
HETATM    7  H   UNK N   1      36.981  16.469  10.046  0.00  0.00     0.210 HD
ENDBRANCH   2   6
ENDBRANCH   1   2
BRANCH   1   8
HETATM    8  C   UNK N   1      34.473  15.792   9.151  0.00  0.00     0.177 C 
BRANCH   8   9
HETATM    9  C   UNK N   1      34.562  17.224   8.586  0.00  0.00     0.145 C 
HETATM   10  C   UNK N   1      33.172  17.801   8.377  0.00  0.00     0.042 C 
BRANCH   9  11
HETATM   11  O   UNK N   1      35.259  18.064   9.456  0.00  0.00    -0.393 OA
HETATM   12  H   UNK N   1      35.944  18.659   9.114  0.00  0.00     0.210 HD
ENDBRANCH   9  11
ENDBRANCH   8   9
BRANCH   8  13
HETATM   13  O   UNK N   1      35.510  15.037   8.593  0.00  0.00    -0.390 OA
HETATM   14  H   UNK N   1      35.641  14.114   8.858  0.00  0.00     0.210 HD
ENDBRANCH   8  13
ENDBRANCH   1   8
BRANCH   1  15
HETATM   15  O   UNK N   1      33.507  14.994  11.212  0.00  0.00    -0.390 OA
HETATM   16  H   UNK N   1      33.399  14.065  10.957  0.00  0.00     0.210 HD
ENDBRANCH   1  15
TORSDOF 9
ENDMDL
MODEL 7
REMARK VINA RESULT:      -4.2     16.507     18.313
REMARK  9 active torsions:
REMARK  status: ('A' for Active; 'I' for Inactive)
REMARK    1  A    between atoms: C_4  and  C_2 
REMARK    2  A    between atoms: O_7  and  C_2 
REMARK    3  A    between atoms: C_5  and  C_3 
REMARK    4  A    between atoms: C_3  and  O_8 
REMARK    5  A    between atoms: C_6  and  C_4 
REMARK    6  A    between atoms: C_4  and  O_9 
REMARK    7  A    between atoms: C_6  and  C_5 
REMARK    8  A    between atoms: C_5  and  O_10 
REMARK    9  A    between atoms: C_6  and  O_11 
ROOT
HETATM    1  C   UNK N   1      19.824  18.612   2.432  0.00  0.00     0.180 C 
ENDROOT
BRANCH   1   2
HETATM    2  C   UNK N   1      20.182  20.118   2.350  0.00  0.00     0.173 C 
BRANCH   2   3
HETATM    3  C   UNK N   1      21.189  20.417   1.241  0.00  0.00     0.198 C 
BRANCH   3   4
HETATM    4  O   UNK N   1      20.553  20.562   0.008  0.00  0.00    -0.398 OA
HETATM    5  H   UNK N   1      19.653  20.920  -0.041  0.00  0.00     0.209 HD
ENDBRANCH   3   4
ENDBRANCH   2   3
BRANCH   2   6
HETATM    6  O   UNK N   1      20.752  20.542   3.551  0.00  0.00    -0.391 OA
HETATM    7  H   UNK N   1      21.310  19.937   4.065  0.00  0.00     0.210 HD
ENDBRANCH   2   6
ENDBRANCH   1   2
BRANCH   1   8
HETATM    8  C   UNK N   1      20.442  17.928   3.684  0.00  0.00     0.177 C 
BRANCH   8   9
HETATM    9  C   UNK N   1      19.950  16.479   3.880  0.00  0.00     0.145 C 
HETATM   10  C   UNK N   1      20.925  15.700   4.747  0.00  0.00     0.042 C 
BRANCH   9  11
HETATM   11  O   UNK N   1      18.698  16.455   4.496  0.00  0.00    -0.393 OA
HETATM   12  H   UNK N   1      18.204  15.622   4.561  0.00  0.00     0.210 HD
ENDBRANCH   9  11
ENDBRANCH   8   9
BRANCH   8  13
HETATM   13  O   UNK N   1      21.835  17.903   3.567  0.00  0.00    -0.390 OA
HETATM   14  H   UNK N   1      22.358  18.692   3.776  0.00  0.00     0.210 HD
ENDBRANCH   8  13
ENDBRANCH   1   8
BRANCH   1  15
HETATM   15  O   UNK N   1      18.433  18.473   2.466  0.00  0.00    -0.390 OA
HETATM   16  H   UNK N   1      17.939  18.301   1.650  0.00  0.00     0.210 HD
ENDBRANCH   1  15
TORSDOF 9
ENDMDL
MODEL 8
REMARK VINA RESULT:      -4.2      1.537      2.775
REMARK  9 active torsions:
REMARK  status: ('A' for Active; 'I' for Inactive)
REMARK    1  A    between atoms: C_4  and  C_2 
REMARK    2  A    between atoms: O_7  and  C_2 
REMARK    3  A    between atoms: C_5  and  C_3 
REMARK    4  A    between atoms: C_3  and  O_8 
REMARK    5  A    between atoms: C_6  and  C_4 
REMARK    6  A    between atoms: C_4  and  O_9 
REMARK    7  A    between atoms: C_6  and  C_5 
REMARK    8  A    between atoms: C_5  and  O_10 
REMARK    9  A    between atoms: C_6  and  O_11 
ROOT
HETATM    1  C   UNK N   1      34.710  15.582  10.387  0.00  0.00     0.180 C 
ENDROOT
BRANCH   1   2
HETATM    2  C   UNK N   1      34.427  16.848   9.539  0.00  0.00     0.173 C 
BRANCH   2   3
HETATM    3  C   UNK N   1      34.527  16.578   8.039  0.00  0.00     0.198 C 
BRANCH   3   4
HETATM    4  O   UNK N   1      34.647  17.767   7.319  0.00  0.00    -0.398 OA
HETATM    5  H   UNK N   1      35.378  18.378   7.501  0.00  0.00     0.209 HD
ENDBRANCH   3   4
ENDBRANCH   2   3
BRANCH   2   6
HETATM    6  O   UNK N   1      35.356  17.845   9.842  0.00  0.00    -0.391 OA
HETATM    7  H   UNK N   1      35.055  18.747  10.034  0.00  0.00     0.210 HD
ENDBRANCH   2   6
ENDBRANCH   1   2
BRANCH   1   8
HETATM    8  C   UNK N   1      35.813  15.823  11.455  0.00  0.00     0.177 C 
BRANCH   8   9
HETATM    9  C   UNK N   1      35.931  14.665  12.468  0.00  0.00     0.145 C 
HETATM   10  C   UNK N   1      36.722  13.513  11.869  0.00  0.00     0.042 C 
BRANCH   9  11
HETATM   11  O   UNK N   1      36.577  15.082  13.632  0.00  0.00    -0.393 OA
HETATM   12  H   UNK N   1      37.534  15.240  13.628  0.00  0.00     0.210 HD
ENDBRANCH   9  11
ENDBRANCH   8   9
BRANCH   8  13
HETATM   13  O   UNK N   1      37.052  15.978  10.825  0.00  0.00    -0.390 OA
HETATM   14  H   UNK N   1      37.100  16.110   9.865  0.00  0.00     0.210 HD
ENDBRANCH   8  13
ENDBRANCH   1   8
BRANCH   1  15
HETATM   15  O   UNK N   1      33.529  15.182  11.022  0.00  0.00    -0.390 OA
HETATM   16  H   UNK N   1      33.422  15.304  11.977  0.00  0.00     0.210 HD
ENDBRANCH   1  15
TORSDOF 9
ENDMDL
MODEL 9
REMARK VINA RESULT:      -4.2     17.562     18.931
REMARK  9 active torsions:
REMARK  status: ('A' for Active; 'I' for Inactive)
REMARK    1  A    between atoms: C_4  and  C_2 
REMARK    2  A    between atoms: O_7  and  C_2 
REMARK    3  A    between atoms: C_5  and  C_3 
REMARK    4  A    between atoms: C_3  and  O_8 
REMARK    5  A    between atoms: C_6  and  C_4 
REMARK    6  A    between atoms: C_4  and  O_9 
REMARK    7  A    between atoms: C_6  and  C_5 
REMARK    8  A    between atoms: C_5  and  O_10 
REMARK    9  A    between atoms: C_6  and  O_11 
ROOT
HETATM    1  C   UNK N   1      20.466  17.476   2.278  0.00  0.00     0.180 C 
ENDROOT
BRANCH   1   2
HETATM    2  C   UNK N   1      19.817  16.921   0.985  0.00  0.00     0.173 C 
BRANCH   2   3
HETATM    3  C   UNK N   1      20.156  15.450   0.751  0.00  0.00     0.198 C 
BRANCH   3   4
HETATM    4  O   UNK N   1      21.536  15.248   0.722  0.00  0.00    -0.398 OA
HETATM    5  H   UNK N   1      22.116  15.887   0.279  0.00  0.00     0.209 HD
ENDBRANCH   3   4
ENDBRANCH   2   3
BRANCH   2   6
HETATM    6  O   UNK N   1      20.274  17.632  -0.125  0.00  0.00    -0.391 OA
HETATM    7  H   UNK N   1      20.609  17.157  -0.902  0.00  0.00     0.210 HD
ENDBRANCH   2   6
ENDBRANCH   1   2
BRANCH   1   8
HETATM    8  C   UNK N   1      19.683  18.689   2.855  0.00  0.00     0.177 C 
BRANCH   8   9
HETATM    9  C   UNK N   1      20.358  20.041   2.547  0.00  0.00     0.145 C 
HETATM   10  C   UNK N   1      21.836  19.989   2.899  0.00  0.00     0.042 C 
BRANCH   9  11
HETATM   11  O   UNK N   1      20.240  20.364   1.195  0.00  0.00    -0.393 OA
HETATM   12  H   UNK N   1      20.446  21.261   0.888  0.00  0.00     0.210 HD
ENDBRANCH   9  11
ENDBRANCH   8   9
BRANCH   8  13
HETATM   13  O   UNK N   1      18.392  18.714   2.317  0.00  0.00    -0.390 OA
HETATM   14  H   UNK N   1      18.025  17.926   1.889  0.00  0.00     0.210 HD
ENDBRANCH   8  13
ENDBRANCH   1   8
BRANCH   1  15
HETATM   15  O   UNK N   1      20.520  16.460   3.237  0.00  0.00    -0.390 OA
HETATM   16  H   UNK N   1      19.947  15.682   3.159  0.00  0.00     0.210 HD
ENDBRANCH   1  15
TORSDOF 9
ENDMDL
