MODEL 1
REMARK VINA RESULT:      -5.8      0.000      0.000
REMARK  7 active torsions:
REMARK  status: ('A' for Active; 'I' for Inactive)
REMARK    1  A    between atoms: C_3  and  C_4 
REMARK    2  A    between atoms: C_4  and  C_5 
REMARK    3  A    between atoms: C_5  and  C_6 
REMARK    4  A    between atoms: C_6  and  O_7 
REMARK    5  A    between atoms: C_8  and  C_9 
REMARK    6  A    between atoms: C_9  and  O_10 
REMARK    7  A    between atoms: C_16  and  N_17 
ROOT
HETATM    1  C   UNK N   1      33.719  14.085   5.740  0.00  0.00     0.156 C 
HETATM    2  N   UNK N   1      33.965  15.099   6.759  0.00  0.00    -0.350 N 
HETATM    3  C   UNK N   1      33.906  16.449   6.624  0.00  0.00     0.021 A 
HETATM    4  C   UNK N   1      34.201  17.056   7.841  0.00  0.00     0.005 A 
HETATM    5  C   UNK N   1      34.435  16.016   8.746  0.00  0.00     0.057 A 
HETATM    6  C   UNK N   1      34.285  14.845   8.043  0.00  0.00     0.100 A 
HETATM    7  C   UNK N   1      34.454  13.532   8.691  0.00  0.00     0.201 A 
HETATM    8  O   UNK N   1      34.348  12.491   8.061  0.00  0.00    -0.286 OA
HETATM    9  C   UNK N   1      34.727  13.499  10.147  0.00  0.00     0.085 A 
HETATM   10  C   UNK N   1      34.876  14.639  10.866  0.00  0.00     0.066 A 
HETATM   11  C   UNK N   1      34.760  15.974  10.193  0.00  0.00     0.206 A 
HETATM   12  O   UNK N   1      34.905  16.998  10.839  0.00  0.00    -0.285 OA
ENDROOT
BRANCH   3  13
HETATM   13  C   UNK N   1      33.563  17.233   5.380  0.00  0.00     0.060 C 
BRANCH  13  14
HETATM   14  C   UNK N   1      32.085  17.378   5.082  0.00  0.00     0.032 C 
BRANCH  14  15
HETATM   15  C   UNK N   1      31.739  16.605   3.831  0.00  0.00     0.164 C 
BRANCH  15  16
HETATM   16  O   UNK N   1      31.843  17.450   2.728  0.00  0.00    -0.401 OA
HETATM   17  H   UNK N   1      31.686  17.103   1.835  0.00  0.00     0.209 HD
ENDBRANCH  15  16
ENDBRANCH  14  15
ENDBRANCH  13  14
ENDBRANCH   3  13
BRANCH   4  18
HETATM   18  C   UNK N   1      34.214  18.553   8.023  0.00  0.00     0.206 C 
BRANCH  18  19
HETATM   19  O   UNK N   1      35.390  19.043   8.576  0.00  0.00    -0.396 OA
HETATM   20  H   UNK N   1      35.837  18.549   9.282  0.00  0.00     0.209 HD
ENDBRANCH  18  19
ENDBRANCH   4  18
BRANCH  10  21
HETATM   21  N   UNK N   1      35.062  14.552  12.273  0.00  0.00    -0.278 NA
HETATM   22  C   UNK N   1      35.161  13.352  12.975  0.00  0.00     0.110 A 
HETATM   23  C   UNK N   1      36.304  14.519  12.907  0.00  0.00     0.110 A 
ENDBRANCH  10  21
TORSDOF 7
ENDMDL
MODEL 2
REMARK VINA RESULT:      -5.5     13.495     17.051
REMARK  7 active torsions:
REMARK  status: ('A' for Active; 'I' for Inactive)
REMARK    1  A    between atoms: C_3  and  C_4 
REMARK    2  A    between atoms: C_4  and  C_5 
REMARK    3  A    between atoms: C_5  and  C_6 
REMARK    4  A    between atoms: C_6  and  O_7 
REMARK    5  A    between atoms: C_8  and  C_9 
REMARK    6  A    between atoms: C_9  and  O_10 
REMARK    7  A    between atoms: C_16  and  N_17 
ROOT
HETATM    1  C   UNK N   1      30.571  23.102  -7.156  0.00  0.00     0.156 C 
HETATM    2  N   UNK N   1      29.911  23.211  -5.861  0.00  0.00    -0.350 N 
HETATM    3  C   UNK N   1      30.221  22.561  -4.709  0.00  0.00     0.021 A 
HETATM    4  C   UNK N   1      29.350  22.955  -3.698  0.00  0.00     0.005 A 
HETATM    5  C   UNK N   1      28.488  23.893  -4.274  0.00  0.00     0.057 A 
HETATM    6  C   UNK N   1      28.863  24.013  -5.590  0.00  0.00     0.100 A 
HETATM    7  C   UNK N   1      28.168  24.935  -6.507  0.00  0.00     0.201 A 
HETATM    8  O   UNK N   1      28.483  25.021  -7.684  0.00  0.00    -0.286 OA
HETATM    9  C   UNK N   1      27.086  25.785  -5.958  0.00  0.00     0.085 A 
HETATM   10  C   UNK N   1      26.698  25.690  -4.664  0.00  0.00     0.066 A 
HETATM   11  C   UNK N   1      27.369  24.712  -3.746  0.00  0.00     0.206 A 
HETATM   12  O   UNK N   1      27.011  24.621  -2.584  0.00  0.00    -0.285 OA
ENDROOT
BRANCH   3  13
HETATM   13  C   UNK N   1      31.336  21.566  -4.488  0.00  0.00     0.060 C 
BRANCH  13  14
HETATM   14  C   UNK N   1      32.672  22.156  -4.087  0.00  0.00     0.032 C 
BRANCH  14  15
HETATM   15  C   UNK N   1      33.400  21.195  -3.177  0.00  0.00     0.164 C 
BRANCH  15  16
HETATM   16  O   UNK N   1      32.742  21.138  -1.950  0.00  0.00    -0.401 OA
HETATM   17  H   UNK N   1      31.774  21.104  -1.921  0.00  0.00     0.209 HD
ENDBRANCH  15  16
ENDBRANCH  14  15
ENDBRANCH  13  14
ENDBRANCH   3  13
BRANCH   4  18
HETATM   18  C   UNK N   1      29.436  22.416  -2.292  0.00  0.00     0.206 C 
BRANCH  18  19
HETATM   19  O   UNK N   1      30.394  23.044  -1.506  0.00  0.00    -0.396 OA
HETATM   20  H   UNK N   1      30.644  22.664  -0.648  0.00  0.00     0.209 HD
ENDBRANCH  18  19
ENDBRANCH   4  18
BRANCH  10  21
HETATM   21  N   UNK N   1      25.706  26.582  -4.169  0.00  0.00    -0.278 NA
HETATM   22  C   UNK N   1      25.991  27.780  -3.516  0.00  0.00     0.110 A 
HETATM   23  C   UNK N   1      25.141  27.624  -4.903  0.00  0.00     0.110 A 
ENDBRANCH  10  21
TORSDOF 7
ENDMDL
MODEL 3
REMARK VINA RESULT:      -5.4      9.730     12.870
REMARK  7 active torsions:
REMARK  status: ('A' for Active; 'I' for Inactive)
REMARK    1  A    between atoms: C_3  and  C_4 
REMARK    2  A    between atoms: C_4  and  C_5 
REMARK    3  A    between atoms: C_5  and  C_6 
REMARK    4  A    between atoms: C_6  and  O_7 
REMARK    5  A    between atoms: C_8  and  C_9 
REMARK    6  A    between atoms: C_9  and  O_10 
REMARK    7  A    between atoms: C_16  and  N_17 
ROOT
HETATM    1  C   UNK N   1      21.816  15.915   4.352  0.00  0.00     0.156 C 
HETATM    2  N   UNK N   1      22.071  17.264   3.861  0.00  0.00    -0.350 N 
HETATM    3  C   UNK N   1      21.247  18.056   3.127  0.00  0.00     0.021 A 
HETATM    4  C   UNK N   1      21.868  19.274   2.873  0.00  0.00     0.005 A 
HETATM    5  C   UNK N   1      23.119  19.208   3.496  0.00  0.00     0.057 A 
HETATM    6  C   UNK N   1      23.200  17.967   4.079  0.00  0.00     0.100 A 
HETATM    7  C   UNK N   1      24.393  17.551   4.838  0.00  0.00     0.201 A 
HETATM    8  O   UNK N   1      24.478  16.438   5.333  0.00  0.00    -0.286 OA
HETATM    9  C   UNK N   1      25.488  18.534   5.016  0.00  0.00     0.085 A 
HETATM   10  C   UNK N   1      25.432  19.766   4.455  0.00  0.00     0.066 A 
HETATM   11  C   UNK N   1      24.242  20.167   3.635  0.00  0.00     0.206 A 
HETATM   12  O   UNK N   1      24.199  21.273   3.123  0.00  0.00    -0.285 OA
ENDROOT
BRANCH   3  13
HETATM   13  C   UNK N   1      19.853  17.730   2.645  0.00  0.00     0.060 C 
BRANCH  13  14
HETATM   14  C   UNK N   1      19.752  17.231   1.218  0.00  0.00     0.032 C 
BRANCH  14  15
HETATM   15  C   UNK N   1      19.976  15.737   1.184  0.00  0.00     0.164 C 
BRANCH  15  16
HETATM   16  O   UNK N   1      21.253  15.476   0.692  0.00  0.00    -0.401 OA
HETATM   17  H   UNK N   1      21.513  15.808  -0.181  0.00  0.00     0.209 HD
ENDBRANCH  15  16
ENDBRANCH  14  15
ENDBRANCH  13  14
ENDBRANCH   3  13
BRANCH   4  18
HETATM   18  C   UNK N   1      21.208  20.377   2.083  0.00  0.00     0.206 C 
BRANCH  18  19
HETATM   19  O   UNK N   1      21.331  21.634   2.661  0.00  0.00    -0.396 OA
HETATM   20  H   UNK N   1      21.803  22.340   2.192  0.00  0.00     0.209 HD
ENDBRANCH  18  19
ENDBRANCH   4  18
BRANCH  10  21
HETATM   21  N   UNK N   1      26.475  20.697   4.719  0.00  0.00    -0.278 NA
HETATM   22  C   UNK N   1      26.690  21.297   5.958  0.00  0.00     0.110 A 
HETATM   23  C   UNK N   1      27.754  20.351   5.156  0.00  0.00     0.110 A 
ENDBRANCH  10  21
TORSDOF 7
ENDMDL
MODEL 4
REMARK VINA RESULT:      -5.4      4.088      8.113
REMARK  7 active torsions:
REMARK  status: ('A' for Active; 'I' for Inactive)
REMARK    1  A    between atoms: C_3  and  C_4 
REMARK    2  A    between atoms: C_4  and  C_5 
REMARK    3  A    between atoms: C_5  and  C_6 
REMARK    4  A    between atoms: C_6  and  O_7 
REMARK    5  A    between atoms: C_8  and  C_9 
REMARK    6  A    between atoms: C_9  and  O_10 
REMARK    7  A    between atoms: C_16  and  N_17 
ROOT
HETATM    1  C   UNK N   1      30.795  17.741   8.780  0.00  0.00     0.156 C 
HETATM    2  N   UNK N   1      30.681  17.478   7.351  0.00  0.00    -0.350 N 
HETATM    3  C   UNK N   1      31.649  17.046   6.501  0.00  0.00     0.021 A 
HETATM    4  C   UNK N   1      31.125  16.912   5.220  0.00  0.00     0.005 A 
HETATM    5  C   UNK N   1      29.776  17.270   5.314  0.00  0.00     0.057 A 
HETATM    6  C   UNK N   1      29.553  17.611   6.626  0.00  0.00     0.100 A 
HETATM    7  C   UNK N   1      28.221  18.037   7.093  0.00  0.00     0.201 A 
HETATM    8  O   UNK N   1      28.029  18.367   8.253  0.00  0.00    -0.286 OA
HETATM    9  C   UNK N   1      27.102  18.028   6.123  0.00  0.00     0.085 A 
HETATM   10  C   UNK N   1      27.293  17.693   4.824  0.00  0.00     0.066 A 
HETATM   11  C   UNK N   1      28.660  17.314   4.337  0.00  0.00     0.206 A 
HETATM   12  O   UNK N   1      28.832  17.023   3.166  0.00  0.00    -0.285 OA
ENDROOT
BRANCH   3  13
HETATM   13  C   UNK N   1      33.087  16.726   6.836  0.00  0.00     0.060 C 
BRANCH  13  14
HETATM   14  C   UNK N   1      34.015  17.917   6.953  0.00  0.00     0.032 C 
BRANCH  14  15
HETATM   15  C   UNK N   1      34.586  17.982   8.350  0.00  0.00     0.164 C 
BRANCH  15  16
HETATM   16  O   UNK N   1      35.273  19.184   8.509  0.00  0.00    -0.401 OA
HETATM   17  H   UNK N   1      35.925  19.461   7.847  0.00  0.00     0.209 HD
ENDBRANCH  15  16
ENDBRANCH  14  15
ENDBRANCH  13  14
ENDBRANCH   3  13
BRANCH   4  18
HETATM   18  C   UNK N   1      31.949  16.443   4.046  0.00  0.00     0.206 C 
BRANCH  18  19
HETATM   19  O   UNK N   1      31.862  17.270   2.932  0.00  0.00    -0.396 OA
HETATM   20  H   UNK N   1      32.594  17.304   2.296  0.00  0.00     0.209 HD
ENDBRANCH  18  19
ENDBRANCH   4  18
BRANCH  10  21
HETATM   21  N   UNK N   1      26.171  17.628   3.952  0.00  0.00    -0.278 NA
HETATM   22  C   UNK N   1      24.846  17.627   4.384  0.00  0.00     0.110 A 
HETATM   23  C   UNK N   1      25.532  18.737   3.399  0.00  0.00     0.110 A 
ENDBRANCH  10  21
TORSDOF 7
ENDMDL
MODEL 5
REMARK VINA RESULT:      -5.4      4.133      7.456
REMARK  7 active torsions:
REMARK  status: ('A' for Active; 'I' for Inactive)
REMARK    1  A    between atoms: C_3  and  C_4 
REMARK    2  A    between atoms: C_4  and  C_5 
REMARK    3  A    between atoms: C_5  and  C_6 
REMARK    4  A    between atoms: C_6  and  O_7 
REMARK    5  A    between atoms: C_8  and  C_9 
REMARK    6  A    between atoms: C_9  and  O_10 
REMARK    7  A    between atoms: C_16  and  N_17 
ROOT
HETATM    1  C   UNK N   1      31.176  15.256   3.876  0.00  0.00     0.156 C 
HETATM    2  N   UNK N   1      30.763  15.949   5.090  0.00  0.00    -0.350 N 
HETATM    3  C   UNK N   1      31.322  15.873   6.326  0.00  0.00     0.021 A 
HETATM    4  C   UNK N   1      30.632  16.700   7.206  0.00  0.00     0.005 A 
HETATM    5  C   UNK N   1      29.620  17.307   6.454  0.00  0.00     0.057 A 
HETATM    6  C   UNK N   1      29.736  16.817   5.176  0.00  0.00     0.100 A 
HETATM    7  C   UNK N   1      28.826  17.252   4.100  0.00  0.00     0.201 A 
HETATM    8  O   UNK N   1      28.911  16.796   2.971  0.00  0.00    -0.286 OA
HETATM    9  C   UNK N   1      27.814  18.287   4.415  0.00  0.00     0.085 A 
HETATM   10  C   UNK N   1      27.681  18.791   5.666  0.00  0.00     0.066 A 
HETATM   11  C   UNK N   1      28.570  18.306   6.772  0.00  0.00     0.206 A 
HETATM   12  O   UNK N   1      28.441  18.753   7.899  0.00  0.00    -0.285 OA
ENDROOT
BRANCH   3  13
HETATM   13  C   UNK N   1      32.518  15.051   6.743  0.00  0.00     0.060 C 
BRANCH  13  14
HETATM   14  C   UNK N   1      33.860  15.545   6.244  0.00  0.00     0.032 C 
BRANCH  14  15
HETATM   15  C   UNK N   1      34.409  16.579   7.199  0.00  0.00     0.164 C 
BRANCH  15  16
HETATM   16  O   UNK N   1      34.446  17.818   6.561  0.00  0.00    -0.401 OA
HETATM   17  H   UNK N   1      33.958  18.569   6.933  0.00  0.00     0.209 HD
ENDBRANCH  15  16
ENDBRANCH  14  15
ENDBRANCH  13  14
ENDBRANCH   3  13
BRANCH   4  18
HETATM   18  C   UNK N   1      31.011  16.843   8.659  0.00  0.00     0.206 C 
BRANCH  18  19
HETATM   19  O   UNK N   1      31.190  18.159   9.068  0.00  0.00    -0.396 OA
HETATM   20  H   UNK N   1      31.418  18.842   8.417  0.00  0.00     0.209 HD
ENDBRANCH  18  19
ENDBRANCH   4  18
BRANCH  10  21
HETATM   21  N   UNK N   1      26.745  19.837   5.897  0.00  0.00    -0.278 NA
HETATM   22  C   UNK N   1      27.059  21.193   5.832  0.00  0.00     0.110 A 
HETATM   23  C   UNK N   1      25.951  20.422   4.910  0.00  0.00     0.110 A 
ENDBRANCH  10  21
TORSDOF 7
ENDMDL
MODEL 6
REMARK VINA RESULT:      -5.3      4.293      5.658
REMARK  7 active torsions:
REMARK  status: ('A' for Active; 'I' for Inactive)
REMARK    1  A    between atoms: C_3  and  C_4 
REMARK    2  A    between atoms: C_4  and  C_5 
REMARK    3  A    between atoms: C_5  and  C_6 
REMARK    4  A    between atoms: C_6  and  O_7 
REMARK    5  A    between atoms: C_8  and  C_9 
REMARK    6  A    between atoms: C_9  and  O_10 
REMARK    7  A    between atoms: C_16  and  N_17 
ROOT
HETATM    1  C   UNK N   1      28.936  16.852   3.675  0.00  0.00     0.156 C 
HETATM    2  N   UNK N   1      29.058  17.269   5.066  0.00  0.00    -0.350 N 
HETATM    3  C   UNK N   1      28.173  17.991   5.802  0.00  0.00     0.021 A 
HETATM    4  C   UNK N   1      28.666  18.165   7.091  0.00  0.00     0.005 A 
HETATM    5  C   UNK N   1      29.898  17.504   7.128  0.00  0.00     0.057 A 
HETATM    6  C   UNK N   1      30.097  16.978   5.874  0.00  0.00     0.100 A 
HETATM    7  C   UNK N   1      31.306  16.200   5.550  0.00  0.00     0.201 A 
HETATM    8  O   UNK N   1      31.497  15.757   4.428  0.00  0.00    -0.286 OA
HETATM    9  C   UNK N   1      32.282  15.938   6.633  0.00  0.00     0.085 A 
HETATM   10  C   UNK N   1      32.109  16.440   7.879  0.00  0.00     0.066 A 
HETATM   11  C   UNK N   1      30.906  17.280   8.193  0.00  0.00     0.206 A 
HETATM   12  O   UNK N   1      30.758  17.740   9.312  0.00  0.00    -0.285 OA
ENDROOT
BRANCH   3  13
HETATM   13  C   UNK N   1      26.838  18.535   5.355  0.00  0.00     0.060 C 
BRANCH  13  14
HETATM   14  C   UNK N   1      26.880  19.862   4.624  0.00  0.00     0.032 C 
BRANCH  14  15
HETATM   15  C   UNK N   1      26.311  20.948   5.508  0.00  0.00     0.164 C 
BRANCH  15  16
HETATM   16  O   UNK N   1      27.358  21.676   6.069  0.00  0.00    -0.401 OA
HETATM   17  H   UNK N   1      27.689  21.448   6.951  0.00  0.00     0.209 HD
ENDBRANCH  15  16
ENDBRANCH  14  15
ENDBRANCH  13  14
ENDBRANCH   3  13
BRANCH   4  18
HETATM   18  C   UNK N   1      27.913  18.922   8.157  0.00  0.00     0.206 C 
BRANCH  18  19
HETATM   19  O   UNK N   1      27.615  18.164   9.283  0.00  0.00    -0.396 OA
HETATM   20  H   UNK N   1      26.722  18.188   9.662  0.00  0.00     0.209 HD
ENDBRANCH  18  19
ENDBRANCH   4  18
BRANCH  10  21
HETATM   21  N   UNK N   1      33.037  16.096   8.902  0.00  0.00    -0.278 NA
HETATM   22  C   UNK N   1      33.082  14.852   9.528  0.00  0.00     0.110 A 
HETATM   23  C   UNK N   1      34.295  15.539   8.675  0.00  0.00     0.110 A 
ENDBRANCH  10  21
TORSDOF 7
ENDMDL
MODEL 7
REMARK VINA RESULT:      -5.2      2.798      4.412
REMARK  7 active torsions:
REMARK  status: ('A' for Active; 'I' for Inactive)
REMARK    1  A    between atoms: C_3  and  C_4 
REMARK    2  A    between atoms: C_4  and  C_5 
REMARK    3  A    between atoms: C_5  and  C_6 
REMARK    4  A    between atoms: C_6  and  O_7 
REMARK    5  A    between atoms: C_8  and  C_9 
REMARK    6  A    between atoms: C_9  and  O_10 
REMARK    7  A    between atoms: C_16  and  N_17 
ROOT
HETATM    1  C   UNK N   1      33.960  11.616   9.555  0.00  0.00     0.156 C 
HETATM    2  N   UNK N   1      34.599  12.655  10.354  0.00  0.00    -0.350 N 
HETATM    3  C   UNK N   1      34.975  13.900   9.960  0.00  0.00     0.021 A 
HETATM    4  C   UNK N   1      35.540  14.582  11.032  0.00  0.00     0.005 A 
HETATM    5  C   UNK N   1      35.488  13.705  12.120  0.00  0.00     0.057 A 
HETATM    6  C   UNK N   1      34.913  12.545  11.660  0.00  0.00     0.100 A 
HETATM    7  C   UNK N   1      34.690  11.392  12.551  0.00  0.00     0.201 A 
HETATM    8  O   UNK N   1      34.205  10.351  12.136  0.00  0.00    -0.286 OA
HETATM    9  C   UNK N   1      35.045  11.533  13.982  0.00  0.00     0.085 A 
HETATM   10  C   UNK N   1      35.610  12.667  14.463  0.00  0.00     0.066 A 
HETATM   11  C   UNK N   1      35.888  13.819  13.544  0.00  0.00     0.206 A 
HETATM   12  O   UNK N   1      36.406  14.834  13.977  0.00  0.00    -0.285 OA
ENDROOT
BRANCH   3  13
HETATM   13  C   UNK N   1      34.815  14.515   8.590  0.00  0.00     0.060 C 
BRANCH  13  14
HETATM   14  C   UNK N   1      33.423  15.006   8.249  0.00  0.00     0.032 C 
BRANCH  14  15
HETATM   15  C   UNK N   1      33.449  16.502   8.037  0.00  0.00     0.164 C 
BRANCH  15  16
HETATM   16  O   UNK N   1      33.054  17.138   9.211  0.00  0.00    -0.401 OA
HETATM   17  H   UNK N   1      33.602  17.070  10.008  0.00  0.00     0.209 HD
ENDBRANCH  15  16
ENDBRANCH  14  15
ENDBRANCH  13  14
ENDBRANCH   3  13
BRANCH   4  18
HETATM   18  C   UNK N   1      36.055  15.996  10.918  0.00  0.00     0.206 C 
BRANCH  18  19
HETATM   19  O   UNK N   1      35.089  16.967  11.153  0.00  0.00    -0.396 OA
HETATM   20  H   UNK N   1      34.252  16.948  10.661  0.00  0.00     0.209 HD
ENDBRANCH  18  19
ENDBRANCH   4  18
BRANCH  10  21
HETATM   21  N   UNK N   1      35.862  12.779  15.859  0.00  0.00    -0.278 NA
HETATM   22  C   UNK N   1      34.930  13.245  16.785  0.00  0.00     0.110 A 
HETATM   23  C   UNK N   1      35.628  11.767  16.790  0.00  0.00     0.110 A 
ENDBRANCH  10  21
TORSDOF 7
ENDMDL
MODEL 8
REMARK VINA RESULT:      -5.2      2.168      6.115
REMARK  7 active torsions:
REMARK  status: ('A' for Active; 'I' for Inactive)
REMARK    1  A    between atoms: C_3  and  C_4 
REMARK    2  A    between atoms: C_4  and  C_5 
REMARK    3  A    between atoms: C_5  and  C_6 
REMARK    4  A    between atoms: C_6  and  O_7 
REMARK    5  A    between atoms: C_8  and  C_9 
REMARK    6  A    between atoms: C_9  and  O_10 
REMARK    7  A    between atoms: C_16  and  N_17 
ROOT
HETATM    1  C   UNK N   1      34.756  11.832   9.172  0.00  0.00     0.156 C 
HETATM    2  N   UNK N   1      34.590  13.267   9.371  0.00  0.00    -0.350 N 
HETATM    3  C   UNK N   1      35.247  14.070  10.249  0.00  0.00     0.021 A 
HETATM    4  C   UNK N   1      34.799  15.380  10.113  0.00  0.00     0.005 A 
HETATM    5  C   UNK N   1      33.838  15.358   9.097  0.00  0.00     0.057 A 
HETATM    6  C   UNK N   1      33.741  14.053   8.679  0.00  0.00     0.100 A 
HETATM    7  C   UNK N   1      32.818  13.657   7.600  0.00  0.00     0.201 A 
HETATM    8  O   UNK N   1      32.711  12.493   7.247  0.00  0.00    -0.286 OA
HETATM    9  C   UNK N   1      32.036  14.718   6.923  0.00  0.00     0.085 A 
HETATM   10  C   UNK N   1      32.115  16.014   7.312  0.00  0.00     0.066 A 
HETATM   11  C   UNK N   1      33.012  16.406   8.449  0.00  0.00     0.206 A 
HETATM   12  O   UNK N   1      33.075  17.571   8.804  0.00  0.00    -0.285 OA
ENDROOT
BRANCH   3  13
HETATM   13  C   UNK N   1      36.319  13.668  11.234  0.00  0.00     0.060 C 
BRANCH  13  14
HETATM   14  C   UNK N   1      35.836  12.926  12.463  0.00  0.00     0.032 C 
BRANCH  14  15
HETATM   15  C   UNK N   1      35.692  13.892  13.616  0.00  0.00     0.164 C 
BRANCH  15  16
HETATM   16  O   UNK N   1      36.805  14.729  13.656  0.00  0.00    -0.401 OA
HETATM   17  H   UNK N   1      37.666  14.377  13.932  0.00  0.00     0.209 HD
ENDBRANCH  15  16
ENDBRANCH  14  15
ENDBRANCH  13  14
ENDBRANCH   3  13
BRANCH   4  18
HETATM   18  C   UNK N   1      35.339  16.516  10.946  0.00  0.00     0.206 C 
BRANCH  18  19
HETATM   19  O   UNK N   1      35.653  17.653  10.210  0.00  0.00    -0.396 OA
HETATM   20  H   UNK N   1      35.117  17.895   9.438  0.00  0.00     0.209 HD
ENDBRANCH  18  19
ENDBRANCH   4  18
BRANCH  10  21
HETATM   21  N   UNK N   1      31.401  17.003   6.581  0.00  0.00    -0.278 NA
HETATM   22  C   UNK N   1      31.586  17.254   5.223  0.00  0.00     0.110 A 
HETATM   23  C   UNK N   1      30.188  16.784   5.929  0.00  0.00     0.110 A 
ENDBRANCH  10  21
TORSDOF 7
ENDMDL
MODEL 9
REMARK VINA RESULT:      -5.2      2.008      6.903
REMARK  7 active torsions:
REMARK  status: ('A' for Active; 'I' for Inactive)
REMARK    1  A    between atoms: C_3  and  C_4 
REMARK    2  A    between atoms: C_4  and  C_5 
REMARK    3  A    between atoms: C_5  and  C_6 
REMARK    4  A    between atoms: C_6  and  O_7 
REMARK    5  A    between atoms: C_8  and  C_9 
REMARK    6  A    between atoms: C_9  and  O_10 
REMARK    7  A    between atoms: C_16  and  N_17 
ROOT
HETATM    1  C   UNK N   1      36.120  15.731  11.184  0.00  0.00     0.156 C 
HETATM    2  N   UNK N   1      35.229  14.893  10.390  0.00  0.00    -0.350 N 
HETATM    3  C   UNK N   1      35.000  13.560  10.519  0.00  0.00     0.021 A 
HETATM    4  C   UNK N   1      34.071  13.149   9.569  0.00  0.00     0.005 A 
HETATM    5  C   UNK N   1      33.721  14.295   8.848  0.00  0.00     0.057 A 
HETATM    6  C   UNK N   1      34.452  15.329   9.378  0.00  0.00     0.100 A 
HETATM    7  C   UNK N   1      34.328  16.704   8.860  0.00  0.00     0.201 A 
HETATM    8  O   UNK N   1      34.999  17.619   9.313  0.00  0.00    -0.286 OA
HETATM    9  C   UNK N   1      33.340  16.961   7.786  0.00  0.00     0.085 A 
HETATM   10  C   UNK N   1      32.603  15.960   7.248  0.00  0.00     0.066 A 
HETATM   11  C   UNK N   1      32.772  14.552   7.737  0.00  0.00     0.206 A 
HETATM   12  O   UNK N   1      32.115  13.651   7.244  0.00  0.00    -0.285 OA
ENDROOT
BRANCH   3  13
HETATM   13  C   UNK N   1      35.614  12.618  11.527  0.00  0.00     0.060 C 
BRANCH  13  14
HETATM   14  C   UNK N   1      34.939  12.576  12.882  0.00  0.00     0.032 C 
BRANCH  14  15
HETATM   15  C   UNK N   1      35.815  13.256  13.909  0.00  0.00     0.164 C 
BRANCH  15  16
HETATM   16  O   UNK N   1      37.143  13.192  13.492  0.00  0.00    -0.401 OA
HETATM   17  H   UNK N   1      37.451  13.756  12.765  0.00  0.00     0.209 HD
ENDBRANCH  15  16
ENDBRANCH  14  15
ENDBRANCH  13  14
ENDBRANCH   3  13
BRANCH   4  18
HETATM   18  C   UNK N   1      33.601  11.720   9.455  0.00  0.00     0.206 C 
BRANCH  18  19
HETATM   19  O   UNK N   1      32.224  11.570   9.568  0.00  0.00    -0.396 OA
HETATM   20  H   UNK N   1      31.690  12.277   9.964  0.00  0.00     0.209 HD
ENDBRANCH  18  19
ENDBRANCH   4  18
BRANCH  10  21
HETATM   21  N   UNK N   1      31.615  16.273   6.272  0.00  0.00    -0.278 NA
HETATM   22  C   UNK N   1      30.567  17.167   6.483  0.00  0.00     0.110 A 
HETATM   23  C   UNK N   1      31.724  17.300   5.336  0.00  0.00     0.110 A 
ENDBRANCH  10  21
TORSDOF 7
ENDMDL
