MODEL 1
REMARK VINA RESULT:      -6.1      0.000      0.000
REMARK  6 active torsions:
REMARK  status: ('A' for Active; 'I' for Inactive)
REMARK    1  A    between atoms: C_3  and  C_1 
REMARK    2  A    between atoms: O_19  and  C_1 
REMARK    3  A    between atoms: C_5  and  O_20 
REMARK    4  A    between atoms: C_6  and  O_21 
REMARK    5  A    between atoms: N_12  and  C_8 
REMARK    6  A    between atoms: C_10  and  N_18 
ROOT
HETATM    1  C   UNK N   1      25.649  20.445   3.610  0.00  0.00     0.183 A 
HETATM    2  C   UNK N   1      25.163  17.780   3.931  0.00  0.00     0.065 A 
HETATM    3  C   UNK N   1      24.586  16.406   4.076  0.00  0.00     0.207 A 
HETATM    4  C   UNK N   1      26.477  18.231   3.845  0.00  0.00     0.112 A 
HETATM    5  C   UNK N   1      24.157  18.655   3.838  0.00  0.00     0.138 A 
HETATM    6  I   UNK N   1      25.245  15.419   5.852  0.00  0.00    -0.055 I 
HETATM    7  N   UNK N   1      26.698  19.568   3.692  0.00  0.00    -0.338 N 
ATOM      8  HN  UNK N   1      27.654  19.919   3.638  1.00  0.00     0.168 HD
HETATM    9  N   UNK N   1      24.365  19.984   3.671  0.00  0.00    -0.337 N 
ATOM     10  HN  UNK N   1      23.577  20.628   3.592  1.00  0.00     0.168 HD
HETATM   11  N   UNK N   1      23.107  16.616   4.119  0.00  0.00    -0.311 N 
HETATM   12  N   UNK N   1      22.940  17.990   3.916  0.00  0.00    -0.246 N 
HETATM   13  H   UNK N   1      22.381  15.913   4.264  0.00  0.00     0.182 HD
ENDROOT
BRANCH  12  14
HETATM   14  C   UNK N   1      21.645  18.543   3.541  0.00  0.00     0.277 C 
HETATM   15  C   UNK N   1      20.850  17.697   2.564  0.00  0.00     0.200 C 
HETATM   16  C   UNK N   1      19.884  18.713   1.978  0.00  0.00     0.182 C 
HETATM   17  C   UNK N   1      20.550  20.053   2.334  0.00  0.00     0.179 C 
HETATM   18  O   UNK N   1      21.824  19.769   2.866  0.00  0.00    -0.352 OA
BRANCH  15  19
HETATM   19  O   UNK N   1      20.189  16.616   3.158  0.00  0.00    -0.388 OA
HETATM   20  H   UNK N   1      19.225  16.517   3.160  0.00  0.00     0.210 HD
ENDBRANCH  15  19
BRANCH  16  21
HETATM   21  O   UNK N   1      18.620  18.653   2.576  0.00  0.00    -0.390 OA
HETATM   22  H   UNK N   1      17.937  17.987   2.751  0.00  0.00     0.210 HD
ENDBRANCH  16  21
BRANCH  17  23
HETATM   23  C   UNK N   1      20.644  20.991   1.140  0.00  0.00     0.198 C 
BRANCH  23  24
HETATM   24  O   UNK N   1      20.556  20.263  -0.050  0.00  0.00    -0.398 OA
HETATM   25  H   UNK N   1      19.698  19.965  -0.389  0.00  0.00     0.209 HD
ENDBRANCH  23  24
ENDBRANCH  17  23
ENDBRANCH  12  14
BRANCH   4  26
HETATM   26  N   UNK N   1      27.560  17.331   3.903  0.00  0.00    -0.385 N 
HETATM   27  H   UNK N   1      28.057  17.213   4.745  0.00  0.00     0.157 HD
HETATM   28  H   UNK N   1      27.821  16.822   3.102  0.00  0.00     0.157 HD
ENDBRANCH   4  26
TORSDOF 6
ENDMDL
MODEL 2
REMARK VINA RESULT:      -6.1      7.816      9.934
REMARK  6 active torsions:
REMARK  status: ('A' for Active; 'I' for Inactive)
REMARK    1  A    between atoms: C_3  and  C_1 
REMARK    2  A    between atoms: O_19  and  C_1 
REMARK    3  A    between atoms: C_5  and  O_20 
REMARK    4  A    between atoms: C_6  and  O_21 
REMARK    5  A    between atoms: N_12  and  C_8 
REMARK    6  A    between atoms: C_10  and  N_18 
ROOT
HETATM    1  C   UNK N   1      33.418  16.842   4.942  0.00  0.00     0.183 A 
HETATM    2  C   UNK N   1      33.592  15.972   7.522  0.00  0.00     0.065 A 
HETATM    3  C   UNK N   1      33.403  15.646   8.970  0.00  0.00     0.207 A 
HETATM    4  C   UNK N   1      34.554  15.573   6.598  0.00  0.00     0.112 A 
HETATM    5  C   UNK N   1      32.588  16.762   7.130  0.00  0.00     0.138 A 
HETATM    6  I   UNK N   1      35.075  16.223  10.169  0.00  0.00    -0.055 I 
HETATM    7  N   UNK N   1      34.452  16.025   5.315  0.00  0.00    -0.338 N 
ATOM      8  HN  UNK N   1      35.153  15.752   4.626  1.00  0.00     0.168 HD
HETATM    9  N   UNK N   1      32.468  17.205   5.854  0.00  0.00    -0.337 N 
ATOM     10  HN  UNK N   1      31.685  17.799   5.582  1.00  0.00     0.168 HD
HETATM   11  N   UNK N   1      32.186  16.410   9.378  0.00  0.00    -0.311 N 
HETATM   12  N   UNK N   1      31.733  17.008   8.197  0.00  0.00    -0.246 N 
HETATM   13  H   UNK N   1      31.777  16.480  10.311  0.00  0.00     0.182 HD
ENDROOT
BRANCH  12  14
HETATM   14  C   UNK N   1      30.384  17.548   8.096  0.00  0.00     0.277 C 
HETATM   15  C   UNK N   1      29.512  17.317   9.318  0.00  0.00     0.200 C 
HETATM   16  C   UNK N   1      28.114  17.479   8.746  0.00  0.00     0.182 C 
HETATM   17  C   UNK N   1      28.350  17.313   7.234  0.00  0.00     0.179 C 
HETATM   18  O   UNK N   1      29.687  16.905   7.052  0.00  0.00    -0.352 OA
BRANCH  15  19
HETATM   19  O   UNK N   1      29.763  18.206  10.368  0.00  0.00    -0.388 OA
HETATM   20  H   UNK N   1      29.662  17.968  11.303  0.00  0.00     0.210 HD
ENDBRANCH  15  19
BRANCH  16  21
HETATM   21  O   UNK N   1      27.582  18.750   8.991  0.00  0.00    -0.390 OA
HETATM   22  H   UNK N   1      26.741  19.215   8.863  0.00  0.00     0.210 HD
ENDBRANCH  16  21
BRANCH  17  23
HETATM   23  C   UNK N   1      27.378  16.329   6.600  0.00  0.00     0.198 C 
BRANCH  23  24
HETATM   24  O   UNK N   1      26.337  16.044   7.486  0.00  0.00    -0.398 OA
HETATM   25  H   UNK N   1      26.128  16.643   8.220  0.00  0.00     0.209 HD
ENDBRANCH  23  24
ENDBRANCH  17  23
ENDBRANCH  12  14
BRANCH   4  26
HETATM   26  N   UNK N   1      35.606  14.711   6.968  0.00  0.00    -0.385 N 
HETATM   27  H   UNK N   1      35.430  13.945   7.561  0.00  0.00     0.157 HD
HETATM   28  H   UNK N   1      36.518  14.875   6.634  0.00  0.00     0.157 HD
ENDBRANCH   4  26
TORSDOF 6
ENDMDL
MODEL 3
REMARK VINA RESULT:      -6.1      9.268     11.948
REMARK  6 active torsions:
REMARK  status: ('A' for Active; 'I' for Inactive)
REMARK    1  A    between atoms: C_3  and  C_1 
REMARK    2  A    between atoms: O_19  and  C_1 
REMARK    3  A    between atoms: C_5  and  O_20 
REMARK    4  A    between atoms: C_6  and  O_21 
REMARK    5  A    between atoms: N_12  and  C_8 
REMARK    6  A    between atoms: C_10  and  N_18 
ROOT
HETATM    1  C   UNK N   1      30.222  18.672   9.394  0.00  0.00     0.183 A 
HETATM    2  C   UNK N   1      29.814  16.999   7.278  0.00  0.00     0.065 A 
HETATM    3  C   UNK N   1      29.877  15.957   6.206  0.00  0.00     0.207 A 
HETATM    4  C   UNK N   1      28.812  17.891   7.649  0.00  0.00     0.112 A 
HETATM    5  C   UNK N   1      30.955  16.961   7.973  0.00  0.00     0.138 A 
HETATM    6  I   UNK N   1      29.612  16.773   4.249  0.00  0.00    -0.055 I 
HETATM    7  N   UNK N   1      29.039  18.724   8.705  0.00  0.00    -0.338 N 
ATOM      8  HN  UNK N   1      28.321  19.392   8.985  1.00  0.00     0.168 HD
HETATM    9  N   UNK N   1      31.186  17.774   9.034  0.00  0.00    -0.337 N 
ATOM     10  HN  UNK N   1      32.063  17.716   9.552  1.00  0.00     0.168 HD
HETATM   11  N   UNK N   1      31.239  15.357   6.335  0.00  0.00    -0.311 N 
HETATM   12  N   UNK N   1      31.795  15.984   7.456  0.00  0.00    -0.246 N 
HETATM   13  H   UNK N   1      31.668  14.647   5.739  0.00  0.00     0.182 HD
ENDROOT
BRANCH  12  14
HETATM   14  C   UNK N   1      32.967  15.432   8.123  0.00  0.00     0.277 C 
HETATM   15  C   UNK N   1      32.666  14.606   9.360  0.00  0.00     0.200 C 
HETATM   16  C   UNK N   1      33.997  14.634  10.092  0.00  0.00     0.182 C 
HETATM   17  C   UNK N   1      34.714  15.827   9.437  0.00  0.00     0.179 C 
HETATM   18  O   UNK N   1      33.785  16.478   8.600  0.00  0.00    -0.352 OA
BRANCH  15  19
HETATM   19  O   UNK N   1      32.242  13.302   9.080  0.00  0.00    -0.388 OA
HETATM   20  H   UNK N   1      32.310  12.572   9.714  0.00  0.00     0.210 HD
ENDBRANCH  15  19
BRANCH  16  21
HETATM   21  O   UNK N   1      34.748  13.473   9.879  0.00  0.00    -0.390 OA
HETATM   22  H   UNK N   1      35.569  13.219   9.428  0.00  0.00     0.210 HD
ENDBRANCH  16  21
BRANCH  17  23
HETATM   23  C   UNK N   1      35.303  16.786  10.462  0.00  0.00     0.198 C 
BRANCH  23  24
HETATM   24  O   UNK N   1      36.591  16.376  10.817  0.00  0.00    -0.398 OA
HETATM   25  H   UNK N   1      37.297  17.023  10.964  0.00  0.00     0.209 HD
ENDBRANCH  23  24
ENDBRANCH  17  23
ENDBRANCH  12  14
BRANCH   4  26
HETATM   26  N   UNK N   1      27.583  17.932   6.960  0.00  0.00    -0.385 N 
HETATM   27  H   UNK N   1      26.811  18.394   7.360  0.00  0.00     0.157 HD
HETATM   28  H   UNK N   1      27.496  17.499   6.080  0.00  0.00     0.157 HD
ENDBRANCH   4  26
TORSDOF 6
ENDMDL
MODEL 4
REMARK VINA RESULT:      -6.0      5.668      7.362
REMARK  6 active torsions:
REMARK  status: ('A' for Active; 'I' for Inactive)
REMARK    1  A    between atoms: C_3  and  C_1 
REMARK    2  A    between atoms: O_19  and  C_1 
REMARK    3  A    between atoms: C_5  and  O_20 
REMARK    4  A    between atoms: C_6  and  O_21 
REMARK    5  A    between atoms: N_12  and  C_8 
REMARK    6  A    between atoms: C_10  and  N_18 
ROOT
HETATM    1  C   UNK N   1      28.933  17.271   9.903  0.00  0.00     0.183 A 
HETATM    2  C   UNK N   1      30.473  17.091   7.659  0.00  0.00     0.065 A 
HETATM    3  C   UNK N   1      31.062  17.130   6.283  0.00  0.00     0.207 A 
HETATM    4  C   UNK N   1      31.013  16.732   8.890  0.00  0.00     0.112 A 
HETATM    5  C   UNK N   1      29.215  17.535   7.594  0.00  0.00     0.138 A 
HETATM    6  I   UNK N   1      31.766  15.220   5.636  0.00  0.00    -0.055 I 
HETATM    7  N   UNK N   1      30.224  16.823   9.999  0.00  0.00    -0.338 N 
ATOM      8  HN  UNK N   1      30.599  16.554  10.909  1.00  0.00     0.168 HD
HETATM    9  N   UNK N   1      28.425  17.643   8.691  0.00  0.00    -0.337 N 
ATOM     10  HN  UNK N   1      27.471  17.995   8.613  1.00  0.00     0.168 HD
HETATM   11  N   UNK N   1      29.948  17.595   5.403  0.00  0.00    -0.311 N 
HETATM   12  N   UNK N   1      28.893  17.865   6.284  0.00  0.00    -0.246 N 
HETATM   13  H   UNK N   1      29.954  17.694   4.388  0.00  0.00     0.182 HD
ENDROOT
BRANCH  12  14
HETATM   14  C   UNK N   1      27.751  18.667   5.865  0.00  0.00     0.277 C 
HETATM   15  C   UNK N   1      28.039  19.652   4.747  0.00  0.00     0.200 C 
HETATM   16  C   UNK N   1      26.904  20.649   4.902  0.00  0.00     0.182 C 
HETATM   17  C   UNK N   1      26.411  20.376   6.333  0.00  0.00     0.179 C 
HETATM   18  O   UNK N   1      27.318  19.480   6.934  0.00  0.00    -0.352 OA
BRANCH  15  19
HETATM   19  O   UNK N   1      28.067  19.072   3.475  0.00  0.00    -0.388 OA
HETATM   20  H   UNK N   1      27.458  19.320   2.762  0.00  0.00     0.210 HD
ENDBRANCH  15  19
BRANCH  16  21
HETATM   21  O   UNK N   1      25.858  20.411   4.002  0.00  0.00    -0.390 OA
HETATM   22  H   UNK N   1      25.450  19.652   3.559  0.00  0.00     0.210 HD
ENDBRANCH  16  21
BRANCH  17  23
HETATM   23  C   UNK N   1      26.267  21.650   7.152  0.00  0.00     0.198 C 
BRANCH  23  24
HETATM   24  O   UNK N   1      25.685  21.362   8.389  0.00  0.00    -0.398 OA
HETATM   25  H   UNK N   1      26.142  20.804   9.037  0.00  0.00     0.209 HD
ENDBRANCH  23  24
ENDBRANCH  17  23
ENDBRANCH  12  14
BRANCH   4  26
HETATM   26  N   UNK N   1      32.348  16.294   9.000  0.00  0.00    -0.385 N 
HETATM   27  H   UNK N   1      32.928  16.276   8.204  0.00  0.00     0.157 HD
HETATM   28  H   UNK N   1      32.702  16.006   9.873  0.00  0.00     0.157 HD
ENDBRANCH   4  26
TORSDOF 6
ENDMDL
MODEL 5
REMARK VINA RESULT:      -5.8     11.804     14.294
REMARK  6 active torsions:
REMARK  status: ('A' for Active; 'I' for Inactive)
REMARK    1  A    between atoms: C_3  and  C_1 
REMARK    2  A    between atoms: O_19  and  C_1 
REMARK    3  A    between atoms: C_5  and  O_20 
REMARK    4  A    between atoms: C_6  and  O_21 
REMARK    5  A    between atoms: N_12  and  C_8 
REMARK    6  A    between atoms: C_10  and  N_18 
ROOT
HETATM    1  C   UNK N   1      35.116  14.888   5.732  0.00  0.00     0.183 A 
HETATM    2  C   UNK N   1      33.261  16.528   6.877  0.00  0.00     0.065 A 
HETATM    3  C   UNK N   1      32.357  17.303   7.783  0.00  0.00     0.207 A 
HETATM    4  C   UNK N   1      33.467  16.583   5.502  0.00  0.00     0.112 A 
HETATM    5  C   UNK N   1      33.985  15.686   7.620  0.00  0.00     0.138 A 
HETATM    6  I   UNK N   1      30.294  17.087   7.270  0.00  0.00    -0.055 I 
HETATM    7  N   UNK N   1      34.394  15.749   4.948  0.00  0.00    -0.338 N 
ATOM      8  HN  UNK N   1      34.552  15.767   3.941  1.00  0.00     0.168 HD
HETATM    9  N   UNK N   1      34.919  14.863   7.083  0.00  0.00    -0.337 N 
ATOM     10  HN  UNK N   1      35.465  14.237   7.676  1.00  0.00     0.168 HD
HETATM   11  N   UNK N   1      32.611  16.746   9.146  0.00  0.00    -0.311 N 
HETATM   12  N   UNK N   1      33.642  15.817   8.960  0.00  0.00    -0.246 N 
HETATM   13  H   UNK N   1      32.139  16.989  10.017  0.00  0.00     0.182 HD
ENDROOT
BRANCH  12  14
HETATM   14  C   UNK N   1      34.415  15.315  10.088  0.00  0.00     0.277 C 
HETATM   15  C   UNK N   1      35.529  16.234  10.556  0.00  0.00     0.200 C 
HETATM   16  C   UNK N   1      36.435  15.275  11.309  0.00  0.00     0.182 C 
HETATM   17  C   UNK N   1      35.982  13.903  10.783  0.00  0.00     0.179 C 
HETATM   18  O   UNK N   1      35.082  14.127   9.722  0.00  0.00    -0.352 OA
BRANCH  15  19
HETATM   19  O   UNK N   1      35.090  17.292  11.358  0.00  0.00    -0.388 OA
HETATM   20  H   UNK N   1      35.412  17.446  12.260  0.00  0.00     0.210 HD
ENDBRANCH  15  19
BRANCH  16  21
HETATM   21  O   UNK N   1      36.233  15.327  12.693  0.00  0.00    -0.390 OA
HETATM   22  H   UNK N   1      35.658  15.794  13.320  0.00  0.00     0.210 HD
ENDBRANCH  16  21
BRANCH  17  23
HETATM   23  C   UNK N   1      37.151  13.034  10.343  0.00  0.00     0.198 C 
BRANCH  23  24
HETATM   24  O   UNK N   1      38.271  13.299  11.137  0.00  0.00    -0.398 OA
HETATM   25  H   UNK N   1      38.642  14.193  11.192  0.00  0.00     0.209 HD
ENDBRANCH  23  24
ENDBRANCH  17  23
ENDBRANCH  12  14
BRANCH   4  26
HETATM   26  N   UNK N   1      32.747  17.485   4.693  0.00  0.00    -0.385 N 
HETATM   27  H   UNK N   1      32.924  18.451   4.755  0.00  0.00     0.157 HD
HETATM   28  H   UNK N   1      32.067  17.148   4.065  0.00  0.00     0.157 HD
ENDBRANCH   4  26
TORSDOF 6
ENDMDL
MODEL 6
REMARK VINA RESULT:      -5.8     17.332     19.012
REMARK  6 active torsions:
REMARK  status: ('A' for Active; 'I' for Inactive)
REMARK    1  A    between atoms: C_3  and  C_1 
REMARK    2  A    between atoms: O_19  and  C_1 
REMARK    3  A    between atoms: C_5  and  O_20 
REMARK    4  A    between atoms: C_6  and  O_21 
REMARK    5  A    between atoms: N_12  and  C_8 
REMARK    6  A    between atoms: C_10  and  N_18 
ROOT
HETATM    1  C   UNK N   1      34.999  14.157  18.419  0.00  0.00     0.183 A 
HETATM    2  C   UNK N   1      35.306  11.456  18.190  0.00  0.00     0.065 A 
HETATM    3  C   UNK N   1      35.396  10.027  17.753  0.00  0.00     0.207 A 
HETATM    4  C   UNK N   1      35.614  12.080  19.395  0.00  0.00     0.112 A 
HETATM    5  C   UNK N   1      34.881  12.189  17.157  0.00  0.00     0.138 A 
HETATM    6  I   UNK N   1      34.206   8.723  18.956  0.00  0.00    -0.055 I 
HETATM    7  N   UNK N   1      35.447  13.431  19.490  0.00  0.00    -0.338 N 
ATOM      8  HN  UNK N   1      35.658  13.904  20.369  1.00  0.00     0.168 HD
HETATM    9  N   UNK N   1      34.725  13.534  17.235  0.00  0.00    -0.337 N 
ATOM     10  HN  UNK N   1      34.408  14.069  16.427  1.00  0.00     0.168 HD
HETATM   11  N   UNK N   1      34.900  10.026  16.344  0.00  0.00    -0.311 N 
HETATM   12  N   UNK N   1      34.664  11.374  16.052  0.00  0.00    -0.246 N 
HETATM   13  H   UNK N   1      34.765   9.221  15.731  0.00  0.00     0.182 HD
ENDROOT
BRANCH  12  14
HETATM   14  C   UNK N   1      34.510  11.831  14.678  0.00  0.00     0.277 C 
HETATM   15  C   UNK N   1      35.186  10.957  13.636  0.00  0.00     0.200 C 
HETATM   16  C   UNK N   1      35.317  11.910  12.460  0.00  0.00     0.182 C 
HETATM   17  C   UNK N   1      35.140  13.287  13.122  0.00  0.00     0.179 C 
HETATM   18  O   UNK N   1      35.123  13.091  14.518  0.00  0.00    -0.352 OA
BRANCH  15  19
HETATM   19  O   UNK N   1      34.464   9.805  13.309  0.00  0.00    -0.388 OA
HETATM   20  H   UNK N   1      34.649   8.933  13.693  0.00  0.00     0.210 HD
ENDBRANCH  15  19
BRANCH  16  21
HETATM   21  O   UNK N   1      34.307  11.724  11.508  0.00  0.00    -0.390 OA
HETATM   22  H   UNK N   1      34.129  11.977  10.590  0.00  0.00     0.210 HD
ENDBRANCH  16  21
BRANCH  17  23
HETATM   23  C   UNK N   1      36.224  14.272  12.714  0.00  0.00     0.198 C 
BRANCH  23  24
HETATM   24  O   UNK N   1      37.298  13.591  12.133  0.00  0.00    -0.398 OA
HETATM   25  H   UNK N   1      38.198  13.948  12.180  0.00  0.00     0.209 HD
ENDBRANCH  23  24
ENDBRANCH  17  23
ENDBRANCH  12  14
BRANCH   4  26
HETATM   26  N   UNK N   1      36.100  11.343  20.493  0.00  0.00    -0.385 N 
HETATM   27  H   UNK N   1      36.515  11.809  21.255  0.00  0.00     0.157 HD
HETATM   28  H   UNK N   1      36.024  10.361  20.500  0.00  0.00     0.157 HD
ENDBRANCH   4  26
TORSDOF 6
ENDMDL
MODEL 7
REMARK VINA RESULT:      -5.7     11.875     13.984
REMARK  6 active torsions:
REMARK  status: ('A' for Active; 'I' for Inactive)
REMARK    1  A    between atoms: C_3  and  C_1 
REMARK    2  A    between atoms: O_19  and  C_1 
REMARK    3  A    between atoms: C_5  and  O_20 
REMARK    4  A    between atoms: C_6  and  O_21 
REMARK    5  A    between atoms: N_12  and  C_8 
REMARK    6  A    between atoms: C_10  and  N_18 
ROOT
HETATM    1  C   UNK N   1      36.175  15.063  12.786  0.00  0.00     0.183 A 
HETATM    2  C   UNK N   1      35.515  12.891  11.273  0.00  0.00     0.065 A 
HETATM    3  C   UNK N   1      34.952  11.908  10.295  0.00  0.00     0.207 A 
HETATM    4  C   UNK N   1      36.543  12.789  12.205  0.00  0.00     0.112 A 
HETATM    5  C   UNK N   1      34.876  14.055  11.119  0.00  0.00     0.138 A 
HETATM    6  I   UNK N   1      34.180  10.155  11.242  0.00  0.00    -0.055 I 
HETATM    7  N   UNK N   1      36.852  13.885  12.956  0.00  0.00    -0.338 N 
ATOM      8  HN  UNK N   1      37.595  13.826  13.653  1.00  0.00     0.168 HD
HETATM    9  N   UNK N   1      35.185  15.155  11.850  0.00  0.00    -0.337 N 
ATOM     10  HN  UNK N   1      34.687  16.033  11.704  1.00  0.00     0.168 HD
HETATM   11  N   UNK N   1      33.854  12.645   9.600  0.00  0.00    -0.311 N 
HETATM   12  N   UNK N   1      33.917  13.943  10.121  0.00  0.00    -0.246 N 
HETATM   13  H   UNK N   1      33.205  12.284   8.901  0.00  0.00     0.182 HD
ENDROOT
BRANCH  12  14
HETATM   14  C   UNK N   1      33.251  15.054   9.454  0.00  0.00     0.277 C 
HETATM   15  C   UNK N   1      33.043  14.869   7.962  0.00  0.00     0.200 C 
HETATM   16  C   UNK N   1      32.854  16.301   7.488  0.00  0.00     0.182 C 
HETATM   17  C   UNK N   1      33.434  17.119   8.654  0.00  0.00     0.179 C 
HETATM   18  O   UNK N   1      34.046  16.216   9.548  0.00  0.00    -0.352 OA
BRANCH  15  19
HETATM   19  O   UNK N   1      31.953  14.054   7.639  0.00  0.00    -0.388 OA
HETATM   20  H   UNK N   1      32.044  13.175   7.241  0.00  0.00     0.210 HD
ENDBRANCH  15  19
BRANCH  16  21
HETATM   21  O   UNK N   1      31.504  16.633   7.320  0.00  0.00    -0.390 OA
HETATM   22  H   UNK N   1      30.944  17.421   7.385  0.00  0.00     0.210 HD
ENDBRANCH  16  21
BRANCH  17  23
HETATM   23  C   UNK N   1      34.414  18.184   8.186  0.00  0.00     0.198 C 
BRANCH  23  24
HETATM   24  O   UNK N   1      34.556  18.128   6.797  0.00  0.00    -0.398 OA
HETATM   25  H   UNK N   1      35.228  18.659   6.342  0.00  0.00     0.209 HD
ENDBRANCH  23  24
ENDBRANCH  17  23
ENDBRANCH  12  14
BRANCH   4  26
HETATM   26  N   UNK N   1      37.261  11.588  12.368  0.00  0.00    -0.385 N 
HETATM   27  H   UNK N   1      37.728  11.185  11.600  0.00  0.00     0.157 HD
HETATM   28  H   UNK N   1      37.297  11.151  13.250  0.00  0.00     0.157 HD
ENDBRANCH   4  26
TORSDOF 6
ENDMDL
MODEL 8
REMARK VINA RESULT:      -5.5      7.614      9.913
REMARK  6 active torsions:
REMARK  status: ('A' for Active; 'I' for Inactive)
REMARK    1  A    between atoms: C_3  and  C_1 
REMARK    2  A    between atoms: O_19  and  C_1 
REMARK    3  A    between atoms: C_5  and  O_20 
REMARK    4  A    between atoms: C_6  and  O_21 
REMARK    5  A    between atoms: N_12  and  C_8 
REMARK    6  A    between atoms: C_10  and  N_18 
ROOT
HETATM    1  C   UNK N   1      31.292  17.627   9.087  0.00  0.00     0.183 A 
HETATM    2  C   UNK N   1      29.300  17.831   7.235  0.00  0.00     0.065 A 
HETATM    3  C   UNK N   1      28.434  17.833   6.014  0.00  0.00     0.207 A 
HETATM    4  C   UNK N   1      29.018  18.080   8.574  0.00  0.00     0.112 A 
HETATM    5  C   UNK N   1      30.538  17.479   6.875  0.00  0.00     0.138 A 
HETATM    6  I   UNK N   1      27.505  19.725   5.667  0.00  0.00    -0.055 I 
HETATM    7  N   UNK N   1      30.030  17.979   9.483  0.00  0.00    -0.338 N 
ATOM      8  HN  UNK N   1      29.845  18.169  10.468  1.00  0.00     0.168 HD
HETATM    9  N   UNK N   1      31.548  17.361   7.772  0.00  0.00    -0.337 N 
ATOM     10  HN  UNK N   1      32.481  17.080   7.470  1.00  0.00     0.168 HD
HETATM   11  N   UNK N   1      29.357  17.496   4.889  0.00  0.00    -0.311 N 
HETATM   12  N   UNK N   1      30.589  17.248   5.507  0.00  0.00    -0.246 N 
HETATM   13  H   UNK N   1      29.139  17.456   3.893  0.00  0.00     0.182 HD
ENDROOT
BRANCH  12  14
HETATM   14  C   UNK N   1      31.657  16.552   4.802  0.00  0.00     0.277 C 
HETATM   15  C   UNK N   1      31.329  16.163   3.371  0.00  0.00     0.200 C 
HETATM   16  C   UNK N   1      32.333  15.055   3.105  0.00  0.00     0.182 C 
HETATM   17  C   UNK N   1      32.763  14.645   4.524  0.00  0.00     0.179 C 
HETATM   18  O   UNK N   1      31.928  15.321   5.437  0.00  0.00    -0.352 OA
BRANCH  15  19
HETATM   19  O   UNK N   1      31.446  17.217   2.458  0.00  0.00    -0.388 OA
HETATM   20  H   UNK N   1      30.691  17.740   2.148  0.00  0.00     0.210 HD
ENDBRANCH  15  19
BRANCH  16  21
HETATM   21  O   UNK N   1      33.452  15.507   2.397  0.00  0.00    -0.390 OA
HETATM   22  H   UNK N   1      33.676  16.231   1.792  0.00  0.00     0.210 HD
ENDBRANCH  16  21
BRANCH  17  23
HETATM   23  C   UNK N   1      32.711  13.139   4.736  0.00  0.00     0.198 C 
BRANCH  23  24
HETATM   24  O   UNK N   1      31.756  12.824   5.705  0.00  0.00    -0.398 OA
HETATM   25  H   UNK N   1      31.216  12.022   5.630  0.00  0.00     0.209 HD
ENDBRANCH  23  24
ENDBRANCH  17  23
ENDBRANCH  12  14
BRANCH   4  26
HETATM   26  N   UNK N   1      27.715  18.419   8.993  0.00  0.00    -0.385 N 
HETATM   27  H   UNK N   1      27.355  18.047   9.830  0.00  0.00     0.157 HD
HETATM   28  H   UNK N   1      27.165  19.028   8.448  0.00  0.00     0.157 HD
ENDBRANCH   4  26
TORSDOF 6
ENDMDL
MODEL 9
REMARK VINA RESULT:      -5.5     10.013     12.873
REMARK  6 active torsions:
REMARK  status: ('A' for Active; 'I' for Inactive)
REMARK    1  A    between atoms: C_3  and  C_1 
REMARK    2  A    between atoms: O_19  and  C_1 
REMARK    3  A    between atoms: C_5  and  O_20 
REMARK    4  A    between atoms: C_6  and  O_21 
REMARK    5  A    between atoms: N_12  and  C_8 
REMARK    6  A    between atoms: C_10  and  N_18 
ROOT
HETATM    1  C   UNK N   1      29.722  18.308   9.065  0.00  0.00     0.183 A 
HETATM    2  C   UNK N   1      30.993  16.988   7.045  0.00  0.00     0.065 A 
HETATM    3  C   UNK N   1      31.908  16.191   6.168  0.00  0.00     0.207 A 
HETATM    4  C   UNK N   1      29.747  17.561   6.810  0.00  0.00     0.112 A 
HETATM    5  C   UNK N   1      31.543  17.077   8.260  0.00  0.00     0.138 A 
HETATM    6  I   UNK N   1      32.514  17.262   4.422  0.00  0.00    -0.055 I 
HETATM    7  N   UNK N   1      29.132  18.223   7.832  0.00  0.00    -0.338 N 
ATOM      8  HN  UNK N   1      28.223  18.659   7.676  1.00  0.00     0.168 HD
HETATM    9  N   UNK N   1      30.933  17.720   9.287  0.00  0.00    -0.337 N 
ATOM     10  HN  UNK N   1      31.372  17.763  10.207  1.00  0.00     0.168 HD
HETATM   11  N   UNK N   1      33.093  15.888   7.026  0.00  0.00    -0.311 N 
HETATM   12  N   UNK N   1      32.762  16.413   8.281  0.00  0.00    -0.246 N 
HETATM   13  H   UNK N   1      33.951  15.405   6.757  0.00  0.00     0.182 HD
ENDROOT
BRANCH  12  14
HETATM   14  C   UNK N   1      33.495  16.020   9.477  0.00  0.00     0.277 C 
HETATM   15  C   UNK N   1      34.981  16.330   9.444  0.00  0.00     0.200 C 
HETATM   16  C   UNK N   1      35.527  15.379  10.497  0.00  0.00     0.182 C 
HETATM   17  C   UNK N   1      34.389  14.354  10.643  0.00  0.00     0.179 C 
HETATM   18  O   UNK N   1      33.441  14.619   9.634  0.00  0.00    -0.352 OA
BRANCH  15  19
HETATM   19  O   UNK N   1      35.286  17.666   9.726  0.00  0.00    -0.388 OA
HETATM   20  H   UNK N   1      35.512  17.986  10.613  0.00  0.00     0.210 HD
ENDBRANCH  15  19
BRANCH  16  21
HETATM   21  O   UNK N   1      35.738  16.011  11.728  0.00  0.00    -0.390 OA
HETATM   22  H   UNK N   1      35.204  16.370  12.453  0.00  0.00     0.210 HD
ENDBRANCH  16  21
BRANCH  17  23
HETATM   23  C   UNK N   1      34.889  12.918  10.571  0.00  0.00     0.198 C 
BRANCH  23  24
HETATM   24  O   UNK N   1      34.492  12.215  11.712  0.00  0.00    -0.398 OA
HETATM   25  H   UNK N   1      35.132  11.704  12.230  0.00  0.00     0.209 HD
ENDBRANCH  23  24
ENDBRANCH  17  23
ENDBRANCH  12  14
BRANCH   4  26
HETATM   26  N   UNK N   1      29.122  17.455   5.551  0.00  0.00    -0.385 N 
HETATM   27  H   UNK N   1      29.276  18.144   4.866  0.00  0.00     0.157 HD
HETATM   28  H   UNK N   1      28.532  16.691   5.357  0.00  0.00     0.157 HD
ENDBRANCH   4  26
TORSDOF 6
ENDMDL
