REMARK  1 active torsions:
REMARK  status: ('A' for Active; 'I' for Inactive)
REMARK    1  A    between atoms: N_1  and  C_2 
ROOT
HETATM    1  C   UNK N   1       0.478   1.545  -0.000  0.00  0.00     0.133 A 
HETATM    2  N   UNK N   1       1.508   0.795   0.000  0.00  0.00    -0.370 N 
ATOM      3  HN  UNK N   1       2.452   1.183   0.000  1.00  0.00     0.161 HD
HETATM    4  C   UNK N   1       1.275  -0.619  -0.000  0.00  0.00     0.132 A 
HETATM    5  C   UNK N   1      -0.236  -0.851  -0.000  0.00  0.00     0.102 A 
HETATM    6  S   UNK N   1      -1.110   0.753  -0.000  0.00  0.00    -0.093 SA
ENDROOT
BRANCH   1   7
HETATM    7  N   UNK N   1       0.601   2.949   0.000  0.00  0.00    -0.380 N 
HETATM    8  H   UNK N   1       1.494   3.365   0.000  0.00  0.00     0.158 HD
HETATM    9  H   UNK N   1      -0.205   3.514   0.000  0.00  0.00     0.158 HD
ENDBRANCH   1   7
TORSDOF 1
