MODEL 1
REMARK VINA RESULT:      -5.8      0.000      0.000
REMARK  11 active torsions:
REMARK  status: ('A' for Active; 'I' for Inactive)
REMARK    1  A    between atoms: C_2  and  C_5 
REMARK    2  A    between atoms: C_6  and  C_7 
REMARK    3  A    between atoms: C_7  and  C_8 
REMARK    4  A    between atoms: C_8  and  N_9 
REMARK    5  A    between atoms: C_8  and  C_10 
REMARK    6  A    between atoms: C_10  and  O_11 
REMARK    7  A    between atoms: C_13  and  O_14 
REMARK    8  A    between atoms: O_14  and  C_15 
REMARK    9  A    between atoms: C_15  and  P_16 
REMARK   10  A    between atoms: P_16  and  O_17 
REMARK   11  A    between atoms: P_16  and  O_18 
ROOT
HETATM    1  C   UNK N   1      31.640  15.325   6.646  0.00  0.00     0.094 A 
HETATM    2  C   UNK N   1      32.401  15.412   7.820  0.00  0.00     0.029 A 
HETATM    3  C   UNK N   1      32.787  14.096   8.053  0.00  0.00     0.172 A 
HETATM    4  N   UNK N   1      32.283  13.309   7.090  0.00  0.00    -0.238 N 
ATOM      5  HN  UNK N   1      32.398  12.299   7.018  1.00  0.00     0.197 HD
HETATM    6  O   UNK N   1      31.624  14.064   6.268  0.00  0.00    -0.239 OA
ENDROOT
BRANCH   2   7
HETATM    7  C   UNK N   1      32.769  16.613   8.664  0.00  0.00     0.081 C 
BRANCH   7   8
HETATM    8  C   UNK N   1      34.267  16.911   8.772  0.00  0.00     0.177 C 
BRANCH   8   9
HETATM    9  N   UNK N   1      34.623  17.147  10.162  0.00  0.00    -0.417 N 
HETATM   10  H   UNK N   1      33.972  16.956  10.923  0.00  0.00     0.150 HD
HETATM   11  H   UNK N   1      35.549  17.513  10.381  0.00  0.00     0.150 HD
ENDBRANCH   8   9
BRANCH   8  12
HETATM   12  C   UNK N   1      34.610  18.136   7.967  0.00  0.00     0.163 C 
HETATM   13  O   UNK N   1      34.446  18.135   6.759  0.00  0.00    -0.648 OA
BRANCH  12  14
HETATM   14  O   UNK N   1      35.114  19.235   8.568  0.00  0.00    -0.775 OA
HETATM   15  H   UNK N   1      35.205  19.314   9.497  0.00  0.00     0.167 HD
ENDBRANCH  12  14
ENDBRANCH   8  12
ENDBRANCH   7   8
ENDBRANCH   2   7
BRANCH   1  16
HETATM   16  C   UNK N   1      30.899  16.391   5.879  0.00  0.00     0.001 C 
HETATM   17  C   UNK N   1      31.853  17.257   5.078  0.00  0.00     0.021 C 
HETATM   18  C   UNK N   1      29.918  15.753   4.909  0.00  0.00     0.021 C 
HETATM   19  C   UNK N   1      30.079  17.236   6.830  0.00  0.00     0.021 C 
ENDBRANCH   1  16
BRANCH   3  20
HETATM   20  O   UNK N   1      33.519  13.583   9.060  0.00  0.00    -0.322 OA
BRANCH  20  21
HETATM   21  C   UNK N   1      34.877  13.398   9.046  0.00  0.00     0.301 C 
BRANCH  21  22
HETATM   22  P   UNK N   1      35.470  13.691  10.783  0.00  0.00     0.260 P 
HETATM   23  O   UNK N   1      36.569  14.784  10.737  0.00  0.00    -0.652 OA
BRANCH  22  24
HETATM   24  O   UNK N   1      36.224  12.372  11.623  0.00  0.00    -0.328 OA
HETATM   25  H   UNK N   1      36.214  11.991  12.515  0.00  0.00     0.220 HD
ENDBRANCH  22  24
BRANCH  22  26
HETATM   26  O   UNK N   1      34.281  14.377  11.847  0.00  0.00    -0.328 OA
HETATM   27  H   UNK N   1      33.404  14.782  11.763  0.00  0.00     0.220 HD
ENDBRANCH  22  26
ENDBRANCH  21  22
ENDBRANCH  20  21
ENDBRANCH   3  20
TORSDOF 11
ENDMDL
MODEL 2
REMARK VINA RESULT:      -5.8      2.686      4.083
REMARK  11 active torsions:
REMARK  status: ('A' for Active; 'I' for Inactive)
REMARK    1  A    between atoms: C_2  and  C_5 
REMARK    2  A    between atoms: C_6  and  C_7 
REMARK    3  A    between atoms: C_7  and  C_8 
REMARK    4  A    between atoms: C_8  and  N_9 
REMARK    5  A    between atoms: C_8  and  C_10 
REMARK    6  A    between atoms: C_10  and  O_11 
REMARK    7  A    between atoms: C_13  and  O_14 
REMARK    8  A    between atoms: O_14  and  C_15 
REMARK    9  A    between atoms: C_15  and  P_16 
REMARK   10  A    between atoms: P_16  and  O_17 
REMARK   11  A    between atoms: P_16  and  O_18 
ROOT
HETATM    1  C   UNK N   1      32.117  17.121   5.612  0.00  0.00     0.094 A 
HETATM    2  C   UNK N   1      31.827  17.062   6.983  0.00  0.00     0.029 A 
HETATM    3  C   UNK N   1      33.042  17.378   7.583  0.00  0.00     0.172 A 
HETATM    4  N   UNK N   1      33.963  17.596   6.632  0.00  0.00    -0.238 N 
ATOM      5  HN  UNK N   1      34.942  17.834   6.788  1.00  0.00     0.197 HD
HETATM    6  O   UNK N   1      33.385  17.451   5.481  0.00  0.00    -0.239 OA
ENDROOT
BRANCH   2   7
HETATM    7  C   UNK N   1      30.529  16.759   7.699  0.00  0.00     0.081 C 
BRANCH   7   8
HETATM    8  C   UNK N   1      29.857  17.953   8.383  0.00  0.00     0.177 C 
BRANCH   8   9
HETATM    9  N   UNK N   1      30.255  18.007   9.780  0.00  0.00    -0.417 N 
HETATM   10  H   UNK N   1      31.147  17.631  10.100  0.00  0.00     0.150 HD
HETATM   11  H   UNK N   1      29.624  18.433  10.459  0.00  0.00     0.150 HD
ENDBRANCH   8   9
BRANCH   8  12
HETATM   12  C   UNK N   1      28.360  17.816   8.307  0.00  0.00     0.163 C 
HETATM   13  O   UNK N   1      27.838  17.400   7.286  0.00  0.00    -0.648 OA
BRANCH  12  14
HETATM   14  O   UNK N   1      27.584  18.164   9.355  0.00  0.00    -0.775 OA
HETATM   15  H   UNK N   1      26.732  18.542   9.258  0.00  0.00     0.167 HD
ENDBRANCH  12  14
ENDBRANCH   8  12
ENDBRANCH   7   8
ENDBRANCH   2   7
BRANCH   1  16
HETATM   16  C   UNK N   1      31.243  16.846   4.415  0.00  0.00     0.001 C 
HETATM   17  C   UNK N   1      30.771  15.405   4.397  0.00  0.00     0.021 C 
HETATM   18  C   UNK N   1      30.016  17.741   4.445  0.00  0.00     0.021 C 
HETATM   19  C   UNK N   1      31.991  17.180   3.141  0.00  0.00     0.021 C 
ENDBRANCH   1  16
BRANCH   3  20
HETATM   20  O   UNK N   1      33.358  17.452   8.890  0.00  0.00    -0.322 OA
BRANCH  20  21
HETATM   21  C   UNK N   1      34.290  16.680   9.532  0.00  0.00     0.301 C 
BRANCH  21  22
HETATM   22  P   UNK N   1      33.409  15.141  10.091  0.00  0.00     0.260 P 
HETATM   23  O   UNK N   1      33.540  14.078   8.970  0.00  0.00    -0.652 OA
BRANCH  22  24
HETATM   24  O   UNK N   1      31.701  15.237  10.383  0.00  0.00    -0.328 OA
HETATM   25  H   UNK N   1      30.973  15.848  10.186  0.00  0.00     0.220 HD
ENDBRANCH  22  24
BRANCH  22  26
HETATM   26  O   UNK N   1      34.129  14.354  11.462  0.00  0.00    -0.328 OA
HETATM   27  H   UNK N   1      34.936  13.847  11.646  0.00  0.00     0.220 HD
ENDBRANCH  22  26
ENDBRANCH  21  22
ENDBRANCH  20  21
ENDBRANCH   3  20
TORSDOF 11
ENDMDL
MODEL 3
REMARK VINA RESULT:      -5.6      3.264      5.144
REMARK  11 active torsions:
REMARK  status: ('A' for Active; 'I' for Inactive)
REMARK    1  A    between atoms: C_2  and  C_5 
REMARK    2  A    between atoms: C_6  and  C_7 
REMARK    3  A    between atoms: C_7  and  C_8 
REMARK    4  A    between atoms: C_8  and  N_9 
REMARK    5  A    between atoms: C_8  and  C_10 
REMARK    6  A    between atoms: C_10  and  O_11 
REMARK    7  A    between atoms: C_13  and  O_14 
REMARK    8  A    between atoms: O_14  and  C_15 
REMARK    9  A    between atoms: C_15  and  P_16 
REMARK   10  A    between atoms: P_16  and  O_17 
REMARK   11  A    between atoms: P_16  and  O_18 
ROOT
HETATM    1  C   UNK N   1      29.922  17.158   7.690  0.00  0.00     0.094 A 
HETATM    2  C   UNK N   1      31.167  16.563   7.440  0.00  0.00     0.029 A 
HETATM    3  C   UNK N   1      30.978  15.922   6.220  0.00  0.00     0.172 A 
HETATM    4  N   UNK N   1      29.720  16.127   5.801  0.00  0.00    -0.238 N 
ATOM      5  HN  UNK N   1      29.306  15.763   4.943  1.00  0.00     0.197 HD
HETATM    6  O   UNK N   1      29.127  16.870   6.681  0.00  0.00    -0.239 OA
ENDROOT
BRANCH   2   7
HETATM    7  C   UNK N   1      32.448  16.591   8.245  0.00  0.00     0.081 C 
BRANCH   7   8
HETATM    8  C   UNK N   1      33.628  17.310   7.586  0.00  0.00     0.177 C 
BRANCH   8   9
HETATM    9  N   UNK N   1      34.453  16.348   6.873  0.00  0.00    -0.417 N 
HETATM   10  H   UNK N   1      34.938  16.591   6.011  0.00  0.00     0.150 HD
HETATM   11  H   UNK N   1      34.548  15.404   7.247  0.00  0.00     0.150 HD
ENDBRANCH   8   9
BRANCH   8  12
HETATM   12  C   UNK N   1      34.468  17.990   8.633  0.00  0.00     0.163 C 
HETATM   13  O   UNK N   1      35.027  19.043   8.375  0.00  0.00    -0.648 OA
BRANCH  12  14
HETATM   14  O   UNK N   1      34.625  17.438   9.855  0.00  0.00    -0.775 OA
HETATM   15  H   UNK N   1      35.250  17.747  10.480  0.00  0.00     0.167 HD
ENDBRANCH  12  14
ENDBRANCH   8  12
ENDBRANCH   7   8
ENDBRANCH   2   7
BRANCH   1  16
HETATM   16  C   UNK N   1      29.445  17.969   8.868  0.00  0.00     0.001 C 
HETATM   17  C   UNK N   1      30.432  19.065   9.219  0.00  0.00     0.021 C 
HETATM   18  C   UNK N   1      28.111  18.624   8.548  0.00  0.00     0.021 C 
HETATM   19  C   UNK N   1      29.206  17.062  10.057  0.00  0.00     0.021 C 
ENDBRANCH   1  16
BRANCH   3  20
HETATM   20  O   UNK N   1      31.838  15.172   5.504  0.00  0.00    -0.322 OA
BRANCH  20  21
HETATM   21  C   UNK N   1      31.685  14.816   4.190  0.00  0.00     0.301 C 
BRANCH  21  22
HETATM   22  P   UNK N   1      32.623  16.070   3.188  0.00  0.00     0.260 P 
HETATM   23  O   UNK N   1      33.432  16.959   4.167  0.00  0.00    -0.652 OA
BRANCH  22  24
HETATM   24  O   UNK N   1      31.714  17.206   2.241  0.00  0.00    -0.328 OA
HETATM   25  H   UNK N   1      30.784  17.446   2.109  0.00  0.00     0.220 HD
ENDBRANCH  22  24
BRANCH  22  26
HETATM   26  O   UNK N   1      33.854  15.400   2.162  0.00  0.00    -0.328 OA
HETATM   27  H   UNK N   1      34.816  15.278   2.194  0.00  0.00     0.220 HD
ENDBRANCH  22  26
ENDBRANCH  21  22
ENDBRANCH  20  21
ENDBRANCH   3  20
TORSDOF 11
ENDMDL
MODEL 4
REMARK VINA RESULT:      -5.5     13.193     14.447
REMARK  11 active torsions:
REMARK  status: ('A' for Active; 'I' for Inactive)
REMARK    1  A    between atoms: C_2  and  C_5 
REMARK    2  A    between atoms: C_6  and  C_7 
REMARK    3  A    between atoms: C_7  and  C_8 
REMARK    4  A    between atoms: C_8  and  N_9 
REMARK    5  A    between atoms: C_8  and  C_10 
REMARK    6  A    between atoms: C_10  and  O_11 
REMARK    7  A    between atoms: C_13  and  O_14 
REMARK    8  A    between atoms: O_14  and  C_15 
REMARK    9  A    between atoms: C_15  and  P_16 
REMARK   10  A    between atoms: P_16  and  O_17 
REMARK   11  A    between atoms: P_16  and  O_18 
ROOT
HETATM    1  C   UNK N   1      19.841  15.352   2.565  0.00  0.00     0.094 A 
HETATM    2  C   UNK N   1      20.249  16.514   3.236  0.00  0.00     0.029 A 
HETATM    3  C   UNK N   1      19.793  16.313   4.535  0.00  0.00     0.172 A 
HETATM    4  N   UNK N   1      19.166  15.129   4.607  0.00  0.00    -0.238 N 
ATOM      5  HN  UNK N   1      18.726  14.732   5.436  1.00  0.00     0.197 HD
HETATM    6  O   UNK N   1      19.223  14.580   3.434  0.00  0.00    -0.239 OA
ENDROOT
BRANCH   2   7
HETATM    7  C   UNK N   1      21.016  17.718   2.735  0.00  0.00     0.081 C 
BRANCH   7   8
HETATM    8  C   UNK N   1      20.218  19.021   2.646  0.00  0.00     0.177 C 
BRANCH   8   9
HETATM    9  N   UNK N   1      18.823  18.724   2.364  0.00  0.00    -0.417 N 
HETATM   10  H   UNK N   1      18.551  18.037   1.662  0.00  0.00     0.150 HD
HETATM   11  H   UNK N   1      18.097  19.217   2.883  0.00  0.00     0.150 HD
ENDBRANCH   8   9
BRANCH   8  12
HETATM   12  C   UNK N   1      20.764  19.887   1.543  0.00  0.00     0.163 C 
HETATM   13  O   UNK N   1      21.406  20.887   1.816  0.00  0.00    -0.648 OA
BRANCH  12  14
HETATM   14  O   UNK N   1      20.536  19.578   0.249  0.00  0.00    -0.775 OA
HETATM   15  H   UNK N   1      19.916  20.034  -0.285  0.00  0.00     0.167 HD
ENDBRANCH  12  14
ENDBRANCH   8  12
ENDBRANCH   7   8
ENDBRANCH   2   7
BRANCH   1  16
HETATM   16  C   UNK N   1      19.989  14.955   1.118  0.00  0.00     0.001 C 
HETATM   17  C   UNK N   1      21.409  14.525   0.807  0.00  0.00     0.021 C 
HETATM   18  C   UNK N   1      19.065  13.792   0.796  0.00  0.00     0.021 C 
HETATM   19  C   UNK N   1      19.568  16.101   0.222  0.00  0.00     0.021 C 
ENDBRANCH   1  16
BRANCH   3  20
HETATM   20  O   UNK N   1      19.887  17.119   5.610  0.00  0.00    -0.322 OA
BRANCH  20  21
HETATM   21  C   UNK N   1      20.894  17.097   6.538  0.00  0.00     0.301 C 
BRANCH  21  22
HETATM   22  P   UNK N   1      20.086  16.836   8.192  0.00  0.00     0.260 P 
HETATM   23  O   UNK N   1      18.644  16.324   7.947  0.00  0.00    -0.652 OA
BRANCH  22  24
HETATM   24  O   UNK N   1      19.872  18.216   9.224  0.00  0.00    -0.328 OA
HETATM   25  H   UNK N   1      19.135  18.719   9.604  0.00  0.00     0.220 HD
ENDBRANCH  22  24
BRANCH  22  26
HETATM   26  O   UNK N   1      20.792  15.572   9.151  0.00  0.00    -0.328 OA
HETATM   27  H   UNK N   1      21.100  15.462  10.065  0.00  0.00     0.220 HD
ENDBRANCH  22  26
ENDBRANCH  21  22
ENDBRANCH  20  21
ENDBRANCH   3  20
TORSDOF 11
ENDMDL
MODEL 5
REMARK VINA RESULT:      -5.5      2.547      4.010
REMARK  11 active torsions:
REMARK  status: ('A' for Active; 'I' for Inactive)
REMARK    1  A    between atoms: C_2  and  C_5 
REMARK    2  A    between atoms: C_6  and  C_7 
REMARK    3  A    between atoms: C_7  and  C_8 
REMARK    4  A    between atoms: C_8  and  N_9 
REMARK    5  A    between atoms: C_8  and  C_10 
REMARK    6  A    between atoms: C_10  and  O_11 
REMARK    7  A    between atoms: C_13  and  O_14 
REMARK    8  A    between atoms: O_14  and  C_15 
REMARK    9  A    between atoms: C_15  and  P_16 
REMARK   10  A    between atoms: P_16  and  O_17 
REMARK   11  A    between atoms: P_16  and  O_18 
ROOT
HETATM    1  C   UNK N   1      29.967  17.545   7.931  0.00  0.00     0.094 A 
HETATM    2  C   UNK N   1      30.990  17.001   7.140  0.00  0.00     0.029 A 
HETATM    3  C   UNK N   1      32.107  17.069   7.967  0.00  0.00     0.172 A 
HETATM    4  N   UNK N   1      31.757  17.615   9.141  0.00  0.00    -0.238 N 
ATOM      5  HN  UNK N   1      32.378  17.794   9.929  1.00  0.00     0.197 HD
HETATM    6  O   UNK N   1      30.487  17.872   9.095  0.00  0.00    -0.239 OA
ENDROOT
BRANCH   2   7
HETATM    7  C   UNK N   1      30.952  16.440   5.736  0.00  0.00     0.081 C 
BRANCH   7   8
HETATM    8  C   UNK N   1      31.194  17.452   4.612  0.00  0.00     0.177 C 
BRANCH   8   9
HETATM    9  N   UNK N   1      30.365  17.122   3.466  0.00  0.00    -0.417 N 
HETATM   10  H   UNK N   1      30.345  17.705   2.630  0.00  0.00     0.150 HD
HETATM   11  H   UNK N   1      29.787  16.282   3.497  0.00  0.00     0.150 HD
ENDBRANCH   8   9
BRANCH   8  12
HETATM   12  C   UNK N   1      32.639  17.421   4.193  0.00  0.00     0.163 C 
HETATM   13  O   UNK N   1      32.951  16.934   3.120  0.00  0.00    -0.648 OA
BRANCH  12  14
HETATM   14  O   UNK N   1      33.601  17.914   5.003  0.00  0.00    -0.775 OA
HETATM   15  H   UNK N   1      33.517  18.727   5.462  0.00  0.00     0.167 HD
ENDBRANCH  12  14
ENDBRANCH   8  12
ENDBRANCH   7   8
ENDBRANCH   2   7
BRANCH   1  16
HETATM   16  C   UNK N   1      28.515  17.796   7.614  0.00  0.00     0.001 C 
HETATM   17  C   UNK N   1      27.860  16.563   7.021  0.00  0.00     0.021 C 
HETATM   18  C   UNK N   1      27.759  18.167   8.879  0.00  0.00     0.021 C 
HETATM   19  C   UNK N   1      28.387  18.975   6.673  0.00  0.00     0.021 C 
ENDBRANCH   1  16
BRANCH   3  20
HETATM   20  O   UNK N   1      33.379  16.702   7.720  0.00  0.00    -0.322 OA
BRANCH  20  21
HETATM   21  C   UNK N   1      33.941  15.497   8.051  0.00  0.00     0.301 C 
BRANCH  21  22
HETATM   22  P   UNK N   1      34.414  15.608   9.846  0.00  0.00     0.260 P 
HETATM   23  O   UNK N   1      35.752  14.850  10.037  0.00  0.00    -0.652 OA
BRANCH  22  24
HETATM   24  O   UNK N   1      33.352  14.890  11.016  0.00  0.00    -0.328 OA
HETATM   25  H   UNK N   1      32.454  14.523  11.040  0.00  0.00     0.220 HD
ENDBRANCH  22  24
BRANCH  22  26
HETATM   26  O   UNK N   1      34.791  17.211  10.396  0.00  0.00    -0.328 OA
HETATM   27  H   UNK N   1      34.312  17.956  10.793  0.00  0.00     0.220 HD
ENDBRANCH  22  26
ENDBRANCH  21  22
ENDBRANCH  20  21
ENDBRANCH   3  20
TORSDOF 11
ENDMDL
MODEL 6
REMARK VINA RESULT:      -5.5      3.081      4.730
REMARK  11 active torsions:
REMARK  status: ('A' for Active; 'I' for Inactive)
REMARK    1  A    between atoms: C_2  and  C_5 
REMARK    2  A    between atoms: C_6  and  C_7 
REMARK    3  A    between atoms: C_7  and  C_8 
REMARK    4  A    between atoms: C_8  and  N_9 
REMARK    5  A    between atoms: C_8  and  C_10 
REMARK    6  A    between atoms: C_10  and  O_11 
REMARK    7  A    between atoms: C_13  and  O_14 
REMARK    8  A    between atoms: O_14  and  C_15 
REMARK    9  A    between atoms: C_15  and  P_16 
REMARK   10  A    between atoms: P_16  and  O_17 
REMARK   11  A    between atoms: P_16  and  O_18 
ROOT
HETATM    1  C   UNK N   1      30.641  15.434   5.079  0.00  0.00     0.094 A 
HETATM    2  C   UNK N   1      30.407  16.383   6.085  0.00  0.00     0.029 A 
HETATM    3  C   UNK N   1      31.488  16.213   6.945  0.00  0.00     0.172 A 
HETATM    4  N   UNK N   1      32.281  15.239   6.474  0.00  0.00    -0.238 N 
ATOM      5  HN  UNK N   1      33.138  14.899   6.909  1.00  0.00     0.197 HD
HETATM    6  O   UNK N   1      31.764  14.809   5.366  0.00  0.00    -0.239 OA
ENDROOT
BRANCH   2   7
HETATM    7  C   UNK N   1      29.288  17.388   6.245  0.00  0.00     0.081 C 
BRANCH   7   8
HETATM    8  C   UNK N   1      28.250  17.057   7.320  0.00  0.00     0.177 C 
BRANCH   8   9
HETATM    9  N   UNK N   1      26.926  17.002   6.724  0.00  0.00    -0.417 N 
HETATM   10  H   UNK N   1      26.791  16.966   5.714  0.00  0.00     0.150 HD
HETATM   11  H   UNK N   1      26.108  17.000   7.334  0.00  0.00     0.150 HD
ENDBRANCH   8   9
BRANCH   8  12
HETATM   12  C   UNK N   1      28.260  18.114   8.391  0.00  0.00     0.163 C 
HETATM   13  O   UNK N   1      29.062  19.031   8.333  0.00  0.00    -0.648 OA
BRANCH  12  14
HETATM   14  O   UNK N   1      27.399  18.050   9.428  0.00  0.00    -0.775 OA
HETATM   15  H   UNK N   1      26.550  18.446   9.414  0.00  0.00     0.167 HD
ENDBRANCH  12  14
ENDBRANCH   8  12
ENDBRANCH   7   8
ENDBRANCH   2   7
BRANCH   1  16
HETATM   16  C   UNK N   1      29.823  15.074   3.864  0.00  0.00     0.001 C 
HETATM   17  C   UNK N   1      29.686  16.255   2.923  0.00  0.00     0.021 C 
HETATM   18  C   UNK N   1      30.488  13.941   3.101  0.00  0.00     0.021 C 
HETATM   19  C   UNK N   1      28.461  14.568   4.290  0.00  0.00     0.021 C 
ENDBRANCH   1  16
BRANCH   3  20
HETATM   20  O   UNK N   1      31.773  16.849   8.098  0.00  0.00    -0.322 OA
BRANCH  20  21
HETATM   21  C   UNK N   1      32.395  18.065   8.206  0.00  0.00     0.301 C 
BRANCH  21  22
HETATM   22  P   UNK N   1      34.205  17.714   8.450  0.00  0.00     0.260 P 
HETATM   23  O   UNK N   1      34.978  19.049   8.294  0.00  0.00    -0.652 OA
BRANCH  22  24
HETATM   24  O   UNK N   1      34.988  16.642   7.332  0.00  0.00    -0.328 OA
HETATM   25  H   UNK N   1      35.161  16.602   6.379  0.00  0.00     0.220 HD
ENDBRANCH  22  24
BRANCH  22  26
HETATM   26  O   UNK N   1      34.632  17.201  10.053  0.00  0.00    -0.328 OA
HETATM   27  H   UNK N   1      34.281  17.312  10.951  0.00  0.00     0.220 HD
ENDBRANCH  22  26
ENDBRANCH  21  22
ENDBRANCH  20  21
ENDBRANCH   3  20
TORSDOF 11
ENDMDL
MODEL 7
REMARK VINA RESULT:      -5.5      5.508      7.616
REMARK  11 active torsions:
REMARK  status: ('A' for Active; 'I' for Inactive)
REMARK    1  A    between atoms: C_2  and  C_5 
REMARK    2  A    between atoms: C_6  and  C_7 
REMARK    3  A    between atoms: C_7  and  C_8 
REMARK    4  A    between atoms: C_8  and  N_9 
REMARK    5  A    between atoms: C_8  and  C_10 
REMARK    6  A    between atoms: C_10  and  O_11 
REMARK    7  A    between atoms: C_13  and  O_14 
REMARK    8  A    between atoms: O_14  and  C_15 
REMARK    9  A    between atoms: C_15  and  P_16 
REMARK   10  A    between atoms: P_16  and  O_17 
REMARK   11  A    between atoms: P_16  and  O_18 
ROOT
HETATM    1  C   UNK N   1      30.957  17.118   5.268  0.00  0.00     0.094 A 
HETATM    2  C   UNK N   1      29.902  17.155   6.192  0.00  0.00     0.029 A 
HETATM    3  C   UNK N   1      28.802  17.497   5.411  0.00  0.00     0.172 A 
HETATM    4  N   UNK N   1      29.193  17.649   4.136  0.00  0.00    -0.238 N 
ATOM      5  HN  UNK N   1      28.596  17.909   3.352  1.00  0.00     0.197 HD
HETATM    6  O   UNK N   1      30.465  17.406   4.081  0.00  0.00    -0.239 OA
ENDROOT
BRANCH   2   7
HETATM    7  C   UNK N   1      29.891  16.882   7.679  0.00  0.00     0.081 C 
BRANCH   7   8
HETATM    8  C   UNK N   1      29.604  18.092   8.572  0.00  0.00     0.177 C 
BRANCH   8   9
HETATM    9  N   UNK N   1      30.425  18.025   9.769  0.00  0.00    -0.417 N 
HETATM   10  H   UNK N   1      30.262  17.328  10.495  0.00  0.00     0.150 HD
HETATM   11  H   UNK N   1      31.186  18.694   9.887  0.00  0.00     0.150 HD
ENDBRANCH   8   9
BRANCH   8  12
HETATM   12  C   UNK N   1      28.154  18.104   8.976  0.00  0.00     0.163 C 
HETATM   13  O   UNK N   1      27.705  17.197   9.656  0.00  0.00    -0.648 OA
BRANCH  12  14
HETATM   14  O   UNK N   1      27.337  19.102   8.578  0.00  0.00    -0.775 OA
HETATM   15  H   UNK N   1      27.507  20.006   8.760  0.00  0.00     0.167 HD
ENDBRANCH  12  14
ENDBRANCH   8  12
ENDBRANCH   7   8
ENDBRANCH   2   7
BRANCH   1  16
HETATM   16  C   UNK N   1      32.426  16.847   5.472  0.00  0.00     0.001 C 
HETATM   17  C   UNK N   1      33.236  17.265   4.260  0.00  0.00     0.021 C 
HETATM   18  C   UNK N   1      32.941  17.625   6.671  0.00  0.00     0.021 C 
HETATM   19  C   UNK N   1      32.644  15.381   5.782  0.00  0.00     0.021 C 
ENDBRANCH   1  16
BRANCH   3  20
HETATM   20  O   UNK N   1      27.521  17.694   5.776  0.00  0.00    -0.322 OA
BRANCH  20  21
HETATM   21  C   UNK N   1      26.475  17.928   4.922  0.00  0.00     0.301 C 
BRANCH  21  22
HETATM   22  P   UNK N   1      26.186  19.765   4.929  0.00  0.00     0.260 P 
HETATM   23  O   UNK N   1      27.399  20.444   4.244  0.00  0.00    -0.652 OA
BRANCH  22  24
HETATM   24  O   UNK N   1      26.066  20.568   6.464  0.00  0.00    -0.328 OA
HETATM   25  H   UNK N   1      25.441  21.153   6.919  0.00  0.00     0.220 HD
ENDBRANCH  22  24
BRANCH  22  26
HETATM   26  O   UNK N   1      24.845  20.289   3.959  0.00  0.00    -0.328 OA
HETATM   27  H   UNK N   1      24.714  20.815   3.154  0.00  0.00     0.220 HD
ENDBRANCH  22  26
ENDBRANCH  21  22
ENDBRANCH  20  21
ENDBRANCH   3  20
TORSDOF 11
ENDMDL
MODEL 8
REMARK VINA RESULT:      -5.4      2.506      4.616
REMARK  11 active torsions:
REMARK  status: ('A' for Active; 'I' for Inactive)
REMARK    1  A    between atoms: C_2  and  C_5 
REMARK    2  A    between atoms: C_6  and  C_7 
REMARK    3  A    between atoms: C_7  and  C_8 
REMARK    4  A    between atoms: C_8  and  N_9 
REMARK    5  A    between atoms: C_8  and  C_10 
REMARK    6  A    between atoms: C_10  and  O_11 
REMARK    7  A    between atoms: C_13  and  O_14 
REMARK    8  A    between atoms: O_14  and  C_15 
REMARK    9  A    between atoms: C_15  and  P_16 
REMARK   10  A    between atoms: P_16  and  O_17 
REMARK   11  A    between atoms: P_16  and  O_18 
ROOT
HETATM    1  C   UNK N   1      34.437  16.715   9.419  0.00  0.00     0.094 A 
HETATM    2  C   UNK N   1      34.055  15.441   9.866  0.00  0.00     0.029 A 
HETATM    3  C   UNK N   1      34.904  15.210  10.944  0.00  0.00     0.172 A 
HETATM    4  N   UNK N   1      35.715  16.266  11.103  0.00  0.00    -0.238 N 
ATOM      5  HN  UNK N   1      36.444  16.362  11.810  1.00  0.00     0.197 HD
HETATM    6  O   UNK N   1      35.407  17.142  10.199  0.00  0.00    -0.239 OA
ENDROOT
BRANCH   2   7
HETATM    7  C   UNK N   1      32.979  14.506   9.359  0.00  0.00     0.081 C 
BRANCH   7   8
HETATM    8  C   UNK N   1      33.463  13.372   8.451  0.00  0.00     0.177 C 
BRANCH   8   9
HETATM    9  N   UNK N   1      32.701  13.375   7.213  0.00  0.00    -0.417 N 
HETATM   10  H   UNK N   1      32.925  14.008   6.446  0.00  0.00     0.150 HD
HETATM   11  H   UNK N   1      31.922  12.726   7.108  0.00  0.00     0.150 HD
ENDBRANCH   8   9
BRANCH   8  12
HETATM   12  C   UNK N   1      33.273  12.045   9.136  0.00  0.00     0.163 C 
HETATM   13  O   UNK N   1      32.546  11.202   8.638  0.00  0.00    -0.648 OA
BRANCH  12  14
HETATM   14  O   UNK N   1      33.889  11.782  10.308  0.00  0.00    -0.775 OA
HETATM   15  H   UNK N   1      34.713  11.341  10.366  0.00  0.00     0.167 HD
ENDBRANCH  12  14
ENDBRANCH   8  12
ENDBRANCH   7   8
ENDBRANCH   2   7
BRANCH   1  16
HETATM   16  C   UNK N   1      33.935  17.535   8.257  0.00  0.00     0.001 C 
HETATM   17  C   UNK N   1      34.687  18.847   8.144  0.00  0.00     0.021 C 
HETATM   18  C   UNK N   1      34.125  16.772   6.957  0.00  0.00     0.021 C 
HETATM   19  C   UNK N   1      32.448  17.781   8.402  0.00  0.00     0.021 C 
ENDBRANCH   1  16
BRANCH   3  20
HETATM   20  O   UNK N   1      34.997  14.130  11.744  0.00  0.00    -0.322 OA
BRANCH  20  21
HETATM   21  C   UNK N   1      36.159  13.488  12.084  0.00  0.00     0.301 C 
BRANCH  21  22
HETATM   22  P   UNK N   1      36.302  13.599  13.935  0.00  0.00     0.260 P 
HETATM   23  O   UNK N   1      36.660  15.062  14.302  0.00  0.00    -0.652 OA
BRANCH  22  24
HETATM   24  O   UNK N   1      37.532  12.656  14.717  0.00  0.00    -0.328 OA
HETATM   25  H   UNK N   1      37.679  12.249  15.585  0.00  0.00     0.220 HD
ENDBRANCH  22  24
BRANCH  22  26
HETATM   26  O   UNK N   1      34.815  13.333  14.792  0.00  0.00    -0.328 OA
HETATM   27  H   UNK N   1      34.228  13.846  15.369  0.00  0.00     0.220 HD
ENDBRANCH  22  26
ENDBRANCH  21  22
ENDBRANCH  20  21
ENDBRANCH   3  20
TORSDOF 11
ENDMDL
MODEL 9
REMARK VINA RESULT:      -5.4      4.971      7.195
REMARK  11 active torsions:
REMARK  status: ('A' for Active; 'I' for Inactive)
REMARK    1  A    between atoms: C_2  and  C_5 
REMARK    2  A    between atoms: C_6  and  C_7 
REMARK    3  A    between atoms: C_7  and  C_8 
REMARK    4  A    between atoms: C_8  and  N_9 
REMARK    5  A    between atoms: C_8  and  C_10 
REMARK    6  A    between atoms: C_10  and  O_11 
REMARK    7  A    between atoms: C_13  and  O_14 
REMARK    8  A    between atoms: O_14  and  C_15 
REMARK    9  A    between atoms: C_15  and  P_16 
REMARK   10  A    between atoms: P_16  and  O_17 
REMARK   11  A    between atoms: P_16  and  O_18 
ROOT
HETATM    1  C   UNK N   1      31.956  17.191   5.968  0.00  0.00     0.094 A 
HETATM    2  C   UNK N   1      30.578  17.229   6.227  0.00  0.00     0.029 A 
HETATM    3  C   UNK N   1      30.028  17.566   4.994  0.00  0.00     0.172 A 
HETATM    4  N   UNK N   1      31.012  17.716   4.095  0.00  0.00    -0.238 N 
ATOM      5  HN  UNK N   1      30.897  17.973   3.116  1.00  0.00     0.197 HD
HETATM    6  O   UNK N   1      32.136  17.475   4.695  0.00  0.00    -0.239 OA
ENDROOT
BRANCH   2   7
HETATM    7  C   UNK N   1      29.812  16.959   7.503  0.00  0.00     0.081 C 
BRANCH   7   8
HETATM    8  C   UNK N   1      29.678  18.148   8.459  0.00  0.00     0.177 C 
BRANCH   8   9
HETATM    9  N   UNK N   1      30.052  17.742   9.804  0.00  0.00    -0.417 N 
HETATM   10  H   UNK N   1      30.969  17.956  10.195  0.00  0.00     0.150 HD
HETATM   11  H   UNK N   1      29.377  17.230  10.372  0.00  0.00     0.150 HD
ENDBRANCH   8   9
BRANCH   8  12
HETATM   12  C   UNK N   1      28.256  18.639   8.475  0.00  0.00     0.163 C 
HETATM   13  O   UNK N   1      27.884  19.453   7.647  0.00  0.00    -0.648 OA
BRANCH  12  14
HETATM   14  O   UNK N   1      27.388  18.201   9.411  0.00  0.00    -0.775 OA
HETATM   15  H   UNK N   1      27.599  18.152  10.323  0.00  0.00     0.167 HD
ENDBRANCH  12  14
ENDBRANCH   8  12
ENDBRANCH   7   8
ENDBRANCH   2   7
BRANCH   1  16
HETATM   16  C   UNK N   1      33.118  16.924   6.891  0.00  0.00     0.001 C 
HETATM   17  C   UNK N   1      34.396  16.682   6.112  0.00  0.00     0.021 C 
HETATM   18  C   UNK N   1      33.345  18.116   7.806  0.00  0.00     0.021 C 
HETATM   19  C   UNK N   1      32.805  15.744   7.788  0.00  0.00     0.021 C 
ENDBRANCH   1  16
BRANCH   3  20
HETATM   20  O   UNK N   1      28.739  17.761   4.657  0.00  0.00    -0.322 OA
BRANCH  20  21
HETATM   21  C   UNK N   1      27.837  16.777   4.349  0.00  0.00     0.301 C 
BRANCH  21  22
HETATM   22  P   UNK N   1      26.210  17.301   5.082  0.00  0.00     0.260 P 
HETATM   23  O   UNK N   1      25.117  17.127   3.996  0.00  0.00    -0.652 OA
BRANCH  22  24
HETATM   24  O   UNK N   1      26.037  18.951   5.593  0.00  0.00    -0.328 OA
HETATM   25  H   UNK N   1      25.339  19.520   5.954  0.00  0.00     0.220 HD
ENDBRANCH  22  24
BRANCH  22  26
HETATM   26  O   UNK N   1      25.640  16.291   6.375  0.00  0.00    -0.328 OA
HETATM   27  H   UNK N   1      25.088  16.395   7.166  0.00  0.00     0.220 HD
ENDBRANCH  22  26
ENDBRANCH  21  22
ENDBRANCH  20  21
ENDBRANCH   3  20
TORSDOF 11
ENDMDL
