MODEL 1
REMARK VINA RESULT:      -5.5      0.000      0.000
REMARK WARNING: 32 MAX_TORS EXCEEDED!!!
REMARK  43 active torsions:
REMARK  status: ('A' for Active; 'I' for Inactive)
REMARK    1  A    between atoms: C_2  and  C_1 
REMARK    2  A    between atoms: C_1  and  O_8 
REMARK    3  A    between atoms: C_12  and  C_2 
REMARK    4  A    between atoms: C_2  and  O_33 
REMARK    5  A    between atoms: P_3  and  O_16 
REMARK    6  A    between atoms: O_8  and  P_3 
REMARK    7  A    between atoms: P_3  and  O_10 
REMARK    8  A    between atoms: C_4  and  O_15 
REMARK    9  A    between atoms: C_4  and  C_5 
REMARK   10  A    between atoms: C_4  and  C_6 
REMARK   11  A    between atoms: O_9  and  C_5 
REMARK   12  A    between atoms: O_10  and  C_6 
REMARK   13  A    between atoms: C_7  and  O_9 
REMARK   14  A    between atoms: C_11  and  C_7 
REMARK   15  A    between atoms: C_11  and  C_17 
REMARK   16  A    between atoms: C_12  and  O_32 
REMARK   17  A    between atoms: C_13  and  O_15 
REMARK   18  A    between atoms: C_24  and  C_13 
REMARK   19  A    between atoms: C_17  and  C_18 
REMARK   20  A    between atoms: C_18  and  C_19 
REMARK   21  A    between atoms: C_19  and  C_20 
REMARK   22  A    between atoms: C_20  and  C_21 
REMARK   23  A    between atoms: C_21  and  C_22 
REMARK   24  A    between atoms: C_22  and  C_23 
REMARK   25  A    between atoms: C_23  and  C_34 
REMARK   26  A    between atoms: C_24  and  C_25 
REMARK   27  A    between atoms: C_25  and  C_26 
REMARK   28  A    between atoms: C_26  and  C_27 
REMARK   29  A    between atoms: C_27  and  C_28 
REMARK   30  A    between atoms: C_28  and  C_29 
REMARK   31  A    between atoms: C_29  and  C_30 
REMARK   32  A    between atoms: C_30  and  C_31 
REMARK   33  A    between atoms: C_31  and  C_39 
REMARK   34  A    between atoms: C_34  and  C_35 
REMARK   35  A    between atoms: C_35  and  C_36 
REMARK   36  A    between atoms: C_36  and  C_37 
REMARK   37  A    between atoms: C_37  and  C_38 
REMARK   38  A    between atoms: C_38  and  C_46 
REMARK   39  A    between atoms: C_39  and  C_40 
REMARK   40  A    between atoms: C_40  and  C_41 
REMARK   41  A    between atoms: C_41  and  C_42 
REMARK   42  A    between atoms: C_42  and  C_43 
REMARK   43  A    between atoms: C_43  and  C_48 
ROOT
HETATM    1  C   UNK N   1      20.810  15.286   7.807  0.00  0.00     0.180 C 
ENDROOT
BRANCH   1   2
HETATM    2  O   UNK N   1      21.169  14.751   9.030  0.00  0.00    -0.312 OA
BRANCH   2   3
HETATM    3  C   UNK N   1      20.390  13.969   9.820  0.00  0.00     0.259 C 
HETATM    4  O   UNK N   1      19.200  14.204   9.903  0.00  0.00    -0.265 OA
BRANCH   3   5
HETATM    5  C   UNK N   1      20.958  12.814  10.577  0.00  0.00     0.111 C 
BRANCH   5   6
HETATM    6  C   UNK N   1      22.469  12.888  10.526  0.00  0.00     0.010 C 
BRANCH   6   7
HETATM    7  C   UNK N   1      23.030  11.548  10.115  0.00  0.00     0.000 C 
BRANCH   7   8
HETATM    8  C   UNK N   1      24.197  11.718   9.161  0.00  0.00     0.000 C 
BRANCH   8   9
HETATM    9  C   UNK N   1      24.613  13.173   9.097  0.00  0.00     0.000 C 
BRANCH   9  10
HETATM   10  C   UNK N   1      25.176  13.494   7.732  0.00  0.00     0.000 C 
BRANCH  10  11
HETATM   11  C   UNK N   1      24.057  13.687   6.726  0.00  0.00     0.000 C 
BRANCH  11  12
HETATM   12  C   UNK N   1      24.077  12.581   5.680  0.00  0.00     0.000 C 
BRANCH  12  13
HETATM   13  C   UNK N   1      24.806  13.037   4.420  0.00  0.00     0.000 C 
BRANCH  13  14
HETATM   14  C   UNK N   1      24.529  14.501   4.095  0.00  0.00     0.000 C 
BRANCH  14  15
HETATM   15  C   UNK N   1      25.780  15.277   3.694  0.00  0.00     0.000 C 
BRANCH  15  16
HETATM   16  C   UNK N   1      26.623  15.643   4.905  0.00  0.00     0.000 C 
BRANCH  16  17
HETATM   17  C   UNK N   1      28.101  15.676   4.536  0.00  0.00    -0.000 C 
BRANCH  17  18
HETATM   18  C   UNK N   1      28.352  16.407   3.224  0.00  0.00    -0.005 C 
HETATM   19  C   UNK N   1      29.835  16.471   2.912  0.00  0.00     0.005 C 
ENDBRANCH  17  18
ENDBRANCH  16  17
ENDBRANCH  15  16
ENDBRANCH  14  15
ENDBRANCH  13  14
ENDBRANCH  12  13
ENDBRANCH  11  12
ENDBRANCH  10  11
ENDBRANCH   9  10
ENDBRANCH   8   9
ENDBRANCH   7   8
ENDBRANCH   6   7
ENDBRANCH   5   6
ENDBRANCH   3   5
ENDBRANCH   2   3
ENDBRANCH   1   2
BRANCH   1  20
HETATM   20  C   UNK N   1      20.866  16.804   7.642  0.00  0.00     0.213 C 
BRANCH  20  21
HETATM   21  O   UNK N   1      20.738  17.215   6.331  0.00  0.00    -0.319 OA
BRANCH  21  22
HETATM   22  C   UNK N   1      21.502  18.189   5.770  0.00  0.00     0.258 C 
HETATM   23  O   UNK N   1      21.086  19.331   5.648  0.00  0.00    -0.265 OA
BRANCH  22  24
HETATM   24  C   UNK N   1      22.902  17.871   5.376  0.00  0.00     0.111 C 
BRANCH  24  25
HETATM   25  C   UNK N   1      23.207  18.300   3.949  0.00  0.00     0.010 C 
BRANCH  25  26
HETATM   26  C   UNK N   1      24.689  18.620   3.788  0.00  0.00     0.000 C 
BRANCH  26  27
HETATM   27  C   UNK N   1      24.925  20.124   3.709  0.00  0.00     0.000 C 
BRANCH  27  28
HETATM   28  C   UNK N   1      26.336  20.456   3.268  0.00  0.00     0.000 C 
BRANCH  28  29
HETATM   29  C   UNK N   1      27.357  19.915   4.255  0.00  0.00     0.000 C 
BRANCH  29  30
HETATM   30  C   UNK N   1      27.473  20.833   5.453  0.00  0.00     0.000 C 
BRANCH  30  31
HETATM   31  C   UNK N   1      27.484  20.018   6.734  0.00  0.00     0.000 C 
BRANCH  31  32
HETATM   32  C   UNK N   1      28.241  18.716   6.526  0.00  0.00     0.000 C 
BRANCH  32  33
HETATM   33  C   UNK N   1      27.928  17.725   7.639  0.00  0.00     0.000 C 
BRANCH  33  34
HETATM   34  C   UNK N   1      28.340  18.289   8.985  0.00  0.00     0.000 C 
BRANCH  34  35
HETATM   35  C   UNK N   1      29.608  17.619   9.472  0.00  0.00     0.000 C 
BRANCH  35  36
HETATM   36  C   UNK N   1      30.794  18.372   8.906  0.00  0.00    -0.000 C 
BRANCH  36  37
HETATM   37  C   UNK N   1      31.842  17.410   8.395  0.00  0.00    -0.005 C 
HETATM   38  C   UNK N   1      31.573  17.118   6.933  0.00  0.00     0.005 C 
ENDBRANCH  36  37
ENDBRANCH  35  36
ENDBRANCH  34  35
ENDBRANCH  33  34
ENDBRANCH  32  33
ENDBRANCH  31  32
ENDBRANCH  30  31
ENDBRANCH  29  30
ENDBRANCH  28  29
ENDBRANCH  27  28
ENDBRANCH  26  27
ENDBRANCH  25  26
ENDBRANCH  24  25
ENDBRANCH  22  24
ENDBRANCH  21  22
ENDBRANCH  20  21
ENDBRANCH   1  20
BRANCH   1  39
HETATM   39  C   UNK N   1      20.870  14.387   6.565  0.00  0.00     0.215 C 
BRANCH  39  40
HETATM   40  O   UNK N   1      19.599  14.084   5.999  0.00  0.00    -0.294 OA
BRANCH  40  41
HETATM   41  P   UNK N   1      19.351  14.411   4.253  0.00  0.00     0.393 P 
HETATM   42  O   UNK N   1      20.872  14.723   4.136  0.00  0.00    -0.631 OA
BRANCH  41  43
HETATM   43  O   UNK N   1      18.447  15.480   5.284  0.00  0.00    -0.307 OA
HETATM   44  H   UNK N   1      18.478  16.441   5.154  0.00  0.00     0.222 HD
ENDBRANCH  41  43
BRANCH  41  45
HETATM   45  O   UNK N   1      19.330  16.081   3.736  0.00  0.00    -0.294 OA
BRANCH  45  46
HETATM   46  C   UNK N   1      20.312  16.204   2.743  0.00  0.00     0.214 C 
BRANCH  46  47
HETATM   47  C   UNK N   1      20.009  17.406   1.854  0.00  0.00     0.166 C 
BRANCH  47  48
HETATM   48  C   UNK N   1      19.476  18.572   2.665  0.00  0.00     0.198 C 
BRANCH  48  49
HETATM   49  O   UNK N   1      19.743  19.781   2.020  0.00  0.00    -0.398 OA
HETATM   50  H   UNK N   1      19.988  20.718   1.960  0.00  0.00     0.209 HD
ENDBRANCH  48  49
ENDBRANCH  47  48
BRANCH  47  51
HETATM   51  O   UNK N   1      19.112  17.062   0.840  0.00  0.00    -0.391 OA
HETATM   52  H   UNK N   1      18.327  16.492   0.818  0.00  0.00     0.210 HD
ENDBRANCH  47  51
ENDBRANCH  46  47
ENDBRANCH  45  46
ENDBRANCH  41  45
ENDBRANCH  40  41
ENDBRANCH  39  40
ENDBRANCH   1  39
TORSDOF 43
ENDMDL
MODEL 2
REMARK VINA RESULT:      -5.4      1.709      6.190
REMARK WARNING: 32 MAX_TORS EXCEEDED!!!
REMARK  43 active torsions:
REMARK  status: ('A' for Active; 'I' for Inactive)
REMARK    1  A    between atoms: C_2  and  C_1 
REMARK    2  A    between atoms: C_1  and  O_8 
REMARK    3  A    between atoms: C_12  and  C_2 
REMARK    4  A    between atoms: C_2  and  O_33 
REMARK    5  A    between atoms: P_3  and  O_16 
REMARK    6  A    between atoms: O_8  and  P_3 
REMARK    7  A    between atoms: P_3  and  O_10 
REMARK    8  A    between atoms: C_4  and  O_15 
REMARK    9  A    between atoms: C_4  and  C_5 
REMARK   10  A    between atoms: C_4  and  C_6 
REMARK   11  A    between atoms: O_9  and  C_5 
REMARK   12  A    between atoms: O_10  and  C_6 
REMARK   13  A    between atoms: C_7  and  O_9 
REMARK   14  A    between atoms: C_11  and  C_7 
REMARK   15  A    between atoms: C_11  and  C_17 
REMARK   16  A    between atoms: C_12  and  O_32 
REMARK   17  A    between atoms: C_13  and  O_15 
REMARK   18  A    between atoms: C_24  and  C_13 
REMARK   19  A    between atoms: C_17  and  C_18 
REMARK   20  A    between atoms: C_18  and  C_19 
REMARK   21  A    between atoms: C_19  and  C_20 
REMARK   22  A    between atoms: C_20  and  C_21 
REMARK   23  A    between atoms: C_21  and  C_22 
REMARK   24  A    between atoms: C_22  and  C_23 
REMARK   25  A    between atoms: C_23  and  C_34 
REMARK   26  A    between atoms: C_24  and  C_25 
REMARK   27  A    between atoms: C_25  and  C_26 
REMARK   28  A    between atoms: C_26  and  C_27 
REMARK   29  A    between atoms: C_27  and  C_28 
REMARK   30  A    between atoms: C_28  and  C_29 
REMARK   31  A    between atoms: C_29  and  C_30 
REMARK   32  A    between atoms: C_30  and  C_31 
REMARK   33  A    between atoms: C_31  and  C_39 
REMARK   34  A    between atoms: C_34  and  C_35 
REMARK   35  A    between atoms: C_35  and  C_36 
REMARK   36  A    between atoms: C_36  and  C_37 
REMARK   37  A    between atoms: C_37  and  C_38 
REMARK   38  A    between atoms: C_38  and  C_46 
REMARK   39  A    between atoms: C_39  and  C_40 
REMARK   40  A    between atoms: C_40  and  C_41 
REMARK   41  A    between atoms: C_41  and  C_42 
REMARK   42  A    between atoms: C_42  and  C_43 
REMARK   43  A    between atoms: C_43  and  C_48 
ROOT
HETATM    1  C   UNK N   1      21.456  14.681   5.708  0.00  0.00     0.180 C 
ENDROOT
BRANCH   1   2
HETATM    2  O   UNK N   1      22.413  15.603   6.087  0.00  0.00    -0.312 OA
BRANCH   2   3
HETATM    3  C   UNK N   1      23.173  16.356   5.251  0.00  0.00     0.259 C 
HETATM    4  O   UNK N   1      23.197  17.563   5.393  0.00  0.00    -0.265 OA
BRANCH   3   5
HETATM    5  C   UNK N   1      23.995  15.733   4.170  0.00  0.00     0.111 C 
BRANCH   5   6
HETATM    6  C   UNK N   1      24.868  16.798   3.542  0.00  0.00     0.010 C 
BRANCH   6   7
HETATM    7  C   UNK N   1      25.909  16.149   2.663  0.00  0.00     0.000 C 
BRANCH   7   8
HETATM    8  C   UNK N   1      25.865  14.638   2.794  0.00  0.00     0.000 C 
BRANCH   8   9
HETATM    9  C   UNK N   1      27.261  14.089   2.999  0.00  0.00     0.000 C 
BRANCH   9  10
HETATM   10  C   UNK N   1      28.289  15.104   2.555  0.00  0.00     0.000 C 
BRANCH  10  11
HETATM   11  C   UNK N   1      29.685  14.510   2.617  0.00  0.00     0.000 C 
BRANCH  11  12
HETATM   12  C   UNK N   1      30.586  15.345   3.515  0.00  0.00     0.000 C 
BRANCH  12  13
HETATM   13  C   UNK N   1      31.142  16.548   2.761  0.00  0.00     0.000 C 
BRANCH  13  14
HETATM   14  C   UNK N   1      32.251  17.249   3.538  0.00  0.00     0.000 C 
BRANCH  14  15
HETATM   15  C   UNK N   1      31.928  17.435   5.018  0.00  0.00     0.000 C 
BRANCH  15  16
HETATM   16  C   UNK N   1      33.171  17.300   5.882  0.00  0.00     0.000 C 
BRANCH  16  17
HETATM   17  C   UNK N   1      32.798  16.821   7.280  0.00  0.00    -0.000 C 
BRANCH  17  18
HETATM   18  C   UNK N   1      32.453  17.973   8.213  0.00  0.00    -0.005 C 
HETATM   19  C   UNK N   1      30.989  17.935   8.608  0.00  0.00     0.005 C 
ENDBRANCH  17  18
ENDBRANCH  16  17
ENDBRANCH  15  16
ENDBRANCH  14  15
ENDBRANCH  13  14
ENDBRANCH  12  13
ENDBRANCH  11  12
ENDBRANCH  10  11
ENDBRANCH   9  10
ENDBRANCH   8   9
ENDBRANCH   7   8
ENDBRANCH   6   7
ENDBRANCH   5   6
ENDBRANCH   3   5
ENDBRANCH   2   3
ENDBRANCH   1   2
BRANCH   1  20
HETATM   20  C   UNK N   1      21.139  13.536   6.669  0.00  0.00     0.213 C 
BRANCH  20  21
HETATM   21  O   UNK N   1      20.285  13.902   7.689  0.00  0.00    -0.319 OA
BRANCH  21  22
HETATM   22  C   UNK N   1      20.709  14.310   8.915  0.00  0.00     0.258 C 
HETATM   23  O   UNK N   1      21.061  15.463   9.113  0.00  0.00    -0.265 OA
BRANCH  22  24
HETATM   24  C   UNK N   1      20.660  13.351  10.052  0.00  0.00     0.111 C 
BRANCH  24  25
HETATM   25  C   UNK N   1      21.755  12.298   9.960  0.00  0.00     0.010 C 
BRANCH  25  26
HETATM   26  C   UNK N   1      22.526  12.208  11.273  0.00  0.00     0.000 C 
BRANCH  26  27
HETATM   27  C   UNK N   1      24.031  12.194  11.030  0.00  0.00     0.000 C 
BRANCH  27  28
HETATM   28  C   UNK N   1      24.368  12.106   9.555  0.00  0.00     0.000 C 
BRANCH  28  29
HETATM   29  C   UNK N   1      25.056  13.373   9.077  0.00  0.00     0.000 C 
BRANCH  29  30
HETATM   30  C   UNK N   1      24.609  13.720   7.672  0.00  0.00     0.000 C 
BRANCH  30  31
HETATM   31  C   UNK N   1      25.811  14.079   6.818  0.00  0.00     0.000 C 
BRANCH  31  32
HETATM   32  C   UNK N   1      26.262  15.502   7.109  0.00  0.00     0.000 C 
BRANCH  32  33
HETATM   33  C   UNK N   1      27.335  15.942   6.122  0.00  0.00     0.000 C 
BRANCH  33  34
HETATM   34  C   UNK N   1      27.500  17.449   6.152  0.00  0.00     0.000 C 
BRANCH  34  35
HETATM   35  C   UNK N   1      28.303  17.916   4.956  0.00  0.00     0.000 C 
BRANCH  35  36
HETATM   36  C   UNK N   1      28.188  19.423   4.862  0.00  0.00    -0.000 C 
BRANCH  36  37
HETATM   37  C   UNK N   1      26.739  19.842   4.752  0.00  0.00    -0.005 C 
HETATM   38  C   UNK N   1      26.464  20.296   3.333  0.00  0.00     0.005 C 
ENDBRANCH  36  37
ENDBRANCH  35  36
ENDBRANCH  34  35
ENDBRANCH  33  34
ENDBRANCH  32  33
ENDBRANCH  31  32
ENDBRANCH  30  31
ENDBRANCH  29  30
ENDBRANCH  28  29
ENDBRANCH  27  28
ENDBRANCH  26  27
ENDBRANCH  25  26
ENDBRANCH  24  25
ENDBRANCH  22  24
ENDBRANCH  21  22
ENDBRANCH  20  21
ENDBRANCH   1  20
BRANCH   1  39
HETATM   39  C   UNK N   1      20.423  15.088   4.648  0.00  0.00     0.215 C 
BRANCH  39  40
HETATM   40  O   UNK N   1      20.006  16.447   4.728  0.00  0.00    -0.294 OA
BRANCH  40  41
HETATM   41  P   UNK N   1      19.797  17.360   3.198  0.00  0.00     0.393 P 
HETATM   42  O   UNK N   1      20.651  16.274   2.480  0.00  0.00    -0.631 OA
BRANCH  41  43
HETATM   43  O   UNK N   1      20.624  18.268   4.429  0.00  0.00    -0.307 OA
HETATM   44  H   UNK N   1      20.282  19.123   4.731  0.00  0.00     0.222 HD
ENDBRANCH  41  43
BRANCH  41  45
HETATM   45  O   UNK N   1      21.154  18.301   2.625  0.00  0.00    -0.294 OA
BRANCH  45  46
HETATM   46  C   UNK N   1      20.619  19.353   1.868  0.00  0.00     0.214 C 
BRANCH  46  47
HETATM   47  C   UNK N   1      21.202  20.683   2.336  0.00  0.00     0.166 C 
BRANCH  47  48
HETATM   48  C   UNK N   1      22.697  20.579   2.571  0.00  0.00     0.198 C 
BRANCH  48  49
HETATM   49  O   UNK N   1      22.961  19.950   3.789  0.00  0.00    -0.398 OA
HETATM   50  H   UNK N   1      22.780  19.675   4.701  0.00  0.00     0.209 HD
ENDBRANCH  48  49
ENDBRANCH  47  48
BRANCH  47  51
HETATM   51  O   UNK N   1      20.554  21.131   3.490  0.00  0.00    -0.391 OA
HETATM   52  H   UNK N   1      20.252  22.006   3.781  0.00  0.00     0.210 HD
ENDBRANCH  47  51
ENDBRANCH  46  47
ENDBRANCH  45  46
ENDBRANCH  41  45
ENDBRANCH  40  41
ENDBRANCH  39  40
ENDBRANCH   1  39
TORSDOF 43
ENDMDL
MODEL 3
REMARK VINA RESULT:      -5.3      2.934      6.529
REMARK WARNING: 32 MAX_TORS EXCEEDED!!!
REMARK  43 active torsions:
REMARK  status: ('A' for Active; 'I' for Inactive)
REMARK    1  A    between atoms: C_2  and  C_1 
REMARK    2  A    between atoms: C_1  and  O_8 
REMARK    3  A    between atoms: C_12  and  C_2 
REMARK    4  A    between atoms: C_2  and  O_33 
REMARK    5  A    between atoms: P_3  and  O_16 
REMARK    6  A    between atoms: O_8  and  P_3 
REMARK    7  A    between atoms: P_3  and  O_10 
REMARK    8  A    between atoms: C_4  and  O_15 
REMARK    9  A    between atoms: C_4  and  C_5 
REMARK   10  A    between atoms: C_4  and  C_6 
REMARK   11  A    between atoms: O_9  and  C_5 
REMARK   12  A    between atoms: O_10  and  C_6 
REMARK   13  A    between atoms: C_7  and  O_9 
REMARK   14  A    between atoms: C_11  and  C_7 
REMARK   15  A    between atoms: C_11  and  C_17 
REMARK   16  A    between atoms: C_12  and  O_32 
REMARK   17  A    between atoms: C_13  and  O_15 
REMARK   18  A    between atoms: C_24  and  C_13 
REMARK   19  A    between atoms: C_17  and  C_18 
REMARK   20  A    between atoms: C_18  and  C_19 
REMARK   21  A    between atoms: C_19  and  C_20 
REMARK   22  A    between atoms: C_20  and  C_21 
REMARK   23  A    between atoms: C_21  and  C_22 
REMARK   24  A    between atoms: C_22  and  C_23 
REMARK   25  A    between atoms: C_23  and  C_34 
REMARK   26  A    between atoms: C_24  and  C_25 
REMARK   27  A    between atoms: C_25  and  C_26 
REMARK   28  A    between atoms: C_26  and  C_27 
REMARK   29  A    between atoms: C_27  and  C_28 
REMARK   30  A    between atoms: C_28  and  C_29 
REMARK   31  A    between atoms: C_29  and  C_30 
REMARK   32  A    between atoms: C_30  and  C_31 
REMARK   33  A    between atoms: C_31  and  C_39 
REMARK   34  A    between atoms: C_34  and  C_35 
REMARK   35  A    between atoms: C_35  and  C_36 
REMARK   36  A    between atoms: C_36  and  C_37 
REMARK   37  A    between atoms: C_37  and  C_38 
REMARK   38  A    between atoms: C_38  and  C_46 
REMARK   39  A    between atoms: C_39  and  C_40 
REMARK   40  A    between atoms: C_40  and  C_41 
REMARK   41  A    between atoms: C_41  and  C_42 
REMARK   42  A    between atoms: C_42  and  C_43 
REMARK   43  A    between atoms: C_43  and  C_48 
ROOT
HETATM    1  C   UNK N   1      20.382  15.320   7.220  0.00  0.00     0.180 C 
ENDROOT
BRANCH   1   2
HETATM    2  O   UNK N   1      20.129  14.164   6.505  0.00  0.00    -0.312 OA
BRANCH   2   3
HETATM    3  C   UNK N   1      19.493  14.089   5.307  0.00  0.00     0.259 C 
HETATM    4  O   UNK N   1      18.582  14.857   5.067  0.00  0.00    -0.265 OA
BRANCH   3   5
HETATM    5  C   UNK N   1      19.900  13.095   4.269  0.00  0.00     0.111 C 
BRANCH   5   6
HETATM    6  C   UNK N   1      21.021  13.681   3.440  0.00  0.00     0.010 C 
BRANCH   6   7
HETATM    7  C   UNK N   1      20.528  13.957   2.040  0.00  0.00     0.000 C 
BRANCH   7   8
HETATM    8  C   UNK N   1      21.605  14.627   1.208  0.00  0.00     0.000 C 
BRANCH   8   9
HETATM    9  C   UNK N   1      22.975  14.302   1.764  0.00  0.00     0.000 C 
BRANCH   9  10
HETATM   10  C   UNK N   1      23.961  14.105   0.636  0.00  0.00     0.000 C 
BRANCH  10  11
HETATM   11  C   UNK N   1      23.511  12.978  -0.275  0.00  0.00     0.000 C 
BRANCH  11  12
HETATM   12  C   UNK N   1      23.635  11.635   0.430  0.00  0.00     0.000 C 
BRANCH  12  13
HETATM   13  C   UNK N   1      22.337  10.841   0.322  0.00  0.00     0.000 C 
BRANCH  13  14
HETATM   14  C   UNK N   1      21.799  10.433   1.688  0.00  0.00     0.000 C 
BRANCH  14  15
HETATM   15  C   UNK N   1      22.827  10.568   2.808  0.00  0.00     0.000 C 
BRANCH  15  16
HETATM   16  C   UNK N   1      22.240  10.185   4.156  0.00  0.00     0.000 C 
BRANCH  16  17
HETATM   17  C   UNK N   1      22.916   8.932   4.696  0.00  0.00    -0.000 C 
BRANCH  17  18
HETATM   18  C   UNK N   1      22.814   8.826   6.211  0.00  0.00    -0.005 C 
HETATM   19  C   UNK N   1      24.187   8.872   6.855  0.00  0.00     0.005 C 
ENDBRANCH  17  18
ENDBRANCH  16  17
ENDBRANCH  15  16
ENDBRANCH  14  15
ENDBRANCH  13  14
ENDBRANCH  12  13
ENDBRANCH  11  12
ENDBRANCH  10  11
ENDBRANCH   9  10
ENDBRANCH   8   9
ENDBRANCH   7   8
ENDBRANCH   6   7
ENDBRANCH   5   6
ENDBRANCH   3   5
ENDBRANCH   2   3
ENDBRANCH   1   2
BRANCH   1  20
HETATM   20  C   UNK N   1      20.006  15.345   8.701  0.00  0.00     0.213 C 
BRANCH  20  21
HETATM   21  O   UNK N   1      21.029  14.932   9.530  0.00  0.00    -0.319 OA
BRANCH  21  22
HETATM   22  C   UNK N   1      21.143  13.665  10.010  0.00  0.00     0.258 C 
HETATM   23  O   UNK N   1      20.156  12.990  10.260  0.00  0.00    -0.265 OA
BRANCH  22  24
HETATM   24  C   UNK N   1      22.498  13.065  10.149  0.00  0.00     0.111 C 
BRANCH  24  25
HETATM   25  C   UNK N   1      22.660  11.812   9.302  0.00  0.00     0.010 C 
BRANCH  25  26
HETATM   26  C   UNK N   1      22.623  12.159   7.817  0.00  0.00     0.000 C 
BRANCH  26  27
HETATM   27  C   UNK N   1      23.987  12.629   7.325  0.00  0.00     0.000 C 
BRANCH  27  28
HETATM   28  C   UNK N   1      23.868  13.666   6.226  0.00  0.00     0.000 C 
BRANCH  28  29
HETATM   29  C   UNK N   1      24.393  13.125   4.907  0.00  0.00     0.000 C 
BRANCH  29  30
HETATM   30  C   UNK N   1      25.326  11.956   5.148  0.00  0.00     0.000 C 
BRANCH  30  31
HETATM   31  C   UNK N   1      26.611  12.147   4.362  0.00  0.00     0.000 C 
BRANCH  31  32
HETATM   32  C   UNK N   1      26.471  11.560   2.967  0.00  0.00     0.000 C 
BRANCH  32  33
HETATM   33  C   UNK N   1      27.015  12.521   1.919  0.00  0.00     0.000 C 
BRANCH  33  34
HETATM   34  C   UNK N   1      27.655  13.725   2.582  0.00  0.00     0.000 C 
BRANCH  34  35
HETATM   35  C   UNK N   1      27.103  15.007   1.994  0.00  0.00     0.000 C 
BRANCH  35  36
HETATM   36  C   UNK N   1      27.108  16.069   3.074  0.00  0.00    -0.000 C 
BRANCH  36  37
HETATM   37  C   UNK N   1      25.697  16.389   3.514  0.00  0.00    -0.005 C 
HETATM   38  C   UNK N   1      25.700  16.692   4.998  0.00  0.00     0.005 C 
ENDBRANCH  36  37
ENDBRANCH  35  36
ENDBRANCH  34  35
ENDBRANCH  33  34
ENDBRANCH  32  33
ENDBRANCH  31  32
ENDBRANCH  30  31
ENDBRANCH  29  30
ENDBRANCH  28  29
ENDBRANCH  27  28
ENDBRANCH  26  27
ENDBRANCH  25  26
ENDBRANCH  24  25
ENDBRANCH  22  24
ENDBRANCH  21  22
ENDBRANCH  20  21
ENDBRANCH   1  20
BRANCH   1  39
HETATM   39  C   UNK N   1      21.443  16.294   6.691  0.00  0.00     0.215 C 
BRANCH  39  40
HETATM   40  O   UNK N   1      20.972  17.180   5.681  0.00  0.00    -0.294 OA
BRANCH  40  41
HETATM   41  P   UNK N   1      21.890  17.272   4.142  0.00  0.00     0.393 P 
HETATM   42  O   UNK N   1      22.438  18.656   4.598  0.00  0.00    -0.631 OA
BRANCH  41  43
HETATM   43  O   UNK N   1      20.169  17.191   3.908  0.00  0.00    -0.307 OA
HETATM   44  H   UNK N   1      19.757  16.407   3.512  0.00  0.00     0.222 HD
ENDBRANCH  41  43
BRANCH  41  45
HETATM   45  O   UNK N   1      21.271  18.326   2.892  0.00  0.00    -0.294 OA
BRANCH  45  46
HETATM   46  C   UNK N   1      21.039  19.570   3.497  0.00  0.00     0.214 C 
BRANCH  46  47
HETATM   47  C   UNK N   1      20.742  20.622   2.433  0.00  0.00     0.166 C 
BRANCH  47  48
HETATM   48  C   UNK N   1      20.728  20.013   1.043  0.00  0.00     0.198 C 
BRANCH  48  49
HETATM   49  O   UNK N   1      20.777  21.012   0.069  0.00  0.00    -0.398 OA
HETATM   50  H   UNK N   1      20.900  21.911  -0.272  0.00  0.00     0.209 HD
ENDBRANCH  48  49
ENDBRANCH  47  48
BRANCH  47  51
HETATM   51  O   UNK N   1      21.661  21.672   2.500  0.00  0.00    -0.391 OA
HETATM   52  H   UNK N   1      21.625  22.556   2.897  0.00  0.00     0.210 HD
ENDBRANCH  47  51
ENDBRANCH  46  47
ENDBRANCH  45  46
ENDBRANCH  41  45
ENDBRANCH  40  41
ENDBRANCH  39  40
ENDBRANCH   1  39
TORSDOF 43
ENDMDL
MODEL 4
REMARK VINA RESULT:      -5.3      1.840      7.044
REMARK WARNING: 32 MAX_TORS EXCEEDED!!!
REMARK  43 active torsions:
REMARK  status: ('A' for Active; 'I' for Inactive)
REMARK    1  A    between atoms: C_2  and  C_1 
REMARK    2  A    between atoms: C_1  and  O_8 
REMARK    3  A    between atoms: C_12  and  C_2 
REMARK    4  A    between atoms: C_2  and  O_33 
REMARK    5  A    between atoms: P_3  and  O_16 
REMARK    6  A    between atoms: O_8  and  P_3 
REMARK    7  A    between atoms: P_3  and  O_10 
REMARK    8  A    between atoms: C_4  and  O_15 
REMARK    9  A    between atoms: C_4  and  C_5 
REMARK   10  A    between atoms: C_4  and  C_6 
REMARK   11  A    between atoms: O_9  and  C_5 
REMARK   12  A    between atoms: O_10  and  C_6 
REMARK   13  A    between atoms: C_7  and  O_9 
REMARK   14  A    between atoms: C_11  and  C_7 
REMARK   15  A    between atoms: C_11  and  C_17 
REMARK   16  A    between atoms: C_12  and  O_32 
REMARK   17  A    between atoms: C_13  and  O_15 
REMARK   18  A    between atoms: C_24  and  C_13 
REMARK   19  A    between atoms: C_17  and  C_18 
REMARK   20  A    between atoms: C_18  and  C_19 
REMARK   21  A    between atoms: C_19  and  C_20 
REMARK   22  A    between atoms: C_20  and  C_21 
REMARK   23  A    between atoms: C_21  and  C_22 
REMARK   24  A    between atoms: C_22  and  C_23 
REMARK   25  A    between atoms: C_23  and  C_34 
REMARK   26  A    between atoms: C_24  and  C_25 
REMARK   27  A    between atoms: C_25  and  C_26 
REMARK   28  A    between atoms: C_26  and  C_27 
REMARK   29  A    between atoms: C_27  and  C_28 
REMARK   30  A    between atoms: C_28  and  C_29 
REMARK   31  A    between atoms: C_29  and  C_30 
REMARK   32  A    between atoms: C_30  and  C_31 
REMARK   33  A    between atoms: C_31  and  C_39 
REMARK   34  A    between atoms: C_34  and  C_35 
REMARK   35  A    between atoms: C_35  and  C_36 
REMARK   36  A    between atoms: C_36  and  C_37 
REMARK   37  A    between atoms: C_37  and  C_38 
REMARK   38  A    between atoms: C_38  and  C_46 
REMARK   39  A    between atoms: C_39  and  C_40 
REMARK   40  A    between atoms: C_40  and  C_41 
REMARK   41  A    between atoms: C_41  and  C_42 
REMARK   42  A    between atoms: C_42  and  C_43 
REMARK   43  A    between atoms: C_43  and  C_48 
ROOT
HETATM    1  C   UNK N   1      20.930  18.369   3.611  0.00  0.00     0.180 C 
ENDROOT
BRANCH   1   2
HETATM    2  O   UNK N   1      21.892  19.254   4.058  0.00  0.00    -0.312 OA
BRANCH   2   3
HETATM    3  C   UNK N   1      23.192  18.958   4.315  0.00  0.00     0.259 C 
HETATM    4  O   UNK N   1      23.472  18.315   5.309  0.00  0.00    -0.265 OA
BRANCH   3   5
HETATM    5  C   UNK N   1      24.288  19.390   3.395  0.00  0.00     0.111 C 
BRANCH   5   6
HETATM    6  C   UNK N   1      25.300  20.194   4.181  0.00  0.00     0.010 C 
BRANCH   6   7
HETATM    7  C   UNK N   1      26.585  20.303   3.395  0.00  0.00     0.000 C 
BRANCH   7   8
HETATM    8  C   UNK N   1      27.769  19.847   4.225  0.00  0.00     0.000 C 
BRANCH   8   9
HETATM    9  C   UNK N   1      27.525  20.140   5.690  0.00  0.00     0.000 C 
BRANCH   9  10
HETATM   10  C   UNK N   1      27.921  18.949   6.532  0.00  0.00     0.000 C 
BRANCH  10  11
HETATM   11  C   UNK N   1      28.060  19.349   7.989  0.00  0.00     0.000 C 
BRANCH  11  12
HETATM   12  C   UNK N   1      28.187  18.119   8.876  0.00  0.00     0.000 C 
BRANCH  12  13
HETATM   13  C   UNK N   1      29.426  18.211   9.760  0.00  0.00     0.000 C 
BRANCH  13  14
HETATM   14  C   UNK N   1      30.700  18.405   8.945  0.00  0.00     0.000 C 
BRANCH  14  15
HETATM   15  C   UNK N   1      31.259  17.104   8.379  0.00  0.00     0.000 C 
BRANCH  15  16
HETATM   16  C   UNK N   1      31.231  17.097   6.859  0.00  0.00     0.000 C 
BRANCH  16  17
HETATM   17  C   UNK N   1      30.188  16.110   6.350  0.00  0.00    -0.000 C 
BRANCH  17  18
HETATM   18  C   UNK N   1      30.708  15.261   5.199  0.00  0.00    -0.005 C 
HETATM   19  C   UNK N   1      31.301  16.129   4.105  0.00  0.00     0.005 C 
ENDBRANCH  17  18
ENDBRANCH  16  17
ENDBRANCH  15  16
ENDBRANCH  14  15
ENDBRANCH  13  14
ENDBRANCH  12  13
ENDBRANCH  11  12
ENDBRANCH  10  11
ENDBRANCH   9  10
ENDBRANCH   8   9
ENDBRANCH   7   8
ENDBRANCH   6   7
ENDBRANCH   5   6
ENDBRANCH   3   5
ENDBRANCH   2   3
ENDBRANCH   1   2
BRANCH   1  20
HETATM   20  C   UNK N   1      20.333  18.597   2.223  0.00  0.00     0.213 C 
BRANCH  20  21
HETATM   21  O   UNK N   1      19.636  17.507   1.744  0.00  0.00    -0.319 OA
BRANCH  21  22
HETATM   22  C   UNK N   1      20.070  16.727   0.718  0.00  0.00     0.258 C 
HETATM   23  O   UNK N   1      20.407  17.215  -0.350  0.00  0.00    -0.265 OA
BRANCH  22  24
HETATM   24  C   UNK N   1      20.215  15.262   0.936  0.00  0.00     0.111 C 
BRANCH  24  25
HETATM   25  C   UNK N   1      21.663  14.860   1.174  0.00  0.00     0.010 C 
BRANCH  25  26
HETATM   26  C   UNK N   1      21.951  13.497   0.554  0.00  0.00     0.000 C 
BRANCH  26  27
HETATM   27  C   UNK N   1      23.429  13.347   0.209  0.00  0.00     0.000 C 
BRANCH  27  28
HETATM   28  C   UNK N   1      24.316  14.125   1.161  0.00  0.00     0.000 C 
BRANCH  28  29
HETATM   29  C   UNK N   1      24.858  13.225   2.259  0.00  0.00     0.000 C 
BRANCH  29  30
HETATM   30  C   UNK N   1      26.211  12.669   1.866  0.00  0.00     0.000 C 
BRANCH  30  31
HETATM   31  C   UNK N   1      27.116  12.598   3.083  0.00  0.00     0.000 C 
BRANCH  31  32
HETATM   32  C   UNK N   1      28.289  13.553   2.927  0.00  0.00     0.000 C 
BRANCH  32  33
HETATM   33  C   UNK N   1      27.903  14.746   2.063  0.00  0.00     0.000 C 
BRANCH  33  34
HETATM   34  C   UNK N   1      27.887  16.018   2.887  0.00  0.00     0.000 C 
BRANCH  34  35
HETATM   35  C   UNK N   1      26.462  16.447   3.168  0.00  0.00     0.000 C 
BRANCH  35  36
HETATM   36  C   UNK N   1      26.268  16.504   4.669  0.00  0.00    -0.000 C 
BRANCH  36  37
HETATM   37  C   UNK N   1      25.486  15.302   5.152  0.00  0.00    -0.005 C 
HETATM   38  C   UNK N   1      26.326  14.537   6.153  0.00  0.00     0.005 C 
ENDBRANCH  36  37
ENDBRANCH  35  36
ENDBRANCH  34  35
ENDBRANCH  33  34
ENDBRANCH  32  33
ENDBRANCH  31  32
ENDBRANCH  30  31
ENDBRANCH  29  30
ENDBRANCH  28  29
ENDBRANCH  27  28
ENDBRANCH  26  27
ENDBRANCH  25  26
ENDBRANCH  24  25
ENDBRANCH  22  24
ENDBRANCH  21  22
ENDBRANCH  20  21
ENDBRANCH   1  20
BRANCH   1  39
HETATM   39  C   UNK N   1      20.865  16.972   4.243  0.00  0.00     0.215 C 
BRANCH  39  40
HETATM   40  O   UNK N   1      19.881  16.835   5.263  0.00  0.00    -0.294 OA
BRANCH  40  41
HETATM   41  P   UNK N   1      20.402  16.217   6.865  0.00  0.00     0.393 P 
HETATM   42  O   UNK N   1      21.462  15.340   6.137  0.00  0.00    -0.631 OA
BRANCH  41  43
HETATM   43  O   UNK N   1      18.744  15.846   6.494  0.00  0.00    -0.307 OA
HETATM   44  H   UNK N   1      18.282  16.298   5.771  0.00  0.00     0.222 HD
ENDBRANCH  41  43
BRANCH  41  45
HETATM   45  O   UNK N   1      19.895  14.606   7.315  0.00  0.00    -0.294 OA
BRANCH  45  46
HETATM   46  C   UNK N   1      20.973  14.025   7.998  0.00  0.00     0.214 C 
BRANCH  46  47
HETATM   47  C   UNK N   1      20.761  14.139   9.504  0.00  0.00     0.166 C 
BRANCH  47  48
HETATM   48  C   UNK N   1      21.571  13.100  10.257  0.00  0.00     0.198 C 
BRANCH  48  49
HETATM   49  O   UNK N   1      20.763  12.404  11.157  0.00  0.00    -0.398 OA
HETATM   50  H   UNK N   1      19.929  12.083  11.533  0.00  0.00     0.209 HD
ENDBRANCH  48  49
ENDBRANCH  47  48
BRANCH  47  51
HETATM   51  O   UNK N   1      19.405  14.030   9.825  0.00  0.00    -0.391 OA
HETATM   52  H   UNK N   1      18.634  14.587   9.633  0.00  0.00     0.210 HD
ENDBRANCH  47  51
ENDBRANCH  46  47
ENDBRANCH  45  46
ENDBRANCH  41  45
ENDBRANCH  40  41
ENDBRANCH  39  40
ENDBRANCH   1  39
TORSDOF 43
ENDMDL
MODEL 5
REMARK VINA RESULT:      -5.3      1.959      4.460
REMARK WARNING: 32 MAX_TORS EXCEEDED!!!
REMARK  43 active torsions:
REMARK  status: ('A' for Active; 'I' for Inactive)
REMARK    1  A    between atoms: C_2  and  C_1 
REMARK    2  A    between atoms: C_1  and  O_8 
REMARK    3  A    between atoms: C_12  and  C_2 
REMARK    4  A    between atoms: C_2  and  O_33 
REMARK    5  A    between atoms: P_3  and  O_16 
REMARK    6  A    between atoms: O_8  and  P_3 
REMARK    7  A    between atoms: P_3  and  O_10 
REMARK    8  A    between atoms: C_4  and  O_15 
REMARK    9  A    between atoms: C_4  and  C_5 
REMARK   10  A    between atoms: C_4  and  C_6 
REMARK   11  A    between atoms: O_9  and  C_5 
REMARK   12  A    between atoms: O_10  and  C_6 
REMARK   13  A    between atoms: C_7  and  O_9 
REMARK   14  A    between atoms: C_11  and  C_7 
REMARK   15  A    between atoms: C_11  and  C_17 
REMARK   16  A    between atoms: C_12  and  O_32 
REMARK   17  A    between atoms: C_13  and  O_15 
REMARK   18  A    between atoms: C_24  and  C_13 
REMARK   19  A    between atoms: C_17  and  C_18 
REMARK   20  A    between atoms: C_18  and  C_19 
REMARK   21  A    between atoms: C_19  and  C_20 
REMARK   22  A    between atoms: C_20  and  C_21 
REMARK   23  A    between atoms: C_21  and  C_22 
REMARK   24  A    between atoms: C_22  and  C_23 
REMARK   25  A    between atoms: C_23  and  C_34 
REMARK   26  A    between atoms: C_24  and  C_25 
REMARK   27  A    between atoms: C_25  and  C_26 
REMARK   28  A    between atoms: C_26  and  C_27 
REMARK   29  A    between atoms: C_27  and  C_28 
REMARK   30  A    between atoms: C_28  and  C_29 
REMARK   31  A    between atoms: C_29  and  C_30 
REMARK   32  A    between atoms: C_30  and  C_31 
REMARK   33  A    between atoms: C_31  and  C_39 
REMARK   34  A    between atoms: C_34  and  C_35 
REMARK   35  A    between atoms: C_35  and  C_36 
REMARK   36  A    between atoms: C_36  and  C_37 
REMARK   37  A    between atoms: C_37  and  C_38 
REMARK   38  A    between atoms: C_38  and  C_46 
REMARK   39  A    between atoms: C_39  and  C_40 
REMARK   40  A    between atoms: C_40  and  C_41 
REMARK   41  A    between atoms: C_41  and  C_42 
REMARK   42  A    between atoms: C_42  and  C_43 
REMARK   43  A    between atoms: C_43  and  C_48 
ROOT
HETATM    1  C   UNK N   1      21.389  18.781   3.607  0.00  0.00     0.180 C 
ENDROOT
BRANCH   1   2
HETATM    2  O   UNK N   1      20.715  18.129   4.622  0.00  0.00    -0.312 OA
BRANCH   2   3
HETATM    3  C   UNK N   1      21.188  17.091   5.359  0.00  0.00     0.259 C 
HETATM    4  O   UNK N   1      21.527  16.068   4.797  0.00  0.00    -0.265 OA
BRANCH   3   5
HETATM    5  C   UNK N   1      21.318  17.183   6.844  0.00  0.00     0.111 C 
BRANCH   5   6
HETATM    6  C   UNK N   1      21.367  15.785   7.420  0.00  0.00     0.010 C 
BRANCH   6   7
HETATM    7  C   UNK N   1      20.183  15.568   8.331  0.00  0.00     0.000 C 
BRANCH   7   8
HETATM    8  C   UNK N   1      20.516  14.571   9.425  0.00  0.00     0.000 C 
BRANCH   8   9
HETATM    9  C   UNK N   1      21.534  13.567   8.926  0.00  0.00     0.000 C 
BRANCH   9  10
HETATM   10  C   UNK N   1      22.584  13.322   9.985  0.00  0.00     0.000 C 
BRANCH  10  11
HETATM   11  C   UNK N   1      23.912  12.962   9.345  0.00  0.00     0.000 C 
BRANCH  11  12
HETATM   12  C   UNK N   1      23.734  12.672   7.862  0.00  0.00     0.000 C 
BRANCH  12  13
HETATM   13  C   UNK N   1      24.997  13.024   7.083  0.00  0.00     0.000 C 
BRANCH  13  14
HETATM   14  C   UNK N   1      24.728  14.044   5.982  0.00  0.00     0.000 C 
BRANCH  14  15
HETATM   15  C   UNK N   1      24.746  15.487   6.478  0.00  0.00     0.000 C 
BRANCH  15  16
HETATM   16  C   UNK N   1      25.358  16.424   5.450  0.00  0.00     0.000 C 
BRANCH  16  17
HETATM   17  C   UNK N   1      26.728  15.917   5.018  0.00  0.00    -0.000 C 
BRANCH  17  18
HETATM   18  C   UNK N   1      26.867  15.846   3.503  0.00  0.00    -0.005 C 
HETATM   19  C   UNK N   1      25.540  16.121   2.821  0.00  0.00     0.005 C 
ENDBRANCH  17  18
ENDBRANCH  16  17
ENDBRANCH  15  16
ENDBRANCH  14  15
ENDBRANCH  13  14
ENDBRANCH  12  13
ENDBRANCH  11  12
ENDBRANCH  10  11
ENDBRANCH   9  10
ENDBRANCH   8   9
ENDBRANCH   7   8
ENDBRANCH   6   7
ENDBRANCH   5   6
ENDBRANCH   3   5
ENDBRANCH   2   3
ENDBRANCH   1   2
BRANCH   1  20
HETATM   20  C   UNK N   1      22.909  18.900   3.715  0.00  0.00     0.213 C 
BRANCH  20  21
HETATM   21  O   UNK N   1      23.381  20.157   3.396  0.00  0.00    -0.319 OA
BRANCH  21  22
HETATM   22  C   UNK N   1      24.695  20.437   3.190  0.00  0.00     0.258 C 
HETATM   23  O   UNK N   1      25.080  20.946   2.148  0.00  0.00    -0.265 OA
BRANCH  22  24
HETATM   24  C   UNK N   1      25.666  20.195   4.292  0.00  0.00     0.111 C 
BRANCH  24  25
HETATM   25  C   UNK N   1      26.933  19.512   3.799  0.00  0.00     0.010 C 
BRANCH  25  26
HETATM   26  C   UNK N   1      28.086  19.754   4.768  0.00  0.00     0.000 C 
BRANCH  26  27
HETATM   27  C   UNK N   1      27.646  19.547   6.213  0.00  0.00     0.000 C 
BRANCH  27  28
HETATM   28  C   UNK N   1      28.464  18.478   6.909  0.00  0.00     0.000 C 
BRANCH  28  29
HETATM   29  C   UNK N   1      28.434  18.664   8.417  0.00  0.00     0.000 C 
BRANCH  29  30
HETATM   30  C   UNK N   1      29.836  18.603   8.985  0.00  0.00     0.000 C 
BRANCH  30  31
HETATM   31  C   UNK N   1      30.644  17.540   8.262  0.00  0.00     0.000 C 
BRANCH  31  32
HETATM   32  C   UNK N   1      32.110  17.939   8.201  0.00  0.00     0.000 C 
BRANCH  32  33
HETATM   33  C   UNK N   1      32.919  16.906   7.428  0.00  0.00     0.000 C 
BRANCH  33  34
HETATM   34  C   UNK N   1      33.456  17.504   6.142  0.00  0.00     0.000 C 
BRANCH  34  35
HETATM   35  C   UNK N   1      32.789  16.864   4.943  0.00  0.00     0.000 C 
BRANCH  35  36
HETATM   36  C   UNK N   1      31.597  17.712   4.550  0.00  0.00    -0.000 C 
BRANCH  36  37
HETATM   37  C   UNK N   1      30.429  16.838   4.150  0.00  0.00    -0.005 C 
HETATM   38  C   UNK N   1      30.378  15.633   5.068  0.00  0.00     0.005 C 
ENDBRANCH  36  37
ENDBRANCH  35  36
ENDBRANCH  34  35
ENDBRANCH  33  34
ENDBRANCH  32  33
ENDBRANCH  31  32
ENDBRANCH  30  31
ENDBRANCH  29  30
ENDBRANCH  28  29
ENDBRANCH  27  28
ENDBRANCH  26  27
ENDBRANCH  25  26
ENDBRANCH  24  25
ENDBRANCH  22  24
ENDBRANCH  21  22
ENDBRANCH  20  21
ENDBRANCH   1  20
BRANCH   1  39
HETATM   39  C   UNK N   1      20.716  18.896   2.234  0.00  0.00     0.215 C 
BRANCH  39  40
HETATM   40  O   UNK N   1      19.831  17.825   1.922  0.00  0.00    -0.294 OA
BRANCH  40  41
HETATM   41  P   UNK N   1      20.541  16.277   1.358  0.00  0.00     0.393 P 
HETATM   42  O   UNK N   1      19.881  16.527  -0.030  0.00  0.00    -0.631 OA
BRANCH  41  43
HETATM   43  O   UNK N   1      19.436  16.079   2.685  0.00  0.00    -0.307 OA
HETATM   44  H   UNK N   1      19.488  16.653   3.465  0.00  0.00     0.222 HD
ENDBRANCH  41  43
BRANCH  41  45
HETATM   45  O   UNK N   1      19.475  14.899   1.221  0.00  0.00    -0.294 OA
BRANCH  45  46
HETATM   46  C   UNK N   1      19.840  14.009   2.242  0.00  0.00     0.214 C 
BRANCH  46  47
HETATM   47  C   UNK N   1      18.814  12.886   2.348  0.00  0.00     0.166 C 
BRANCH  47  48
HETATM   48  C   UNK N   1      18.685  12.389   3.776  0.00  0.00     0.198 C 
BRANCH  48  49
HETATM   49  O   UNK N   1      17.905  13.265   4.532  0.00  0.00    -0.398 OA
HETATM   50  H   UNK N   1      17.537  14.123   4.792  0.00  0.00     0.209 HD
ENDBRANCH  48  49
ENDBRANCH  47  48
BRANCH  47  51
HETATM   51  O   UNK N   1      19.137  11.833   1.489  0.00  0.00    -0.391 OA
HETATM   52  H   UNK N   1      18.779  10.938   1.376  0.00  0.00     0.210 HD
ENDBRANCH  47  51
ENDBRANCH  46  47
ENDBRANCH  45  46
ENDBRANCH  41  45
ENDBRANCH  40  41
ENDBRANCH  39  40
ENDBRANCH   1  39
TORSDOF 43
ENDMDL
MODEL 6
REMARK VINA RESULT:      -5.2      5.704     10.424
REMARK WARNING: 32 MAX_TORS EXCEEDED!!!
REMARK  43 active torsions:
REMARK  status: ('A' for Active; 'I' for Inactive)
REMARK    1  A    between atoms: C_2  and  C_1 
REMARK    2  A    between atoms: C_1  and  O_8 
REMARK    3  A    between atoms: C_12  and  C_2 
REMARK    4  A    between atoms: C_2  and  O_33 
REMARK    5  A    between atoms: P_3  and  O_16 
REMARK    6  A    between atoms: O_8  and  P_3 
REMARK    7  A    between atoms: P_3  and  O_10 
REMARK    8  A    between atoms: C_4  and  O_15 
REMARK    9  A    between atoms: C_4  and  C_5 
REMARK   10  A    between atoms: C_4  and  C_6 
REMARK   11  A    between atoms: O_9  and  C_5 
REMARK   12  A    between atoms: O_10  and  C_6 
REMARK   13  A    between atoms: C_7  and  O_9 
REMARK   14  A    between atoms: C_11  and  C_7 
REMARK   15  A    between atoms: C_11  and  C_17 
REMARK   16  A    between atoms: C_12  and  O_32 
REMARK   17  A    between atoms: C_13  and  O_15 
REMARK   18  A    between atoms: C_24  and  C_13 
REMARK   19  A    between atoms: C_17  and  C_18 
REMARK   20  A    between atoms: C_18  and  C_19 
REMARK   21  A    between atoms: C_19  and  C_20 
REMARK   22  A    between atoms: C_20  and  C_21 
REMARK   23  A    between atoms: C_21  and  C_22 
REMARK   24  A    between atoms: C_22  and  C_23 
REMARK   25  A    between atoms: C_23  and  C_34 
REMARK   26  A    between atoms: C_24  and  C_25 
REMARK   27  A    between atoms: C_25  and  C_26 
REMARK   28  A    between atoms: C_26  and  C_27 
REMARK   29  A    between atoms: C_27  and  C_28 
REMARK   30  A    between atoms: C_28  and  C_29 
REMARK   31  A    between atoms: C_29  and  C_30 
REMARK   32  A    between atoms: C_30  and  C_31 
REMARK   33  A    between atoms: C_31  and  C_39 
REMARK   34  A    between atoms: C_34  and  C_35 
REMARK   35  A    between atoms: C_35  and  C_36 
REMARK   36  A    between atoms: C_36  and  C_37 
REMARK   37  A    between atoms: C_37  and  C_38 
REMARK   38  A    between atoms: C_38  and  C_46 
REMARK   39  A    between atoms: C_39  and  C_40 
REMARK   40  A    between atoms: C_40  and  C_41 
REMARK   41  A    between atoms: C_41  and  C_42 
REMARK   42  A    between atoms: C_42  and  C_43 
REMARK   43  A    between atoms: C_43  and  C_48 
ROOT
HETATM    1  C   UNK N   1      30.715  16.961   4.896  0.00  0.00     0.180 C 
ENDROOT
BRANCH   1   2
HETATM    2  O   UNK N   1      29.908  17.874   5.547  0.00  0.00    -0.312 OA
BRANCH   2   3
HETATM    3  C   UNK N   1      29.041  17.598   6.555  0.00  0.00     0.259 C 
HETATM    4  O   UNK N   1      29.392  16.867   7.460  0.00  0.00    -0.265 OA
BRANCH   3   5
HETATM    5  C   UNK N   1      27.668  18.185   6.585  0.00  0.00     0.111 C 
BRANCH   5   6
HETATM    6  C   UNK N   1      27.775  19.668   6.868  0.00  0.00     0.010 C 
BRANCH   6   7
HETATM    7  C   UNK N   1      27.573  20.446   5.589  0.00  0.00     0.000 C 
BRANCH   7   8
HETATM    8  C   UNK N   1      26.343  19.959   4.847  0.00  0.00     0.000 C 
BRANCH   8   9
HETATM    9  C   UNK N   1      26.559  20.062   3.352  0.00  0.00     0.000 C 
BRANCH   9  10
HETATM   10  C   UNK N   1      25.278  20.477   2.668  0.00  0.00     0.000 C 
BRANCH  10  11
HETATM   11  C   UNK N   1      24.078  20.139   3.534  0.00  0.00     0.000 C 
BRANCH  11  12
HETATM   12  C   UNK N   1      22.785  20.287   2.745  0.00  0.00     0.000 C 
BRANCH  12  13
HETATM   13  C   UNK N   1      21.623  19.623   3.475  0.00  0.00     0.000 C 
BRANCH  13  14
HETATM   14  C   UNK N   1      20.738  18.817   2.532  0.00  0.00     0.000 C 
BRANCH  14  15
HETATM   15  C   UNK N   1      20.079  17.614   3.201  0.00  0.00     0.000 C 
BRANCH  15  16
HETATM   16  C   UNK N   1      20.657  16.304   2.691  0.00  0.00     0.000 C 
BRANCH  16  17
HETATM   17  C   UNK N   1      20.141  15.135   3.521  0.00  0.00    -0.000 C 
BRANCH  17  18
HETATM   18  C   UNK N   1      20.820  13.822   3.157  0.00  0.00    -0.005 C 
HETATM   19  C   UNK N   1      22.129  13.659   3.906  0.00  0.00     0.005 C 
ENDBRANCH  17  18
ENDBRANCH  16  17
ENDBRANCH  15  16
ENDBRANCH  14  15
ENDBRANCH  13  14
ENDBRANCH  12  13
ENDBRANCH  11  12
ENDBRANCH  10  11
ENDBRANCH   9  10
ENDBRANCH   8   9
ENDBRANCH   7   8
ENDBRANCH   6   7
ENDBRANCH   5   6
ENDBRANCH   3   5
ENDBRANCH   2   3
ENDBRANCH   1   2
BRANCH   1  20
HETATM   20  C   UNK N   1      30.246  16.421   3.546  0.00  0.00     0.213 C 
BRANCH  20  21
HETATM   21  O   UNK N   1      28.985  16.858   3.193  0.00  0.00    -0.319 OA
BRANCH  21  22
HETATM   22  C   UNK N   1      27.936  16.023   2.965  0.00  0.00     0.258 C 
HETATM   23  O   UNK N   1      28.027  15.090   2.182  0.00  0.00    -0.265 OA
BRANCH  22  24
HETATM   24  C   UNK N   1      26.686  16.205   3.751  0.00  0.00     0.111 C 
BRANCH  24  25
HETATM   25  C   UNK N   1      25.443  15.920   2.922  0.00  0.00     0.010 C 
BRANCH  25  26
HETATM   26  C   UNK N   1      24.226  16.623   3.516  0.00  0.00     0.000 C 
BRANCH  26  27
HETATM   27  C   UNK N   1      24.292  16.649   5.039  0.00  0.00     0.000 C 
BRANCH  27  28
HETATM   28  C   UNK N   1      23.014  17.184   5.654  0.00  0.00     0.000 C 
BRANCH  28  29
HETATM   29  C   UNK N   1      22.335  16.125   6.507  0.00  0.00     0.000 C 
BRANCH  29  30
HETATM   30  C   UNK N   1      20.904  16.522   6.802  0.00  0.00     0.000 C 
BRANCH  30  31
HETATM   31  C   UNK N   1      20.209  15.421   7.583  0.00  0.00     0.000 C 
BRANCH  31  32
HETATM   32  C   UNK N   1      20.803  15.306   8.978  0.00  0.00     0.000 C 
BRANCH  32  33
HETATM   33  C   UNK N   1      20.902  13.848   9.404  0.00  0.00     0.000 C 
BRANCH  33  34
HETATM   34  C   UNK N   1      22.286  13.544   9.944  0.00  0.00     0.000 C 
BRANCH  34  35
HETATM   35  C   UNK N   1      23.053  12.673   8.971  0.00  0.00     0.000 C 
BRANCH  35  36
HETATM   36  C   UNK N   1      22.069  12.066   7.994  0.00  0.00    -0.000 C 
BRANCH  36  37
HETATM   37  C   UNK N   1      22.795  11.442   6.823  0.00  0.00    -0.005 C 
HETATM   38  C   UNK N   1      23.577  10.241   7.312  0.00  0.00     0.005 C 
ENDBRANCH  36  37
ENDBRANCH  35  36
ENDBRANCH  34  35
ENDBRANCH  33  34
ENDBRANCH  32  33
ENDBRANCH  31  32
ENDBRANCH  30  31
ENDBRANCH  29  30
ENDBRANCH  28  29
ENDBRANCH  27  28
ENDBRANCH  26  27
ENDBRANCH  25  26
ENDBRANCH  24  25
ENDBRANCH  22  24
ENDBRANCH  21  22
ENDBRANCH  20  21
ENDBRANCH   1  20
BRANCH   1  39
HETATM   39  C   UNK N   1      32.206  16.911   5.254  0.00  0.00     0.215 C 
BRANCH  39  40
HETATM   40  O   UNK N   1      32.470  16.657   6.630  0.00  0.00    -0.294 OA
BRANCH  40  41
HETATM   41  P   UNK N   1      33.328  17.918   7.574  0.00  0.00     0.393 P 
HETATM   42  O   UNK N   1      34.660  17.159   7.304  0.00  0.00    -0.631 OA
BRANCH  41  43
HETATM   43  O   UNK N   1      32.148  17.048   8.509  0.00  0.00    -0.307 OA
HETATM   44  H   UNK N   1      31.436  16.553   8.075  0.00  0.00     0.222 HD
ENDBRANCH  41  43
BRANCH  41  45
HETATM   45  O   UNK N   1      33.837  17.511   9.196  0.00  0.00    -0.294 OA
BRANCH  45  46
HETATM   46  C   UNK N   1      34.913  16.622   9.065  0.00  0.00     0.214 C 
BRANCH  46  47
HETATM   47  C   UNK N   1      35.184  15.929  10.397  0.00  0.00     0.166 C 
BRANCH  47  48
HETATM   48  C   UNK N   1      34.263  14.740  10.599  0.00  0.00     0.198 C 
BRANCH  48  49
HETATM   49  O   UNK N   1      32.976  15.168  10.931  0.00  0.00    -0.398 OA
HETATM   50  H   UNK N   1      32.174  15.225  11.472  0.00  0.00     0.209 HD
ENDBRANCH  48  49
ENDBRANCH  47  48
BRANCH  47  51
HETATM   51  O   UNK N   1      35.065  16.828  11.459  0.00  0.00    -0.391 OA
HETATM   52  H   UNK N   1      34.304  17.161  11.961  0.00  0.00     0.210 HD
ENDBRANCH  47  51
ENDBRANCH  46  47
ENDBRANCH  45  46
ENDBRANCH  41  45
ENDBRANCH  40  41
ENDBRANCH  39  40
ENDBRANCH   1  39
TORSDOF 43
ENDMDL
MODEL 7
REMARK VINA RESULT:      -5.2      5.707     10.071
REMARK WARNING: 32 MAX_TORS EXCEEDED!!!
REMARK  43 active torsions:
REMARK  status: ('A' for Active; 'I' for Inactive)
REMARK    1  A    between atoms: C_2  and  C_1 
REMARK    2  A    between atoms: C_1  and  O_8 
REMARK    3  A    between atoms: C_12  and  C_2 
REMARK    4  A    between atoms: C_2  and  O_33 
REMARK    5  A    between atoms: P_3  and  O_16 
REMARK    6  A    between atoms: O_8  and  P_3 
REMARK    7  A    between atoms: P_3  and  O_10 
REMARK    8  A    between atoms: C_4  and  O_15 
REMARK    9  A    between atoms: C_4  and  C_5 
REMARK   10  A    between atoms: C_4  and  C_6 
REMARK   11  A    between atoms: O_9  and  C_5 
REMARK   12  A    between atoms: O_10  and  C_6 
REMARK   13  A    between atoms: C_7  and  O_9 
REMARK   14  A    between atoms: C_11  and  C_7 
REMARK   15  A    between atoms: C_11  and  C_17 
REMARK   16  A    between atoms: C_12  and  O_32 
REMARK   17  A    between atoms: C_13  and  O_15 
REMARK   18  A    between atoms: C_24  and  C_13 
REMARK   19  A    between atoms: C_17  and  C_18 
REMARK   20  A    between atoms: C_18  and  C_19 
REMARK   21  A    between atoms: C_19  and  C_20 
REMARK   22  A    between atoms: C_20  and  C_21 
REMARK   23  A    between atoms: C_21  and  C_22 
REMARK   24  A    between atoms: C_22  and  C_23 
REMARK   25  A    between atoms: C_23  and  C_34 
REMARK   26  A    between atoms: C_24  and  C_25 
REMARK   27  A    between atoms: C_25  and  C_26 
REMARK   28  A    between atoms: C_26  and  C_27 
REMARK   29  A    between atoms: C_27  and  C_28 
REMARK   30  A    between atoms: C_28  and  C_29 
REMARK   31  A    between atoms: C_29  and  C_30 
REMARK   32  A    between atoms: C_30  and  C_31 
REMARK   33  A    between atoms: C_31  and  C_39 
REMARK   34  A    between atoms: C_34  and  C_35 
REMARK   35  A    between atoms: C_35  and  C_36 
REMARK   36  A    between atoms: C_36  and  C_37 
REMARK   37  A    between atoms: C_37  and  C_38 
REMARK   38  A    between atoms: C_38  and  C_46 
REMARK   39  A    between atoms: C_39  and  C_40 
REMARK   40  A    between atoms: C_40  and  C_41 
REMARK   41  A    between atoms: C_41  and  C_42 
REMARK   42  A    between atoms: C_42  and  C_43 
REMARK   43  A    between atoms: C_43  and  C_48 
ROOT
HETATM    1  C   UNK N   1      29.500  17.642   6.478  0.00  0.00     0.180 C 
ENDROOT
BRANCH   1   2
HETATM    2  O   UNK N   1      29.475  17.185   5.174  0.00  0.00    -0.312 OA
BRANCH   2   3
HETATM    3  C   UNK N   1      28.674  16.203   4.686  0.00  0.00     0.259 C 
HETATM    4  O   UNK N   1      28.858  15.054   5.039  0.00  0.00    -0.265 OA
BRANCH   3   5
HETATM    5  C   UNK N   1      27.560  16.504   3.738  0.00  0.00     0.111 C 
BRANCH   5   6
HETATM    6  C   UNK N   1      26.241  16.236   4.430  0.00  0.00     0.010 C 
BRANCH   6   7
HETATM    7  C   UNK N   1      25.171  15.968   3.398  0.00  0.00     0.000 C 
BRANCH   7   8
HETATM    8  C   UNK N   1      25.617  14.899   2.419  0.00  0.00     0.000 C 
BRANCH   8   9
HETATM    9  C   UNK N   1      24.592  13.786   2.356  0.00  0.00     0.000 C 
BRANCH   9  10
HETATM   10  C   UNK N   1      25.071  12.593   3.150  0.00  0.00     0.000 C 
BRANCH  10  11
HETATM   11  C   UNK N   1      24.135  12.314   4.311  0.00  0.00     0.000 C 
BRANCH  11  12
HETATM   12  C   UNK N   1      24.914  11.850   5.533  0.00  0.00     0.000 C 
BRANCH  12  13
HETATM   13  C   UNK N   1      25.681  13.008   6.162  0.00  0.00     0.000 C 
BRANCH  13  14
HETATM   14  C   UNK N   1      24.873  13.707   7.250  0.00  0.00     0.000 C 
BRANCH  14  15
HETATM   15  C   UNK N   1      24.631  12.834   8.477  0.00  0.00     0.000 C 
BRANCH  15  16
HETATM   16  C   UNK N   1      23.153  12.529   8.664  0.00  0.00     0.000 C 
BRANCH  16  17
HETATM   17  C   UNK N   1      22.563  13.405   9.762  0.00  0.00    -0.000 C 
BRANCH  17  18
HETATM   18  C   UNK N   1      21.061  13.207   9.915  0.00  0.00    -0.005 C 
HETATM   19  C   UNK N   1      20.300  14.440   9.469  0.00  0.00     0.005 C 
ENDBRANCH  17  18
ENDBRANCH  16  17
ENDBRANCH  15  16
ENDBRANCH  14  15
ENDBRANCH  13  14
ENDBRANCH  12  13
ENDBRANCH  11  12
ENDBRANCH  10  11
ENDBRANCH   9  10
ENDBRANCH   8   9
ENDBRANCH   7   8
ENDBRANCH   6   7
ENDBRANCH   5   6
ENDBRANCH   3   5
ENDBRANCH   2   3
ENDBRANCH   1   2
BRANCH   1  20
HETATM   20  C   UNK N   1      28.195  18.157   7.084  0.00  0.00     0.213 C 
BRANCH  20  21
HETATM   21  O   UNK N   1      28.176  19.527   7.252  0.00  0.00    -0.319 OA
BRANCH  21  22
HETATM   22  C   UNK N   1      27.567  20.382   6.388  0.00  0.00     0.258 C 
HETATM   23  O   UNK N   1      27.763  21.586   6.444  0.00  0.00    -0.265 OA
BRANCH  22  24
HETATM   24  C   UNK N   1      26.714  19.825   5.302  0.00  0.00     0.111 C 
BRANCH  24  25
HETATM   25  C   UNK N   1      27.229  20.200   3.921  0.00  0.00     0.010 C 
BRANCH  25  26
HETATM   26  C   UNK N   1      26.073  20.585   3.003  0.00  0.00     0.000 C 
BRANCH  26  27
HETATM   27  C   UNK N   1      24.871  19.672   3.214  0.00  0.00     0.000 C 
BRANCH  27  28
HETATM   28  C   UNK N   1      23.562  20.377   2.919  0.00  0.00     0.000 C 
BRANCH  28  29
HETATM   29  C   UNK N   1      22.379  19.554   3.401  0.00  0.00     0.000 C 
BRANCH  29  30
HETATM   30  C   UNK N   1      22.832  18.514   4.404  0.00  0.00     0.000 C 
BRANCH  30  31
HETATM   31  C   UNK N   1      21.658  17.645   4.817  0.00  0.00     0.000 C 
BRANCH  31  32
HETATM   32  C   UNK N   1      21.610  17.503   6.331  0.00  0.00     0.000 C 
BRANCH  32  33
HETATM   33  C   UNK N   1      21.954  16.081   6.752  0.00  0.00     0.000 C 
BRANCH  33  34
HETATM   34  C   UNK N   1      22.084  15.183   5.537  0.00  0.00     0.000 C 
BRANCH  34  35
HETATM   35  C   UNK N   1      21.259  13.926   5.719  0.00  0.00     0.000 C 
BRANCH  35  36
HETATM   36  C   UNK N   1      20.183  13.902   4.655  0.00  0.00    -0.000 C 
BRANCH  36  37
HETATM   37  C   UNK N   1      20.598  13.025   3.495  0.00  0.00    -0.005 C 
HETATM   38  C   UNK N   1      20.840  13.896   2.279  0.00  0.00     0.005 C 
ENDBRANCH  36  37
ENDBRANCH  35  36
ENDBRANCH  34  35
ENDBRANCH  33  34
ENDBRANCH  32  33
ENDBRANCH  31  32
ENDBRANCH  30  31
ENDBRANCH  29  30
ENDBRANCH  28  29
ENDBRANCH  27  28
ENDBRANCH  26  27
ENDBRANCH  25  26
ENDBRANCH  24  25
ENDBRANCH  22  24
ENDBRANCH  21  22
ENDBRANCH  20  21
ENDBRANCH   1  20
BRANCH   1  39
HETATM   39  C   UNK N   1      30.628  17.165   7.403  0.00  0.00     0.215 C 
BRANCH  39  40
HETATM   40  O   UNK N   1      31.937  17.369   6.883  0.00  0.00    -0.294 OA
BRANCH  40  41
HETATM   41  P   UNK N   1      33.248  17.789   8.033  0.00  0.00     0.393 P 
HETATM   42  O   UNK N   1      34.229  17.863   6.826  0.00  0.00    -0.631 OA
BRANCH  41  43
HETATM   43  O   UNK N   1      32.551  16.225   8.334  0.00  0.00    -0.307 OA
HETATM   44  H   UNK N   1      31.897  16.100   9.039  0.00  0.00     0.222 HD
ENDBRANCH  41  43
BRANCH  41  45
HETATM   45  O   UNK N   1      34.402  16.540   8.439  0.00  0.00    -0.294 OA
BRANCH  45  46
HETATM   46  C   UNK N   1      34.895  16.851   9.714  0.00  0.00     0.214 C 
BRANCH  46  47
HETATM   47  C   UNK N   1      35.683  15.670  10.272  0.00  0.00     0.166 C 
BRANCH  47  48
HETATM   48  C   UNK N   1      34.811  14.788  11.146  0.00  0.00     0.198 C 
BRANCH  48  49
HETATM   49  O   UNK N   1      33.470  15.162  11.037  0.00  0.00    -0.398 OA
HETATM   50  H   UNK N   1      32.513  15.019  10.978  0.00  0.00     0.209 HD
ENDBRANCH  48  49
ENDBRANCH  47  48
BRANCH  47  51
HETATM   51  O   UNK N   1      36.803  16.110  10.982  0.00  0.00    -0.391 OA
HETATM   52  H   UNK N   1      37.425  15.664  11.578  0.00  0.00     0.210 HD
ENDBRANCH  47  51
ENDBRANCH  46  47
ENDBRANCH  45  46
ENDBRANCH  41  45
ENDBRANCH  40  41
ENDBRANCH  39  40
ENDBRANCH   1  39
TORSDOF 43
ENDMDL
MODEL 8
REMARK VINA RESULT:      -5.2      2.411      5.785
REMARK WARNING: 32 MAX_TORS EXCEEDED!!!
REMARK  43 active torsions:
REMARK  status: ('A' for Active; 'I' for Inactive)
REMARK    1  A    between atoms: C_2  and  C_1 
REMARK    2  A    between atoms: C_1  and  O_8 
REMARK    3  A    between atoms: C_12  and  C_2 
REMARK    4  A    between atoms: C_2  and  O_33 
REMARK    5  A    between atoms: P_3  and  O_16 
REMARK    6  A    between atoms: O_8  and  P_3 
REMARK    7  A    between atoms: P_3  and  O_10 
REMARK    8  A    between atoms: C_4  and  O_15 
REMARK    9  A    between atoms: C_4  and  C_5 
REMARK   10  A    between atoms: C_4  and  C_6 
REMARK   11  A    between atoms: O_9  and  C_5 
REMARK   12  A    between atoms: O_10  and  C_6 
REMARK   13  A    between atoms: C_7  and  O_9 
REMARK   14  A    between atoms: C_11  and  C_7 
REMARK   15  A    between atoms: C_11  and  C_17 
REMARK   16  A    between atoms: C_12  and  O_32 
REMARK   17  A    between atoms: C_13  and  O_15 
REMARK   18  A    between atoms: C_24  and  C_13 
REMARK   19  A    between atoms: C_17  and  C_18 
REMARK   20  A    between atoms: C_18  and  C_19 
REMARK   21  A    between atoms: C_19  and  C_20 
REMARK   22  A    between atoms: C_20  and  C_21 
REMARK   23  A    between atoms: C_21  and  C_22 
REMARK   24  A    between atoms: C_22  and  C_23 
REMARK   25  A    between atoms: C_23  and  C_34 
REMARK   26  A    between atoms: C_24  and  C_25 
REMARK   27  A    between atoms: C_25  and  C_26 
REMARK   28  A    between atoms: C_26  and  C_27 
REMARK   29  A    between atoms: C_27  and  C_28 
REMARK   30  A    between atoms: C_28  and  C_29 
REMARK   31  A    between atoms: C_29  and  C_30 
REMARK   32  A    between atoms: C_30  and  C_31 
REMARK   33  A    between atoms: C_31  and  C_39 
REMARK   34  A    between atoms: C_34  and  C_35 
REMARK   35  A    between atoms: C_35  and  C_36 
REMARK   36  A    between atoms: C_36  and  C_37 
REMARK   37  A    between atoms: C_37  and  C_38 
REMARK   38  A    between atoms: C_38  and  C_46 
REMARK   39  A    between atoms: C_39  and  C_40 
REMARK   40  A    between atoms: C_40  and  C_41 
REMARK   41  A    between atoms: C_41  and  C_42 
REMARK   42  A    between atoms: C_42  and  C_43 
REMARK   43  A    between atoms: C_43  and  C_48 
ROOT
HETATM    1  C   UNK N   1      20.440  15.378   7.523  0.00  0.00     0.180 C 
ENDROOT
BRANCH   1   2
HETATM    2  O   UNK N   1      20.062  14.352   6.678  0.00  0.00    -0.312 OA
BRANCH   2   3
HETATM    3  C   UNK N   1      20.839  13.309   6.289  0.00  0.00     0.259 C 
HETATM    4  O   UNK N   1      20.799  12.269   6.916  0.00  0.00    -0.265 OA
BRANCH   3   5
HETATM    5  C   UNK N   1      21.732  13.405   5.095  0.00  0.00     0.111 C 
BRANCH   5   6
HETATM    6  C   UNK N   1      22.211  12.017   4.727  0.00  0.00     0.010 C 
BRANCH   6   7
HETATM    7  C   UNK N   1      21.510  11.553   3.473  0.00  0.00     0.000 C 
BRANCH   7   8
HETATM    8  C   UNK N   1      22.385  10.594   2.687  0.00  0.00     0.000 C 
BRANCH   8   9
HETATM    9  C   UNK N   1      22.062  10.683   1.210  0.00  0.00     0.000 C 
BRANCH   9  10
HETATM   10  C   UNK N   1      23.296  11.075   0.431  0.00  0.00     0.000 C 
BRANCH  10  11
HETATM   11  C   UNK N   1      24.529  10.410   1.015  0.00  0.00     0.000 C 
BRANCH  11  12
HETATM   12  C   UNK N   1      25.689  11.391   1.082  0.00  0.00     0.000 C 
BRANCH  12  13
HETATM   13  C   UNK N   1      25.542  12.327   2.278  0.00  0.00     0.000 C 
BRANCH  13  14
HETATM   14  C   UNK N   1      26.046  13.733   1.972  0.00  0.00     0.000 C 
BRANCH  14  15
HETATM   15  C   UNK N   1      24.977  14.640   1.369  0.00  0.00     0.000 C 
BRANCH  15  16
HETATM   16  C   UNK N   1      23.620  14.410   2.013  0.00  0.00     0.000 C 
BRANCH  16  17
HETATM   17  C   UNK N   1      22.523  14.397   0.956  0.00  0.00    -0.000 C 
BRANCH  17  18
HETATM   18  C   UNK N   1      21.139  14.604   1.555  0.00  0.00    -0.005 C 
HETATM   19  C   UNK N   1      20.090  13.821   0.789  0.00  0.00     0.005 C 
ENDBRANCH  17  18
ENDBRANCH  16  17
ENDBRANCH  15  16
ENDBRANCH  14  15
ENDBRANCH  13  14
ENDBRANCH  12  13
ENDBRANCH  11  12
ENDBRANCH  10  11
ENDBRANCH   9  10
ENDBRANCH   8   9
ENDBRANCH   7   8
ENDBRANCH   6   7
ENDBRANCH   5   6
ENDBRANCH   3   5
ENDBRANCH   2   3
ENDBRANCH   1   2
BRANCH   1  20
HETATM   20  C   UNK N   1      20.311  15.153   9.029  0.00  0.00     0.213 C 
BRANCH  20  21
HETATM   21  O   UNK N   1      21.262  14.291   9.535  0.00  0.00    -0.319 OA
BRANCH  21  22
HETATM   22  C   UNK N   1      20.966  13.220  10.318  0.00  0.00     0.258 C 
HETATM   23  O   UNK N   1      19.809  12.891  10.531  0.00  0.00    -0.265 OA
BRANCH  22  24
HETATM   24  C   UNK N   1      22.078  12.387  10.851  0.00  0.00     0.111 C 
BRANCH  24  25
HETATM   25  C   UNK N   1      22.827  11.656   9.746  0.00  0.00     0.010 C 
BRANCH  25  26
HETATM   26  C   UNK N   1      24.331  11.868   9.885  0.00  0.00     0.000 C 
BRANCH  26  27
HETATM   27  C   UNK N   1      24.731  13.280   9.471  0.00  0.00     0.000 C 
BRANCH  27  28
HETATM   28  C   UNK N   1      24.440  13.548   8.008  0.00  0.00     0.000 C 
BRANCH  28  29
HETATM   29  C   UNK N   1      25.493  14.460   7.401  0.00  0.00     0.000 C 
BRANCH  29  30
HETATM   30  C   UNK N   1      25.067  14.913   6.020  0.00  0.00     0.000 C 
BRANCH  30  31
HETATM   31  C   UNK N   1      26.288  15.133   5.146  0.00  0.00     0.000 C 
BRANCH  31  32
HETATM   32  C   UNK N   1      26.230  16.503   4.489  0.00  0.00     0.000 C 
BRANCH  32  33
HETATM   33  C   UNK N   1      27.631  17.032   4.216  0.00  0.00     0.000 C 
BRANCH  33  34
HETATM   34  C   UNK N   1      27.592  18.520   3.927  0.00  0.00     0.000 C 
BRANCH  34  35
HETATM   35  C   UNK N   1      26.159  19.008   3.861  0.00  0.00     0.000 C 
BRANCH  35  36
HETATM   36  C   UNK N   1      26.124  20.451   4.319  0.00  0.00    -0.000 C 
BRANCH  36  37
HETATM   37  C   UNK N   1      26.175  20.534   5.828  0.00  0.00    -0.005 C 
HETATM   38  C   UNK N   1      27.303  21.460   6.234  0.00  0.00     0.005 C 
ENDBRANCH  36  37
ENDBRANCH  35  36
ENDBRANCH  34  35
ENDBRANCH  33  34
ENDBRANCH  32  33
ENDBRANCH  31  32
ENDBRANCH  30  31
ENDBRANCH  29  30
ENDBRANCH  28  29
ENDBRANCH  27  28
ENDBRANCH  26  27
ENDBRANCH  25  26
ENDBRANCH  24  25
ENDBRANCH  22  24
ENDBRANCH  21  22
ENDBRANCH  20  21
ENDBRANCH   1  20
BRANCH   1  39
HETATM   39  C   UNK N   1      21.411  16.443   6.997  0.00  0.00     0.215 C 
BRANCH  39  40
HETATM   40  O   UNK N   1      21.054  16.986   5.730  0.00  0.00    -0.294 OA
BRANCH  40  41
HETATM   41  P   UNK N   1      22.330  17.116   4.475  0.00  0.00     0.393 P 
HETATM   42  O   UNK N   1      22.891  18.357   5.231  0.00  0.00    -0.631 OA
BRANCH  41  43
HETATM   43  O   UNK N   1      20.722  17.295   3.837  0.00  0.00    -0.307 OA
HETATM   44  H   UNK N   1      20.019  17.703   4.367  0.00  0.00     0.222 HD
ENDBRANCH  41  43
BRANCH  41  45
HETATM   45  O   UNK N   1      22.156  18.371   3.271  0.00  0.00    -0.294 OA
BRANCH  45  46
HETATM   46  C   UNK N   1      21.193  19.265   3.762  0.00  0.00     0.214 C 
BRANCH  46  47
HETATM   47  C   UNK N   1      21.248  20.574   2.980  0.00  0.00     0.166 C 
BRANCH  47  48
HETATM   48  C   UNK N   1      20.598  20.430   1.616  0.00  0.00     0.198 C 
BRANCH  48  49
HETATM   49  O   UNK N   1      20.410  19.083   1.302  0.00  0.00    -0.398 OA
HETATM   50  H   UNK N   1      19.909  18.299   1.029  0.00  0.00     0.209 HD
ENDBRANCH  48  49
ENDBRANCH  47  48
BRANCH  47  51
HETATM   51  O   UNK N   1      22.564  21.022   2.852  0.00  0.00    -0.391 OA
HETATM   52  H   UNK N   1      23.098  21.297   2.089  0.00  0.00     0.210 HD
ENDBRANCH  47  51
ENDBRANCH  46  47
ENDBRANCH  45  46
ENDBRANCH  41  45
ENDBRANCH  40  41
ENDBRANCH  39  40
ENDBRANCH   1  39
TORSDOF 43
ENDMDL
MODEL 9
REMARK VINA RESULT:      -5.2      7.107     11.899
REMARK WARNING: 32 MAX_TORS EXCEEDED!!!
REMARK  43 active torsions:
REMARK  status: ('A' for Active; 'I' for Inactive)
REMARK    1  A    between atoms: C_2  and  C_1 
REMARK    2  A    between atoms: C_1  and  O_8 
REMARK    3  A    between atoms: C_12  and  C_2 
REMARK    4  A    between atoms: C_2  and  O_33 
REMARK    5  A    between atoms: P_3  and  O_16 
REMARK    6  A    between atoms: O_8  and  P_3 
REMARK    7  A    between atoms: P_3  and  O_10 
REMARK    8  A    between atoms: C_4  and  O_15 
REMARK    9  A    between atoms: C_4  and  C_5 
REMARK   10  A    between atoms: C_4  and  C_6 
REMARK   11  A    between atoms: O_9  and  C_5 
REMARK   12  A    between atoms: O_10  and  C_6 
REMARK   13  A    between atoms: C_7  and  O_9 
REMARK   14  A    between atoms: C_11  and  C_7 
REMARK   15  A    between atoms: C_11  and  C_17 
REMARK   16  A    between atoms: C_12  and  O_32 
REMARK   17  A    between atoms: C_13  and  O_15 
REMARK   18  A    between atoms: C_24  and  C_13 
REMARK   19  A    between atoms: C_17  and  C_18 
REMARK   20  A    between atoms: C_18  and  C_19 
REMARK   21  A    between atoms: C_19  and  C_20 
REMARK   22  A    between atoms: C_20  and  C_21 
REMARK   23  A    between atoms: C_21  and  C_22 
REMARK   24  A    between atoms: C_22  and  C_23 
REMARK   25  A    between atoms: C_23  and  C_34 
REMARK   26  A    between atoms: C_24  and  C_25 
REMARK   27  A    between atoms: C_25  and  C_26 
REMARK   28  A    between atoms: C_26  and  C_27 
REMARK   29  A    between atoms: C_27  and  C_28 
REMARK   30  A    between atoms: C_28  and  C_29 
REMARK   31  A    between atoms: C_29  and  C_30 
REMARK   32  A    between atoms: C_30  and  C_31 
REMARK   33  A    between atoms: C_31  and  C_39 
REMARK   34  A    between atoms: C_34  and  C_35 
REMARK   35  A    between atoms: C_35  and  C_36 
REMARK   36  A    between atoms: C_36  and  C_37 
REMARK   37  A    between atoms: C_37  and  C_38 
REMARK   38  A    between atoms: C_38  and  C_46 
REMARK   39  A    between atoms: C_39  and  C_40 
REMARK   40  A    between atoms: C_40  and  C_41 
REMARK   41  A    between atoms: C_41  and  C_42 
REMARK   42  A    between atoms: C_42  and  C_43 
REMARK   43  A    between atoms: C_43  and  C_48 
ROOT
HETATM    1  C   UNK N   1      34.133  17.467   7.360  0.00  0.00     0.180 C 
ENDROOT
BRANCH   1   2
HETATM    2  O   UNK N   1      34.197  17.693   5.998  0.00  0.00    -0.312 OA
BRANCH   2   3
HETATM    3  C   UNK N   1      33.504  17.022   5.043  0.00  0.00     0.259 C 
HETATM    4  O   UNK N   1      33.915  15.945   4.655  0.00  0.00    -0.265 OA
BRANCH   3   5
HETATM    5  C   UNK N   1      32.237  17.567   4.469  0.00  0.00     0.111 C 
BRANCH   5   6
HETATM    6  C   UNK N   1      31.152  16.519   4.591  0.00  0.00     0.010 C 
BRANCH   6   7
HETATM    7  C   UNK N   1      29.797  17.175   4.480  0.00  0.00     0.000 C 
BRANCH   7   8
HETATM    8  C   UNK N   1      28.783  16.227   3.868  0.00  0.00     0.000 C 
BRANCH   8   9
HETATM    9  C   UNK N   1      27.412  16.869   3.847  0.00  0.00     0.000 C 
BRANCH   9  10
HETATM   10  C   UNK N   1      26.593  16.386   5.021  0.00  0.00     0.000 C 
BRANCH  10  11
HETATM   11  C   UNK N   1      25.160  16.874   4.908  0.00  0.00     0.000 C 
BRANCH  11  12
HETATM   12  C   UNK N   1      24.186  15.708   4.987  0.00  0.00     0.000 C 
BRANCH  12  13
HETATM   13  C   UNK N   1      23.888  15.344   6.437  0.00  0.00     0.000 C 
BRANCH  13  14
HETATM   14  C   UNK N   1      22.760  14.325   6.553  0.00  0.00     0.000 C 
BRANCH  14  15
HETATM   15  C   UNK N   1      21.760  14.653   7.658  0.00  0.00     0.000 C 
BRANCH  15  16
HETATM   16  C   UNK N   1      21.523  13.461   8.571  0.00  0.00     0.000 C 
BRANCH  16  17
HETATM   17  C   UNK N   1      22.518  13.469   9.725  0.00  0.00    -0.000 C 
BRANCH  17  18
HETATM   18  C   UNK N   1      22.845  12.065  10.216  0.00  0.00    -0.005 C 
HETATM   19  C   UNK N   1      22.891  12.015  11.731  0.00  0.00     0.005 C 
ENDBRANCH  17  18
ENDBRANCH  16  17
ENDBRANCH  15  16
ENDBRANCH  14  15
ENDBRANCH  13  14
ENDBRANCH  12  13
ENDBRANCH  11  12
ENDBRANCH  10  11
ENDBRANCH   9  10
ENDBRANCH   8   9
ENDBRANCH   7   8
ENDBRANCH   6   7
ENDBRANCH   5   6
ENDBRANCH   3   5
ENDBRANCH   2   3
ENDBRANCH   1   2
BRANCH   1  20
HETATM   20  C   UNK N   1      33.036  18.171   8.156  0.00  0.00     0.213 C 
BRANCH  20  21
HETATM   21  O   UNK N   1      31.768  17.719   7.854  0.00  0.00    -0.319 OA
BRANCH  21  22
HETATM   22  C   UNK N   1      30.788  17.550   8.781  0.00  0.00     0.258 C 
HETATM   23  O   UNK N   1      30.612  16.472   9.328  0.00  0.00    -0.265 OA
BRANCH  22  24
HETATM   24  C   UNK N   1      29.976  18.726   9.195  0.00  0.00     0.111 C 
BRANCH  24  25
HETATM   25  C   UNK N   1      28.490  18.511   8.949  0.00  0.00     0.010 C 
BRANCH  25  26
HETATM   26  C   UNK N   1      28.185  18.523   7.454  0.00  0.00     0.000 C 
BRANCH  26  27
HETATM   27  C   UNK N   1      27.597  19.861   7.021  0.00  0.00     0.000 C 
BRANCH  27  28
HETATM   28  C   UNK N   1      27.777  20.106   5.536  0.00  0.00     0.000 C 
BRANCH  28  29
HETATM   29  C   UNK N   1      26.444  20.397   4.867  0.00  0.00     0.000 C 
BRANCH  29  30
HETATM   30  C   UNK N   1      26.603  20.423   3.361  0.00  0.00     0.000 C 
BRANCH  30  31
HETATM   31  C   UNK N   1      25.239  20.445   2.694  0.00  0.00     0.000 C 
BRANCH  31  32
HETATM   32  C   UNK N   1      24.165  19.995   3.672  0.00  0.00     0.000 C 
BRANCH  32  33
HETATM   33  C   UNK N   1      22.786  20.071   3.032  0.00  0.00     0.000 C 
BRANCH  33  34
HETATM   34  C   UNK N   1      22.004  18.799   3.298  0.00  0.00     0.000 C 
BRANCH  34  35
HETATM   35  C   UNK N   1      21.333  18.865   4.654  0.00  0.00     0.000 C 
BRANCH  35  36
HETATM   36  C   UNK N   1      20.936  17.462   5.060  0.00  0.00    -0.000 C 
BRANCH  36  37
HETATM   37  C   UNK N   1      20.452  16.676   3.862  0.00  0.00    -0.005 C 
HETATM   38  C   UNK N   1      20.087  15.274   4.305  0.00  0.00     0.005 C 
ENDBRANCH  36  37
ENDBRANCH  35  36
ENDBRANCH  34  35
ENDBRANCH  33  34
ENDBRANCH  32  33
ENDBRANCH  31  32
ENDBRANCH  30  31
ENDBRANCH  29  30
ENDBRANCH  28  29
ENDBRANCH  27  28
ENDBRANCH  26  27
ENDBRANCH  25  26
ENDBRANCH  24  25
ENDBRANCH  22  24
ENDBRANCH  21  22
ENDBRANCH  20  21
ENDBRANCH   1  20
BRANCH   1  39
HETATM   39  C   UNK N   1      34.780  16.195   7.924  0.00  0.00     0.215 C 
BRANCH  39  40
HETATM   40  O   UNK N   1      34.947  16.200   9.338  0.00  0.00    -0.294 OA
BRANCH  40  41
HETATM   41  P   UNK N   1      35.884  14.864  10.085  0.00  0.00     0.393 P 
HETATM   42  O   UNK N   1      34.551  14.307  10.666  0.00  0.00    -0.631 OA
BRANCH  41  43
HETATM   43  O   UNK N   1      36.352  16.435  10.664  0.00  0.00    -0.307 OA
HETATM   44  H   UNK N   1      35.975  17.241  10.278  0.00  0.00     0.222 HD
ENDBRANCH  41  43
BRANCH  41  45
HETATM   45  O   UNK N   1      36.185  14.949  11.804  0.00  0.00    -0.294 OA
BRANCH  45  46
HETATM   46  C   UNK N   1      35.243  14.111  12.417  0.00  0.00     0.214 C 
BRANCH  46  47
HETATM   47  C   UNK N   1      35.809  13.551  13.718  0.00  0.00     0.166 C 
BRANCH  47  48
HETATM   48  C   UNK N   1      36.679  12.335  13.464  0.00  0.00     0.198 C 
BRANCH  48  49
HETATM   49  O   UNK N   1      37.699  12.641  12.561  0.00  0.00    -0.398 OA
HETATM   50  H   UNK N   1      38.521  12.491  12.069  0.00  0.00     0.209 HD
ENDBRANCH  48  49
ENDBRANCH  47  48
BRANCH  47  51
HETATM   51  O   UNK N   1      34.783  13.242  14.615  0.00  0.00    -0.391 OA
HETATM   52  H   UNK N   1      34.032  13.750  14.959  0.00  0.00     0.210 HD
ENDBRANCH  47  51
ENDBRANCH  46  47
ENDBRANCH  45  46
ENDBRANCH  41  45
ENDBRANCH  40  41
ENDBRANCH  39  40
ENDBRANCH   1  39
TORSDOF 43
ENDMDL
