MODEL 1
REMARK VINA RESULT:      -4.3      0.000      0.000
REMARK  6 active torsions:
REMARK  status: ('A' for Active; 'I' for Inactive)
REMARK    1  A    between atoms: O_1  and  C_2 
REMARK    2  A    between atoms: C_2  and  C_3 
REMARK    3  A    between atoms: C_3  and  N_9 
REMARK    4  A    between atoms: C_3  and  C_5 
REMARK    5  A    between atoms: S_4  and  C_6 
REMARK    6  A    between atoms: C_5  and  C_6 
ROOT
HETATM    1  C   UNK N   1      34.350  17.130   9.180  0.00  0.00     0.174 C 
ENDROOT
BRANCH   1   2
HETATM    2  C   UNK N   1      34.705  18.210   8.190  0.00  0.00     0.163 C 
HETATM    3  O   UNK N   1      35.284  19.217   8.564  0.00  0.00    -0.648 OA
BRANCH   2   4
HETATM    4  O   UNK N   1      34.413  18.061   6.882  0.00  0.00    -0.775 OA
HETATM    5  H   UNK N   1      33.629  18.402   6.497  0.00  0.00     0.167 HD
ENDBRANCH   2   4
ENDBRANCH   1   2
BRANCH   1   6
HETATM    6  N   UNK N   1      35.042  17.350  10.440  0.00  0.00    -0.418 N 
HETATM    7  H   UNK N   1      35.546  16.591  10.899  0.00  0.00     0.150 HD
HETATM    8  H   UNK N   1      35.022  18.274  10.870  0.00  0.00     0.150 HD
ENDBRANCH   1   6
BRANCH   1   9
HETATM    9  C   UNK N   1      34.692  15.742   8.656  0.00  0.00     0.048 C 
BRANCH   9  10
HETATM   10  C   UNK N   1      35.633  15.043   9.623  0.00  0.00     0.111 C 
BRANCH  10  11
HETATM   11  S   UNK N   1      34.772  13.680  10.457  0.00  0.00     0.010 S 
HETATM   12  O   UNK N   1      34.315  14.598  11.601  0.00  0.00    -0.258 OA
HETATM   13  C   UNK N   1      36.263  13.186  11.366  0.00  0.00     0.127 C 
ENDBRANCH  10  11
ENDBRANCH   9  10
ENDBRANCH   1   9
TORSDOF 6
ENDMDL
MODEL 2
REMARK VINA RESULT:      -4.2     13.020     13.960
REMARK  6 active torsions:
REMARK  status: ('A' for Active; 'I' for Inactive)
REMARK    1  A    between atoms: O_1  and  C_2 
REMARK    2  A    between atoms: C_2  and  C_3 
REMARK    3  A    between atoms: C_3  and  N_9 
REMARK    4  A    between atoms: C_3  and  C_5 
REMARK    5  A    between atoms: S_4  and  C_6 
REMARK    6  A    between atoms: C_5  and  C_6 
ROOT
HETATM    1  C   UNK N   1      22.489  12.427  11.311  0.00  0.00     0.174 C 
ENDROOT
BRANCH   1   2
HETATM    2  C   UNK N   1      23.692  12.176  12.184  0.00  0.00     0.163 C 
HETATM    3  O   UNK N   1      23.548  11.949  13.375  0.00  0.00    -0.648 OA
BRANCH   2   4
HETATM    4  O   UNK N   1      24.932  12.171  11.655  0.00  0.00    -0.775 OA
HETATM    5  H   UNK N   1      25.450  12.948  11.573  0.00  0.00     0.167 HD
ENDBRANCH   2   4
ENDBRANCH   1   2
BRANCH   1   6
HETATM    6  N   UNK N   1      21.333  11.708  11.822  0.00  0.00    -0.418 N 
HETATM    7  H   UNK N   1      21.179  11.612  12.826  0.00  0.00     0.150 HD
HETATM    8  H   UNK N   1      20.668  11.296  11.168  0.00  0.00     0.150 HD
ENDBRANCH   1   6
BRANCH   1   9
HETATM    9  C   UNK N   1      22.737  12.015   9.867  0.00  0.00     0.048 C 
BRANCH   9  10
HETATM   10  C   UNK N   1      21.598  12.504   8.988  0.00  0.00     0.111 C 
BRANCH  10  11
HETATM   11  S   UNK N   1      21.146  14.203   9.440  0.00  0.00     0.010 S 
HETATM   12  O   UNK N   1      19.717  13.780   9.813  0.00  0.00    -0.258 OA
HETATM   13  C   UNK N   1      20.649  14.609   7.742  0.00  0.00     0.127 C 
ENDBRANCH  10  11
ENDBRANCH   9  10
ENDBRANCH   1   9
TORSDOF 6
ENDMDL
MODEL 3
REMARK VINA RESULT:      -4.2      2.475      2.811
REMARK  6 active torsions:
REMARK  status: ('A' for Active; 'I' for Inactive)
REMARK    1  A    between atoms: O_1  and  C_2 
REMARK    2  A    between atoms: C_2  and  C_3 
REMARK    3  A    between atoms: C_3  and  N_9 
REMARK    4  A    between atoms: C_3  and  C_5 
REMARK    5  A    between atoms: S_4  and  C_6 
REMARK    6  A    between atoms: C_5  and  C_6 
ROOT
HETATM    1  C   UNK N   1      34.005  17.249   9.023  0.00  0.00     0.174 C 
ENDROOT
BRANCH   1   2
HETATM    2  C   UNK N   1      34.594  18.275   8.089  0.00  0.00     0.163 C 
HETATM    3  O   UNK N   1      35.260  19.197   8.534  0.00  0.00    -0.648 OA
BRANCH   2   4
HETATM    4  O   UNK N   1      34.415  18.170   6.757  0.00  0.00    -0.775 OA
HETATM    5  H   UNK N   1      34.532  17.364   6.294  0.00  0.00     0.167 HD
ENDBRANCH   2   4
ENDBRANCH   1   2
BRANCH   1   6
HETATM    6  N   UNK N   1      34.819  17.128  10.222  0.00  0.00    -0.418 N 
HETATM    7  H   UNK N   1      34.753  16.303  10.818  0.00  0.00     0.150 HD
HETATM    8  H   UNK N   1      35.463  17.879  10.471  0.00  0.00     0.150 HD
ENDBRANCH   1   6
BRANCH   1   9
HETATM    9  C   UNK N   1      33.881  15.883   8.363  0.00  0.00     0.048 C 
BRANCH   9  10
HETATM   10  C   UNK N   1      35.208  15.147   8.443  0.00  0.00     0.111 C 
BRANCH  10  11
HETATM   11  S   UNK N   1      35.533  14.274   6.885  0.00  0.00     0.010 S 
HETATM   12  O   UNK N   1      35.518  15.585   6.085  0.00  0.00    -0.258 OA
HETATM   13  C   UNK N   1      33.766  13.994   6.579  0.00  0.00     0.127 C 
ENDBRANCH  10  11
ENDBRANCH   9  10
ENDBRANCH   1   9
TORSDOF 6
ENDMDL
MODEL 4
REMARK VINA RESULT:      -4.1     14.819     15.565
REMARK  6 active torsions:
REMARK  status: ('A' for Active; 'I' for Inactive)
REMARK    1  A    between atoms: O_1  and  C_2 
REMARK    2  A    between atoms: C_2  and  C_3 
REMARK    3  A    between atoms: C_3  and  N_9 
REMARK    4  A    between atoms: C_3  and  C_5 
REMARK    5  A    between atoms: S_4  and  C_6 
REMARK    6  A    between atoms: C_5  and  C_6 
ROOT
HETATM    1  C   UNK N   1      20.410  19.129   2.401  0.00  0.00     0.174 C 
ENDROOT
BRANCH   1   2
HETATM    2  C   UNK N   1      20.758  20.174   1.371  0.00  0.00     0.163 C 
HETATM    3  O   UNK N   1      21.194  21.259   1.723  0.00  0.00    -0.648 OA
BRANCH   2   4
HETATM    4  O   UNK N   1      20.619  19.911   0.056  0.00  0.00    -0.775 OA
HETATM    5  H   UNK N   1      19.797  19.679  -0.329  0.00  0.00     0.167 HD
ENDBRANCH   2   4
ENDBRANCH   1   2
BRANCH   1   6
HETATM    6  N   UNK N   1      18.988  18.828   2.358  0.00  0.00    -0.418 N 
HETATM    7  H   UNK N   1      18.579  18.145   2.995  0.00  0.00     0.150 HD
HETATM    8  H   UNK N   1      18.392  19.307   1.683  0.00  0.00     0.150 HD
ENDBRANCH   1   6
BRANCH   1   9
HETATM    9  C   UNK N   1      20.788  19.568   3.808  0.00  0.00     0.048 C 
BRANCH   9  10
HETATM   10  C   UNK N   1      21.853  18.641   4.370  0.00  0.00     0.111 C 
BRANCH  10  11
HETATM   11  S   UNK N   1      21.127  17.538   5.615  0.00  0.00     0.010 S 
HETATM   12  O   UNK N   1      21.387  18.550   6.741  0.00  0.00    -0.258 OA
HETATM   13  C   UNK N   1      22.709  16.702   5.915  0.00  0.00     0.127 C 
ENDBRANCH  10  11
ENDBRANCH   9  10
ENDBRANCH   1   9
TORSDOF 6
ENDMDL
MODEL 5
REMARK VINA RESULT:      -4.1      1.865      2.129
REMARK  6 active torsions:
REMARK  status: ('A' for Active; 'I' for Inactive)
REMARK    1  A    between atoms: O_1  and  C_2 
REMARK    2  A    between atoms: C_2  and  C_3 
REMARK    3  A    between atoms: C_3  and  N_9 
REMARK    4  A    between atoms: C_3  and  C_5 
REMARK    5  A    between atoms: S_4  and  C_6 
REMARK    6  A    between atoms: C_5  and  C_6 
ROOT
HETATM    1  C   UNK N   1      33.564  16.673   8.102  0.00  0.00     0.174 C 
ENDROOT
BRANCH   1   2
HETATM    2  C   UNK N   1      34.232  17.885   7.503  0.00  0.00     0.163 C 
HETATM    3  O   UNK N   1      34.266  18.029   6.291  0.00  0.00    -0.648 OA
BRANCH   2   4
HETATM    4  O   UNK N   1      34.769  18.832   8.297  0.00  0.00    -0.775 OA
HETATM    5  H   UNK N   1      35.688  18.883   8.472  0.00  0.00     0.167 HD
ENDBRANCH   2   4
ENDBRANCH   1   2
BRANCH   1   6
HETATM    6  N   UNK N   1      32.563  17.075   9.077  0.00  0.00    -0.418 N 
HETATM    7  H   UNK N   1      32.276  16.441   9.823  0.00  0.00     0.150 HD
HETATM    8  H   UNK N   1      32.142  18.001   9.013  0.00  0.00     0.150 HD
ENDBRANCH   1   6
BRANCH   1   9
HETATM    9  C   UNK N   1      34.567  15.741   8.768  0.00  0.00     0.048 C 
BRANCH   9  10
HETATM   10  C   UNK N   1      34.189  15.533  10.225  0.00  0.00     0.111 C 
BRANCH  10  11
HETATM   11  S   UNK N   1      35.610  15.892  11.296  0.00  0.00     0.010 S 
HETATM   12  O   UNK N   1      35.901  17.207  10.558  0.00  0.00    -0.258 OA
HETATM   13  C   UNK N   1      36.751  14.968  10.230  0.00  0.00     0.127 C 
ENDBRANCH  10  11
ENDBRANCH   9  10
ENDBRANCH   1   9
TORSDOF 6
ENDMDL
MODEL 6
REMARK VINA RESULT:      -4.1      1.556      2.023
REMARK  6 active torsions:
REMARK  status: ('A' for Active; 'I' for Inactive)
REMARK    1  A    between atoms: O_1  and  C_2 
REMARK    2  A    between atoms: C_2  and  C_3 
REMARK    3  A    between atoms: C_3  and  N_9 
REMARK    4  A    between atoms: C_3  and  C_5 
REMARK    5  A    between atoms: S_4  and  C_6 
REMARK    6  A    between atoms: C_5  and  C_6 
ROOT
HETATM    1  C   UNK N   1      34.070  17.217   9.078  0.00  0.00     0.174 C 
ENDROOT
BRANCH   1   2
HETATM    2  C   UNK N   1      34.637  18.232   8.118  0.00  0.00     0.163 C 
HETATM    3  O   UNK N   1      34.448  18.110   6.918  0.00  0.00    -0.648 OA
BRANCH   2   4
HETATM    4  O   UNK N   1      35.329  19.294   8.575  0.00  0.00    -0.775 OA
HETATM    5  H   UNK N   1      35.652  19.347   9.453  0.00  0.00     0.167 HD
ENDBRANCH   2   4
ENDBRANCH   1   2
BRANCH   1   6
HETATM    6  N   UNK N   1      34.858  17.180  10.300  0.00  0.00    -0.418 N 
HETATM    7  H   UNK N   1      35.381  16.343  10.560  0.00  0.00     0.150 HD
HETATM    8  H   UNK N   1      34.886  18.000  10.906  0.00  0.00     0.150 HD
ENDBRANCH   1   6
BRANCH   1   9
HETATM    9  C   UNK N   1      34.021  15.823   8.471  0.00  0.00     0.048 C 
BRANCH   9  10
HETATM   10  C   UNK N   1      34.218  14.779   9.557  0.00  0.00     0.111 C 
BRANCH  10  11
HETATM   11  S   UNK N   1      35.639  13.723   9.159  0.00  0.00     0.010 S 
HETATM   12  O   UNK N   1      36.632  14.764   9.697  0.00  0.00    -0.258 OA
HETATM   13  C   UNK N   1      35.762  14.384   7.474  0.00  0.00     0.127 C 
ENDBRANCH  10  11
ENDBRANCH   9  10
ENDBRANCH   1   9
TORSDOF 6
ENDMDL
MODEL 7
REMARK VINA RESULT:      -4.0     11.727     12.712
REMARK  6 active torsions:
REMARK  status: ('A' for Active; 'I' for Inactive)
REMARK    1  A    between atoms: O_1  and  C_2 
REMARK    2  A    between atoms: C_2  and  C_3 
REMARK    3  A    between atoms: C_3  and  N_9 
REMARK    4  A    between atoms: C_3  and  C_5 
REMARK    5  A    between atoms: S_4  and  C_6 
REMARK    6  A    between atoms: C_5  and  C_6 
ROOT
HETATM    1  C   UNK N   1      22.602  12.317  11.243  0.00  0.00     0.174 C 
ENDROOT
BRANCH   1   2
HETATM    2  C   UNK N   1      23.759  12.159  12.197  0.00  0.00     0.163 C 
HETATM    3  O   UNK N   1      23.552  11.983  13.387  0.00  0.00    -0.648 OA
BRANCH   2   4
HETATM    4  O   UNK N   1      25.028  12.182  11.742  0.00  0.00    -0.775 OA
HETATM    5  H   UNK N   1      25.257  11.926  10.870  0.00  0.00     0.167 HD
ENDBRANCH   2   4
ENDBRANCH   1   2
BRANCH   1   6
HETATM    6  N   UNK N   1      21.394  11.739  11.811  0.00  0.00    -0.418 N 
HETATM    7  H   UNK N   1      21.193  11.822  12.807  0.00  0.00     0.150 HD
HETATM    8  H   UNK N   1      20.740  11.245  11.204  0.00  0.00     0.150 HD
ENDBRANCH   1   6
BRANCH   1   9
HETATM    9  C   UNK N   1      22.882  11.669   9.895  0.00  0.00     0.048 C 
BRANCH   9  10
HETATM   10  C   UNK N   1      22.870  12.724   8.802  0.00  0.00     0.111 C 
BRANCH  10  11
HETATM   11  S   UNK N   1      24.471  12.757   7.948  0.00  0.00     0.010 S 
HETATM   12  O   UNK N   1      25.143  13.483   9.123  0.00  0.00    -0.258 OA
HETATM   13  C   UNK N   1      24.088  14.324   7.117  0.00  0.00     0.127 C 
ENDBRANCH  10  11
ENDBRANCH   9  10
ENDBRANCH   1   9
TORSDOF 6
ENDMDL
MODEL 8
REMARK VINA RESULT:      -3.6      2.183      4.863
REMARK  6 active torsions:
REMARK  status: ('A' for Active; 'I' for Inactive)
REMARK    1  A    between atoms: O_1  and  C_2 
REMARK    2  A    between atoms: C_2  and  C_3 
REMARK    3  A    between atoms: C_3  and  N_9 
REMARK    4  A    between atoms: C_3  and  C_5 
REMARK    5  A    between atoms: S_4  and  C_6 
REMARK    6  A    between atoms: C_5  and  C_6 
ROOT
HETATM    1  C   UNK N   1      34.642  15.461  11.141  0.00  0.00     0.174 C 
ENDROOT
BRANCH   1   2
HETATM    2  C   UNK N   1      35.433  14.490  11.979  0.00  0.00     0.163 C 
HETATM    3  O   UNK N   1      34.865  13.781  12.795  0.00  0.00    -0.648 OA
BRANCH   2   4
HETATM    4  O   UNK N   1      36.766  14.373  11.816  0.00  0.00    -0.775 OA
HETATM    5  H   UNK N   1      37.267  13.694  12.222  0.00  0.00     0.167 HD
ENDBRANCH   2   4
ENDBRANCH   1   2
BRANCH   1   6
HETATM    6  N   UNK N   1      33.356  14.887  10.776  0.00  0.00    -0.418 N 
HETATM    7  H   UNK N   1      33.156  14.625   9.811  0.00  0.00     0.150 HD
HETATM    8  H   UNK N   1      32.647  14.745  11.495  0.00  0.00     0.150 HD
ENDBRANCH   1   6
BRANCH   1   9
HETATM    9  C   UNK N   1      35.388  15.863   9.877  0.00  0.00     0.048 C 
BRANCH   9  10
HETATM   10  C   UNK N   1      34.754  17.107   9.276  0.00  0.00     0.111 C 
BRANCH  10  11
HETATM   11  S   UNK N   1      34.128  16.746   7.611  0.00  0.00     0.010 S 
HETATM   12  O   UNK N   1      34.568  18.122   7.089  0.00  0.00    -0.258 OA
HETATM   13  C   UNK N   1      32.469  17.358   8.013  0.00  0.00     0.127 C 
ENDBRANCH  10  11
ENDBRANCH   9  10
ENDBRANCH   1   9
TORSDOF 6
ENDMDL
MODEL 9
REMARK VINA RESULT:      -3.6      2.116      2.679
REMARK  6 active torsions:
REMARK  status: ('A' for Active; 'I' for Inactive)
REMARK    1  A    between atoms: O_1  and  C_2 
REMARK    2  A    between atoms: C_2  and  C_3 
REMARK    3  A    between atoms: C_3  and  N_9 
REMARK    4  A    between atoms: C_3  and  C_5 
REMARK    5  A    between atoms: S_4  and  C_6 
REMARK    6  A    between atoms: C_5  and  C_6 
ROOT
HETATM    1  C   UNK N   1      34.647  15.323  10.455  0.00  0.00     0.174 C 
ENDROOT
BRANCH   1   2
HETATM    2  C   UNK N   1      34.745  16.716   9.886  0.00  0.00     0.163 C 
HETATM    3  O   UNK N   1      33.942  17.093   9.047  0.00  0.00    -0.648 OA
BRANCH   2   4
HETATM    4  O   UNK N   1      35.698  17.565  10.318  0.00  0.00    -0.775 OA
HETATM    5  H   UNK N   1      35.764  18.449  10.013  0.00  0.00     0.167 HD
ENDBRANCH   2   4
ENDBRANCH   1   2
BRANCH   1   6
HETATM    6  N   UNK N   1      33.265  15.003  10.776  0.00  0.00    -0.418 N 
HETATM    7  H   UNK N   1      33.027  14.132  11.251  0.00  0.00     0.150 HD
HETATM    8  H   UNK N   1      32.525  15.657  10.523  0.00  0.00     0.150 HD
ENDBRANCH   1   6
BRANCH   1   9
HETATM    9  C   UNK N   1      35.503  15.155  11.701  0.00  0.00     0.048 C 
BRANCH   9  10
HETATM   10  C   UNK N   1      36.337  13.889  11.588  0.00  0.00     0.111 C 
BRANCH  10  11
HETATM   11  S   UNK N   1      35.537  12.532  12.491  0.00  0.00     0.010 S 
HETATM   12  O   UNK N   1      34.635  13.506  13.263  0.00  0.00    -0.258 OA
HETATM   13  C   UNK N   1      36.792  12.556  13.800  0.00  0.00     0.127 C 
ENDBRANCH  10  11
ENDBRANCH   9  10
ENDBRANCH   1   9
TORSDOF 6
ENDMDL
