REMARK  8 active torsions:
REMARK  status: ('A' for Active; 'I' for Inactive)
REMARK    1  A    between atoms: C_3  and  C_2 
REMARK    2  A    between atoms: C_6  and  C_3 
REMARK    3  A    between atoms: C_5  and  C_4 
REMARK    4  A    between atoms: S_12  and  C_4 
REMARK    5  A    between atoms: C_7  and  C_5 
REMARK    6  A    between atoms: C_5  and  N_8 
REMARK    7  A    between atoms: S_12  and  C_6 
REMARK    8  A    between atoms: O_11  and  C_7 
ROOT
HETATM    1  C   UNK N   1       5.929  -0.339  -0.097  0.00  0.00     0.183 C 
ENDROOT
BRANCH   1   2
HETATM    2  C   UNK N   1       4.753  -0.591   0.848  0.00  0.00     0.117 C 
BRANCH   2   3
HETATM    3  S   UNK N   1       3.968  -2.222   0.594  0.00  0.00    -0.090 SA
BRANCH   3   4
HETATM    4  C   UNK N   1       2.290  -1.673   0.203  0.00  0.00     0.186 C 
HETATM    5  O   UNK N   1       1.492  -2.504  -0.205  0.00  0.00    -0.286 OA
BRANCH   4   6
HETATM    6  C   UNK N   1       1.851  -0.245   0.408  0.00  0.00     0.090 C 
BRANCH   6   7
HETATM    7  C   UNK N   1       0.368  -0.050   0.106  0.00  0.00     0.004 C 
HETATM    8  C   UNK N   1       0.009   1.419   0.163  0.00  0.00     0.005 C 
ENDBRANCH   6   7
ENDBRANCH   4   6
ENDBRANCH   3   4
ENDBRANCH   2   3
ENDBRANCH   1   2
BRANCH   1   9
HETATM    9  C   UNK N   1       7.101  -1.251   0.197  0.00  0.00     0.163 C 
HETATM   10  O   UNK N   1       8.184  -0.788   0.521  0.00  0.00    -0.648 OA
BRANCH   9  11
HETATM   11  O   UNK N   1       6.966  -2.586   0.076  0.00  0.00    -0.775 OA
HETATM   12  H   UNK N   1       6.115  -2.969  -0.009  0.00  0.00     0.167 HD
ENDBRANCH   9  11
ENDBRANCH   1   9
BRANCH   1  13
HETATM   13  N   UNK N   1       6.332   1.052   0.044  0.00  0.00    -0.417 N 
HETATM   14  H   UNK N   1       7.318   1.295   0.144  0.00  0.00     0.150 HD
HETATM   15  H   UNK N   1       5.626   1.788   0.044  0.00  0.00     0.150 HD
ENDBRANCH   1  13
TORSDOF 8
