MODEL 1
REMARK VINA RESULT:      -6.5      0.000      0.000
REMARK  19 active torsions:
REMARK  status: ('A' for Active; 'I' for Inactive)
REMARK    1  A    between atoms: C_2  and  C_1 
REMARK    2  A    between atoms: C_3  and  C_1 
REMARK    3  A    between atoms: C_4  and  C_2 
REMARK    4  A    between atoms: N_19  and  C_3 
REMARK    5  A    between atoms: O_31  and  C_4 
REMARK    6  A    between atoms: C_7  and  C_5 
REMARK    7  A    between atoms: N_20  and  C_5 
REMARK    8  A    between atoms: C_8  and  C_6 
REMARK    9  A    between atoms: O_21  and  C_6 
REMARK   10  A    between atoms: C_10  and  C_7 
REMARK   11  A    between atoms: C_7  and  O_22 
REMARK   12  A    between atoms: C_10  and  C_8 
REMARK   13  A    between atoms: C_8  and  O_23 
REMARK   14  A    between atoms: C_10  and  O_24 
REMARK   15  A    between atoms: O_25  and  C_12 
REMARK   16  A    between atoms: O_26  and  C_13 
REMARK   17  A    between atoms: P_32  and  O_28 
REMARK   18  A    between atoms: P_32  and  O_29 
REMARK   19  A    between atoms: P_32  and  O_31 
ROOT
HETATM    1  C   UNK N   1      27.907  18.624   6.151  0.00  0.00     0.135 A 
HETATM    2  C   UNK N   1      28.708  17.628   6.622  0.00  0.00     0.146 A 
HETATM    3  C   UNK N   1      27.258  19.473   7.035  0.00  0.00     0.174 A 
HETATM    4  C   UNK N   1      28.257  18.261   8.830  0.00  0.00     0.224 A 
HETATM    5  C   UNK N   1      28.748  17.571   4.479  0.00  0.00     0.331 A 
HETATM    6  N   UNK N   1      28.897  17.429   7.949  0.00  0.00    -0.306 N 
ATOM      7  HN  UNK N   1      29.500  16.678   8.284  1.00  0.00     0.171 HD
HETATM    8  N   UNK N   1      27.447  19.271   8.371  0.00  0.00    -0.301 N 
ATOM      9  HN  UNK N   1      26.979  19.882   9.042  1.00  0.00     0.171 HD
HETATM   10  N   UNK N   1      27.919  18.608   4.807  0.00  0.00    -0.292 N 
HETATM   11  N   UNK N   1      29.255  16.952   5.585  0.00  0.00    -0.281 N 
HETATM   12  O   UNK N   1      29.019  17.249   3.336  0.00  0.00    -0.246 OA
ENDROOT
BRANCH  11  13
HETATM   13  C   UNK N   1      30.204  15.836   5.528  0.00  0.00     0.170 C 
BRANCH  13  14
HETATM   14  C   UNK N   1      31.681  16.230   5.533  0.00  0.00     0.168 C 
BRANCH  14  15
HETATM   15  C   UNK N   1      32.210  16.210   6.988  0.00  0.00     0.179 C 
BRANCH  15  16
HETATM   16  C   UNK N   1      32.403  17.610   7.608  0.00  0.00     0.173 C 
BRANCH  16  17
HETATM   17  C   UNK N   1      33.886  17.962   7.727  0.00  0.00     0.198 C 
BRANCH  17  18
HETATM   18  O   UNK N   1      34.494  17.993   6.473  0.00  0.00    -0.398 OA
HETATM   19  H   UNK N   1      34.066  17.588   5.703  0.00  0.00     0.209 HD
ENDBRANCH  17  18
ENDBRANCH  16  17
BRANCH  16  20
HETATM   20  O   UNK N   1      31.792  17.682   8.861  0.00  0.00    -0.391 OA
HETATM   21  H   UNK N   1      31.246  17.152   9.464  0.00  0.00     0.210 HD
ENDBRANCH  16  20
ENDBRANCH  15  16
BRANCH  15  22
HETATM   22  O   UNK N   1      31.354  15.469   7.810  0.00  0.00    -0.390 OA
HETATM   23  H   UNK N   1      30.526  15.523   8.311  0.00  0.00     0.210 HD
ENDBRANCH  15  22
ENDBRANCH  14  15
BRANCH  14  24
HETATM   24  O   UNK N   1      31.809  17.500   4.970  0.00  0.00    -0.391 OA
HETATM   25  H   UNK N   1      32.429  18.245   4.997  0.00  0.00     0.210 HD
ENDBRANCH  14  24
ENDBRANCH  13  14
ENDBRANCH  11  13
BRANCH  10  26
HETATM   26  C   UNK N   1      27.250  19.538   3.908  0.00  0.00     0.134 C 
BRANCH  26  27
HETATM   27  C   UNK N   1      25.881  19.032   3.505  0.00  0.00     0.022 C 
BRANCH  27  28
HETATM   28  C   UNK N   1      25.061  20.215   3.035  0.00  0.00     0.028 C 
BRANCH  28  29
HETATM   29  C   UNK N   1      23.590  19.983   3.354  0.00  0.00     0.180 C 
BRANCH  29  30
HETATM   30  O   UNK N   1      22.793  20.960   2.749  0.00  0.00    -0.297 OA
BRANCH  30  31
HETATM   31  P   UNK N   1      21.195  20.272   2.610  0.00  0.00     0.390 P 
HETATM   32  O   UNK N   1      20.323  20.786   3.788  0.00  0.00    -0.632 OA
BRANCH  31  33
HETATM   33  O   UNK N   1      21.245  18.543   2.739  0.00  0.00    -0.307 OA
HETATM   34  H   UNK N   1      20.516  17.915   2.613  0.00  0.00     0.222 HD
ENDBRANCH  31  33
BRANCH  31  35
HETATM   35  O   UNK N   1      20.430  20.763   1.132  0.00  0.00    -0.307 OA
HETATM   36  H   UNK N   1      19.523  21.039   0.923  0.00  0.00     0.222 HD
ENDBRANCH  31  35
ENDBRANCH  30  31
ENDBRANCH  29  30
ENDBRANCH  28  29
ENDBRANCH  27  28
ENDBRANCH  26  27
ENDBRANCH  10  26
BRANCH   3  37
HETATM   37  O   UNK N   1      26.470  20.471   6.601  0.00  0.00    -0.344 OA
HETATM   38  H   UNK N   1      26.314  20.589   5.685  0.00  0.00     0.219 HD
ENDBRANCH   3  37
BRANCH   4  39
HETATM   39  O   UNK N   1      28.429  18.093  10.151  0.00  0.00    -0.332 OA
HETATM   40  H   UNK N   1      27.838  18.495  10.757  0.00  0.00     0.221 HD
ENDBRANCH   4  39
TORSDOF 19
ENDMDL
MODEL 2
REMARK VINA RESULT:      -6.4      5.070      9.020
REMARK  19 active torsions:
REMARK  status: ('A' for Active; 'I' for Inactive)
REMARK    1  A    between atoms: C_2  and  C_1 
REMARK    2  A    between atoms: C_3  and  C_1 
REMARK    3  A    between atoms: C_4  and  C_2 
REMARK    4  A    between atoms: N_19  and  C_3 
REMARK    5  A    between atoms: O_31  and  C_4 
REMARK    6  A    between atoms: C_7  and  C_5 
REMARK    7  A    between atoms: N_20  and  C_5 
REMARK    8  A    between atoms: C_8  and  C_6 
REMARK    9  A    between atoms: O_21  and  C_6 
REMARK   10  A    between atoms: C_10  and  C_7 
REMARK   11  A    between atoms: C_7  and  O_22 
REMARK   12  A    between atoms: C_10  and  C_8 
REMARK   13  A    between atoms: C_8  and  O_23 
REMARK   14  A    between atoms: C_10  and  O_24 
REMARK   15  A    between atoms: O_25  and  C_12 
REMARK   16  A    between atoms: O_26  and  C_13 
REMARK   17  A    between atoms: P_32  and  O_28 
REMARK   18  A    between atoms: P_32  and  O_29 
REMARK   19  A    between atoms: P_32  and  O_31 
ROOT
HETATM    1  C   UNK N   1      22.054  18.938   3.613  0.00  0.00     0.135 A 
HETATM    2  C   UNK N   1      21.253  17.855   3.825  0.00  0.00     0.146 A 
HETATM    3  C   UNK N   1      21.561  20.050   2.947  0.00  0.00     0.174 A 
HETATM    4  C   UNK N   1      19.473  18.917   2.736  0.00  0.00     0.224 A 
HETATM    5  C   UNK N   1      23.169  17.460   4.701  0.00  0.00     0.331 A 
HETATM    6  N   UNK N   1      19.967  17.824   3.398  0.00  0.00    -0.306 N 
ATOM      7  HN  UNK N   1      19.382  17.005   3.565  1.00  0.00     0.171 HD
HETATM    8  N   UNK N   1      20.267  20.016   2.517  0.00  0.00    -0.301 N 
ATOM      9  HN  UNK N   1      19.882  20.821   2.022  1.00  0.00     0.171 HD
HETATM   10  N   UNK N   1      23.262  18.711   4.157  0.00  0.00    -0.292 N 
HETATM   11  N   UNK N   1      21.933  16.910   4.514  0.00  0.00    -0.281 N 
HETATM   12  O   UNK N   1      24.075  16.906   5.299  0.00  0.00    -0.246 OA
ENDROOT
BRANCH  11  13
HETATM   13  C   UNK N   1      21.542  15.595   5.030  0.00  0.00     0.170 C 
BRANCH  13  14
HETATM   14  C   UNK N   1      20.604  15.616   6.236  0.00  0.00     0.168 C 
BRANCH  14  15
HETATM   15  C   UNK N   1      21.440  15.752   7.533  0.00  0.00     0.179 C 
BRANCH  15  16
HETATM   16  C   UNK N   1      20.608  15.683   8.831  0.00  0.00     0.173 C 
BRANCH  16  17
HETATM   17  C   UNK N   1      20.885  14.389   9.597  0.00  0.00     0.198 C 
BRANCH  17  18
HETATM   18  O   UNK N   1      20.325  13.293   8.943  0.00  0.00    -0.398 OA
HETATM   19  H   UNK N   1      20.216  13.291   7.979  0.00  0.00     0.209 HD
ENDBRANCH  17  18
ENDBRANCH  16  17
BRANCH  16  20
HETATM   20  O   UNK N   1      19.245  15.788   8.547  0.00  0.00    -0.391 OA
HETATM   21  H   UNK N   1      18.473  16.340   8.753  0.00  0.00     0.210 HD
ENDBRANCH  16  20
ENDBRANCH  15  16
BRANCH  15  22
HETATM   22  O   UNK N   1      22.431  14.764   7.581  0.00  0.00    -0.390 OA
HETATM   23  H   UNK N   1      22.563  13.804   7.612  0.00  0.00     0.210 HD
ENDBRANCH  15  22
ENDBRANCH  14  15
BRANCH  14  24
HETATM   24  O   UNK N   1      19.855  14.439   6.245  0.00  0.00    -0.391 OA
HETATM   25  H   UNK N   1      19.920  13.541   6.603  0.00  0.00     0.210 HD
ENDBRANCH  14  24
ENDBRANCH  13  14
ENDBRANCH  11  13
BRANCH  10  26
HETATM   26  C   UNK N   1      24.390  19.629   4.213  0.00  0.00     0.134 C 
BRANCH  26  27
HETATM   27  C   UNK N   1      25.510  19.187   3.294  0.00  0.00     0.022 C 
BRANCH  27  28
HETATM   28  C   UNK N   1      26.712  20.069   3.559  0.00  0.00     0.028 C 
BRANCH  28  29
HETATM   29  C   UNK N   1      27.676  19.359   4.502  0.00  0.00     0.180 C 
BRANCH  29  30
HETATM   30  O   UNK N   1      27.552  19.857   5.802  0.00  0.00    -0.297 OA
BRANCH  30  31
HETATM   31  P   UNK N   1      27.808  18.502   6.872  0.00  0.00     0.390 P 
HETATM   32  O   UNK N   1      29.248  17.960   6.661  0.00  0.00    -0.632 OA
BRANCH  31  33
HETATM   33  O   UNK N   1      26.722  17.200   6.503  0.00  0.00    -0.307 OA
HETATM   34  H   UNK N   1      26.608  16.366   6.985  0.00  0.00     0.222 HD
ENDBRANCH  31  33
BRANCH  31  35
HETATM   35  O   UNK N   1      27.662  18.982   8.534  0.00  0.00    -0.307 OA
HETATM   36  H   UNK N   1      27.206  19.721   8.965  0.00  0.00     0.222 HD
ENDBRANCH  31  35
ENDBRANCH  30  31
ENDBRANCH  29  30
ENDBRANCH  28  29
ENDBRANCH  27  28
ENDBRANCH  26  27
ENDBRANCH  10  26
BRANCH   3  37
HETATM   37  O   UNK N   1      22.323  21.136   2.733  0.00  0.00    -0.344 OA
HETATM   38  H   UNK N   1      22.083  21.964   3.099  0.00  0.00     0.219 HD
ENDBRANCH   3  37
BRANCH   4  39
HETATM   39  O   UNK N   1      18.201  18.918   2.307  0.00  0.00    -0.332 OA
HETATM   40  H   UNK N   1      17.909  18.267   1.699  0.00  0.00     0.221 HD
ENDBRANCH   4  39
TORSDOF 19
ENDMDL
MODEL 3
REMARK VINA RESULT:      -6.2     11.247     14.451
REMARK  19 active torsions:
REMARK  status: ('A' for Active; 'I' for Inactive)
REMARK    1  A    between atoms: C_2  and  C_1 
REMARK    2  A    between atoms: C_3  and  C_1 
REMARK    3  A    between atoms: C_4  and  C_2 
REMARK    4  A    between atoms: N_19  and  C_3 
REMARK    5  A    between atoms: O_31  and  C_4 
REMARK    6  A    between atoms: C_7  and  C_5 
REMARK    7  A    between atoms: N_20  and  C_5 
REMARK    8  A    between atoms: C_8  and  C_6 
REMARK    9  A    between atoms: O_21  and  C_6 
REMARK   10  A    between atoms: C_10  and  C_7 
REMARK   11  A    between atoms: C_7  and  O_22 
REMARK   12  A    between atoms: C_10  and  C_8 
REMARK   13  A    between atoms: C_8  and  O_23 
REMARK   14  A    between atoms: C_10  and  O_24 
REMARK   15  A    between atoms: O_25  and  C_12 
REMARK   16  A    between atoms: O_26  and  C_13 
REMARK   17  A    between atoms: P_32  and  O_28 
REMARK   18  A    between atoms: P_32  and  O_29 
REMARK   19  A    between atoms: P_32  and  O_31 
ROOT
HETATM    1  C   UNK N   1      27.362  22.299  -7.108  0.00  0.00     0.135 A 
HETATM    2  C   UNK N   1      26.415  23.083  -6.521  0.00  0.00     0.146 A 
HETATM    3  C   UNK N   1      27.002  21.386  -8.088  0.00  0.00     0.174 A 
HETATM    4  C   UNK N   1      24.741  22.100  -7.829  0.00  0.00     0.224 A 
HETATM    5  C   UNK N   1      28.324  23.590  -5.687  0.00  0.00     0.331 A 
HETATM    6  N   UNK N   1      25.107  23.002  -6.864  0.00  0.00    -0.306 N 
ATOM      7  HN  UNK N   1      24.411  23.596  -6.414  1.00  0.00     0.171 HD
HETATM    8  N   UNK N   1      25.684  21.303  -8.431  0.00  0.00    -0.301 N 
ATOM      9  HN  UNK N   1      25.393  20.638  -9.148  1.00  0.00     0.171 HD
HETATM   10  N   UNK N   1      28.569  22.602  -6.600  0.00  0.00    -0.292 N 
HETATM   11  N   UNK N   1      26.999  23.911  -5.623  0.00  0.00    -0.281 N 
HETATM   12  O   UNK N   1      29.187  24.134  -5.021  0.00  0.00    -0.246 OA
ENDROOT
BRANCH  11  13
HETATM   13  C   UNK N   1      26.458  24.966  -4.761  0.00  0.00     0.170 C 
BRANCH  13  14
HETATM   14  C   UNK N   1      26.209  26.309  -5.445  0.00  0.00     0.168 C 
BRANCH  14  15
HETATM   15  C   UNK N   1      27.001  27.415  -4.703  0.00  0.00     0.179 C 
BRANCH  15  16
HETATM   16  C   UNK N   1      26.117  28.393  -3.901  0.00  0.00     0.173 C 
BRANCH  16  17
HETATM   17  C   UNK N   1      26.945  29.542  -3.326  0.00  0.00     0.198 C 
BRANCH  17  18
HETATM   18  O   UNK N   1      27.426  29.223  -2.057  0.00  0.00    -0.398 OA
HETATM   19  H   UNK N   1      28.279  29.566  -1.747  0.00  0.00     0.209 HD
ENDBRANCH  17  18
ENDBRANCH  16  17
BRANCH  16  20
HETATM   20  O   UNK N   1      25.449  27.723  -2.873  0.00  0.00    -0.391 OA
HETATM   21  H   UNK N   1      24.562  27.616  -2.497  0.00  0.00     0.210 HD
ENDBRANCH  16  20
ENDBRANCH  15  16
BRANCH  15  22
HETATM   22  O   UNK N   1      27.942  26.846  -3.837  0.00  0.00    -0.390 OA
HETATM   23  H   UNK N   1      28.117  26.062  -3.295  0.00  0.00     0.210 HD
ENDBRANCH  15  22
ENDBRANCH  14  15
BRANCH  14  24
HETATM   24  O   UNK N   1      24.840  26.576  -5.427  0.00  0.00    -0.391 OA
HETATM   25  H   UNK N   1      24.128  26.671  -4.776  0.00  0.00     0.210 HD
ENDBRANCH  14  24
ENDBRANCH  13  14
ENDBRANCH  11  13
BRANCH  10  26
HETATM   26  C   UNK N   1      29.856  22.046  -6.993  0.00  0.00     0.134 C 
BRANCH  26  27
HETATM   27  C   UNK N   1      30.069  20.669  -6.399  0.00  0.00     0.022 C 
BRANCH  27  28
HETATM   28  C   UNK N   1      31.470  20.615  -5.825  0.00  0.00     0.028 C 
BRANCH  28  29
HETATM   29  C   UNK N   1      31.411  20.230  -4.352  0.00  0.00     0.180 C 
BRANCH  29  30
HETATM   30  O   UNK N   1      30.458  21.000  -3.678  0.00  0.00    -0.297 OA
BRANCH  30  31
HETATM   31  P   UNK N   1      31.342  22.248  -2.837  0.00  0.00     0.390 P 
HETATM   32  O   UNK N   1      32.595  21.615  -2.173  0.00  0.00    -0.632 OA
BRANCH  31  33
HETATM   33  O   UNK N   1      30.390  22.937  -1.561  0.00  0.00    -0.307 OA
HETATM   34  H   UNK N   1      29.435  22.849  -1.416  0.00  0.00     0.222 HD
ENDBRANCH  31  33
BRANCH  31  35
HETATM   35  O   UNK N   1      31.889  23.475  -3.936  0.00  0.00    -0.307 OA
HETATM   36  H   UNK N   1      32.210  24.380  -3.801  0.00  0.00     0.222 HD
ENDBRANCH  31  35
ENDBRANCH  30  31
ENDBRANCH  29  30
ENDBRANCH  28  29
ENDBRANCH  27  28
ENDBRANCH  26  27
ENDBRANCH  10  26
BRANCH   3  37
HETATM   37  O   UNK N   1      27.914  20.606  -8.692  0.00  0.00    -0.344 OA
HETATM   38  H   UNK N   1      28.778  20.525  -8.339  0.00  0.00     0.219 HD
ENDBRANCH   3  37
BRANCH   4  39
HETATM   39  O   UNK N   1      23.453  22.000  -8.195  0.00  0.00    -0.332 OA
HETATM   40  H   UNK N   1      23.181  22.288  -9.044  0.00  0.00     0.221 HD
ENDBRANCH   4  39
TORSDOF 19
ENDMDL
MODEL 4
REMARK VINA RESULT:      -6.2      4.046      8.875
REMARK  19 active torsions:
REMARK  status: ('A' for Active; 'I' for Inactive)
REMARK    1  A    between atoms: C_2  and  C_1 
REMARK    2  A    between atoms: C_3  and  C_1 
REMARK    3  A    between atoms: C_4  and  C_2 
REMARK    4  A    between atoms: N_19  and  C_3 
REMARK    5  A    between atoms: O_31  and  C_4 
REMARK    6  A    between atoms: C_7  and  C_5 
REMARK    7  A    between atoms: N_20  and  C_5 
REMARK    8  A    between atoms: C_8  and  C_6 
REMARK    9  A    between atoms: O_21  and  C_6 
REMARK   10  A    between atoms: C_10  and  C_7 
REMARK   11  A    between atoms: C_7  and  O_22 
REMARK   12  A    between atoms: C_10  and  C_8 
REMARK   13  A    between atoms: C_8  and  O_23 
REMARK   14  A    between atoms: C_10  and  O_24 
REMARK   15  A    between atoms: O_25  and  C_12 
REMARK   16  A    between atoms: O_26  and  C_13 
REMARK   17  A    between atoms: P_32  and  O_28 
REMARK   18  A    between atoms: P_32  and  O_29 
REMARK   19  A    between atoms: P_32  and  O_31 
ROOT
HETATM    1  C   UNK N   1      30.520  17.389   7.142  0.00  0.00     0.135 A 
HETATM    2  C   UNK N   1      29.280  17.629   6.631  0.00  0.00     0.146 A 
HETATM    3  C   UNK N   1      30.723  17.398   8.514  0.00  0.00     0.174 A 
HETATM    4  C   UNK N   1      28.406  17.897   8.787  0.00  0.00     0.224 A 
HETATM    5  C   UNK N   1      30.619  17.248   5.001  0.00  0.00     0.331 A 
HETATM    6  N   UNK N   1      28.215  17.883   7.430  0.00  0.00    -0.306 N 
ATOM      7  HN  UNK N   1      27.293  18.060   7.031  1.00  0.00     0.171 HD
HETATM    8  N   UNK N   1      29.650  17.656   9.317  0.00  0.00    -0.301 N 
ATOM      9  HN  UNK N   1      29.774  17.670  10.330  1.00  0.00     0.171 HD
HETATM   10  N   UNK N   1      31.377  17.146   6.135  0.00  0.00    -0.292 N 
HETATM   11  N   UNK N   1      29.315  17.540   5.281  0.00  0.00    -0.281 N 
HETATM   12  O   UNK N   1      31.050  17.081   3.874  0.00  0.00    -0.246 OA
ENDROOT
BRANCH  11  13
HETATM   13  C   UNK N   1      28.273  17.666   4.259  0.00  0.00     0.170 C 
BRANCH  13  14
HETATM   14  C   UNK N   1      27.316  16.479   4.149  0.00  0.00     0.168 C 
BRANCH  14  15
HETATM   15  C   UNK N   1      25.963  16.851   4.805  0.00  0.00     0.179 C 
BRANCH  15  16
HETATM   16  C   UNK N   1      25.437  15.799   5.805  0.00  0.00     0.173 C 
BRANCH  16  17
HETATM   17  C   UNK N   1      23.918  15.888   5.952  0.00  0.00     0.198 C 
BRANCH  17  18
HETATM   18  O   UNK N   1      23.475  17.197   5.765  0.00  0.00    -0.398 OA
HETATM   19  H   UNK N   1      22.932  17.433   4.998  0.00  0.00     0.209 HD
ENDBRANCH  17  18
ENDBRANCH  16  17
BRANCH  16  20
HETATM   20  O   UNK N   1      26.049  15.954   7.050  0.00  0.00    -0.391 OA
HETATM   21  H   UNK N   1      26.685  16.524   7.511  0.00  0.00     0.210 HD
ENDBRANCH  16  20
ENDBRANCH  15  16
BRANCH  15  22
HETATM   22  O   UNK N   1      26.059  18.084   5.460  0.00  0.00    -0.390 OA
HETATM   23  H   UNK N   1      25.571  18.692   6.036  0.00  0.00     0.210 HD
ENDBRANCH  15  22
ENDBRANCH  14  15
BRANCH  14  24
HETATM   24  O   UNK N   1      27.892  15.376   4.779  0.00  0.00    -0.391 OA
HETATM   25  H   UNK N   1      28.418  14.597   4.541  0.00  0.00     0.210 HD
ENDBRANCH  14  24
ENDBRANCH  13  14
ENDBRANCH  11  13
BRANCH  10  26
HETATM   26  C   UNK N   1      32.783  16.784   6.242  0.00  0.00     0.134 C 
BRANCH  26  27
HETATM   27  C   UNK N   1      32.993  15.304   5.999  0.00  0.00     0.022 C 
BRANCH  27  28
HETATM   28  C   UNK N   1      33.587  14.700   7.255  0.00  0.00     0.028 C 
BRANCH  28  29
HETATM   29  C   UNK N   1      34.720  15.581   7.766  0.00  0.00     0.180 C 
BRANCH  29  30
HETATM   30  O   UNK N   1      35.417  14.942   8.796  0.00  0.00    -0.297 OA
BRANCH  30  31
HETATM   31  P   UNK N   1      35.257  15.962  10.203  0.00  0.00     0.390 P 
HETATM   32  O   UNK N   1      34.784  17.371   9.751  0.00  0.00    -0.632 OA
BRANCH  31  33
HETATM   33  O   UNK N   1      36.784  16.176  10.998  0.00  0.00    -0.307 OA
HETATM   34  H   UNK N   1      37.007  15.980  11.921  0.00  0.00     0.222 HD
ENDBRANCH  31  33
BRANCH  31  35
HETATM   35  O   UNK N   1      34.067  15.332  11.299  0.00  0.00    -0.307 OA
HETATM   36  H   UNK N   1      34.084  15.153  12.253  0.00  0.00     0.222 HD
ENDBRANCH  31  35
ENDBRANCH  30  31
ENDBRANCH  29  30
ENDBRANCH  28  29
ENDBRANCH  27  28
ENDBRANCH  26  27
ENDBRANCH  10  26
BRANCH   3  37
HETATM   37  O   UNK N   1      31.932  17.155   9.047  0.00  0.00    -0.344 OA
HETATM   38  H   UNK N   1      32.629  17.772   8.944  0.00  0.00     0.219 HD
ENDBRANCH   3  37
BRANCH   4  39
HETATM   39  O   UNK N   1      27.370  18.139   9.604  0.00  0.00    -0.332 OA
HETATM   40  H   UNK N   1      26.803  17.441   9.867  0.00  0.00     0.221 HD
ENDBRANCH   4  39
TORSDOF 19
ENDMDL
MODEL 5
REMARK VINA RESULT:      -6.1      4.683      7.911
REMARK  19 active torsions:
REMARK  status: ('A' for Active; 'I' for Inactive)
REMARK    1  A    between atoms: C_2  and  C_1 
REMARK    2  A    between atoms: C_3  and  C_1 
REMARK    3  A    between atoms: C_4  and  C_2 
REMARK    4  A    between atoms: N_19  and  C_3 
REMARK    5  A    between atoms: O_31  and  C_4 
REMARK    6  A    between atoms: C_7  and  C_5 
REMARK    7  A    between atoms: N_20  and  C_5 
REMARK    8  A    between atoms: C_8  and  C_6 
REMARK    9  A    between atoms: O_21  and  C_6 
REMARK   10  A    between atoms: C_10  and  C_7 
REMARK   11  A    between atoms: C_7  and  O_22 
REMARK   12  A    between atoms: C_10  and  C_8 
REMARK   13  A    between atoms: C_8  and  O_23 
REMARK   14  A    between atoms: C_10  and  O_24 
REMARK   15  A    between atoms: O_25  and  C_12 
REMARK   16  A    between atoms: O_26  and  C_13 
REMARK   17  A    between atoms: P_32  and  O_28 
REMARK   18  A    between atoms: P_32  and  O_29 
REMARK   19  A    between atoms: P_32  and  O_31 
ROOT
HETATM    1  C   UNK N   1      21.180  18.522   3.114  0.00  0.00     0.135 A 
HETATM    2  C   UNK N   1      22.095  19.530   3.168  0.00  0.00     0.146 A 
HETATM    3  C   UNK N   1      20.046  18.651   2.326  0.00  0.00     0.174 A 
HETATM    4  C   UNK N   1      20.816  20.816   1.687  0.00  0.00     0.224 A 
HETATM    5  C   UNK N   1      22.790  17.921   4.402  0.00  0.00     0.331 A 
HETATM    6  N   UNK N   1      21.935  20.679   2.466  0.00  0.00    -0.306 N 
ATOM      7  HN  UNK N   1      22.630  21.424   2.519  1.00  0.00     0.171 HD
HETATM    8  N   UNK N   1      19.885  19.808   1.622  0.00  0.00    -0.301 N 
ATOM      9  HN  UNK N   1      19.058  19.928   1.036  1.00  0.00     0.171 HD
HETATM   10  N   UNK N   1      21.598  17.500   3.881  0.00  0.00    -0.292 N 
HETATM   11  N   UNK N   1      23.124  19.173   3.970  0.00  0.00    -0.281 N 
HETATM   12  O   UNK N   1      23.484  17.252   5.148  0.00  0.00    -0.246 OA
ENDROOT
BRANCH  11  13
HETATM   13  C   UNK N   1      24.370  19.853   4.337  0.00  0.00     0.170 C 
BRANCH  13  14
HETATM   14  C   UNK N   1      25.448  19.877   3.254  0.00  0.00     0.168 C 
BRANCH  14  15
HETATM   15  C   UNK N   1      26.812  20.226   3.899  0.00  0.00     0.179 C 
BRANCH  15  16
HETATM   16  C   UNK N   1      26.825  20.131   5.439  0.00  0.00     0.173 C 
BRANCH  16  17
HETATM   17  C   UNK N   1      27.155  21.482   6.073  0.00  0.00     0.198 C 
BRANCH  17  18
HETATM   18  O   UNK N   1      26.189  21.843   7.011  0.00  0.00    -0.398 OA
HETATM   19  H   UNK N   1      25.248  21.858   6.775  0.00  0.00     0.209 HD
ENDBRANCH  17  18
ENDBRANCH  16  17
BRANCH  16  20
HETATM   20  O   UNK N   1      27.740  19.166   5.865  0.00  0.00    -0.391 OA
HETATM   21  H   UNK N   1      28.245  18.408   5.531  0.00  0.00     0.210 HD
ENDBRANCH  16  20
ENDBRANCH  15  16
BRANCH  15  22
HETATM   22  O   UNK N   1      27.821  19.400   3.389  0.00  0.00    -0.390 OA
HETATM   23  H   UNK N   1      28.539  18.805   3.655  0.00  0.00     0.210 HD
ENDBRANCH  15  22
ENDBRANCH  14  15
BRANCH  14  24
HETATM   24  O   UNK N   1      25.095  20.819   2.288  0.00  0.00    -0.391 OA
HETATM   25  H   UNK N   1      25.534  21.442   1.688  0.00  0.00     0.210 HD
ENDBRANCH  14  24
ENDBRANCH  13  14
ENDBRANCH  11  13
BRANCH  10  26
HETATM   26  C   UNK N   1      20.952  16.208   4.056  0.00  0.00     0.134 C 
BRANCH  26  27
HETATM   27  C   UNK N   1      20.038  16.203   5.264  0.00  0.00     0.022 C 
BRANCH  27  28
HETATM   28  C   UNK N   1      20.648  15.297   6.312  0.00  0.00     0.028 C 
BRANCH  28  29
HETATM   29  C   UNK N   1      20.753  16.038   7.639  0.00  0.00     0.180 C 
BRANCH  29  30
HETATM   30  O   UNK N   1      19.947  17.181   7.632  0.00  0.00    -0.297 OA
BRANCH  30  31
HETATM   31  P   UNK N   1      18.611  16.845   8.702  0.00  0.00     0.390 P 
HETATM   32  O   UNK N   1      17.326  16.641   7.853  0.00  0.00    -0.632 OA
BRANCH  31  33
HETATM   33  O   UNK N   1      18.306  18.185   9.762  0.00  0.00    -0.307 OA
HETATM   34  H   UNK N   1      18.928  18.873  10.045  0.00  0.00     0.222 HD
ENDBRANCH  31  33
BRANCH  31  35
HETATM   35  O   UNK N   1      18.884  15.387   9.605  0.00  0.00    -0.307 OA
HETATM   36  H   UNK N   1      19.431  15.190  10.381  0.00  0.00     0.222 HD
ENDBRANCH  31  35
ENDBRANCH  30  31
ENDBRANCH  29  30
ENDBRANCH  28  29
ENDBRANCH  27  28
ENDBRANCH  26  27
ENDBRANCH  10  26
BRANCH   3  37
HETATM   37  O   UNK N   1      19.132  17.670   2.245  0.00  0.00    -0.344 OA
HETATM   38  H   UNK N   1      18.500  17.666   1.554  0.00  0.00     0.219 HD
ENDBRANCH   3  37
BRANCH   4  39
HETATM   39  O   UNK N   1      20.632  21.940   0.976  0.00  0.00    -0.332 OA
HETATM   40  H   UNK N   1      20.305  21.894   0.100  0.00  0.00     0.221 HD
ENDBRANCH   4  39
TORSDOF 19
ENDMDL
MODEL 6
REMARK VINA RESULT:      -6.1      6.087      8.990
REMARK  19 active torsions:
REMARK  status: ('A' for Active; 'I' for Inactive)
REMARK    1  A    between atoms: C_2  and  C_1 
REMARK    2  A    between atoms: C_3  and  C_1 
REMARK    3  A    between atoms: C_4  and  C_2 
REMARK    4  A    between atoms: N_19  and  C_3 
REMARK    5  A    between atoms: O_31  and  C_4 
REMARK    6  A    between atoms: C_7  and  C_5 
REMARK    7  A    between atoms: N_20  and  C_5 
REMARK    8  A    between atoms: C_8  and  C_6 
REMARK    9  A    between atoms: O_21  and  C_6 
REMARK   10  A    between atoms: C_10  and  C_7 
REMARK   11  A    between atoms: C_7  and  O_22 
REMARK   12  A    between atoms: C_10  and  C_8 
REMARK   13  A    between atoms: C_8  and  O_23 
REMARK   14  A    between atoms: C_10  and  O_24 
REMARK   15  A    between atoms: O_25  and  C_12 
REMARK   16  A    between atoms: O_26  and  C_13 
REMARK   17  A    between atoms: P_32  and  O_28 
REMARK   18  A    between atoms: P_32  and  O_29 
REMARK   19  A    between atoms: P_32  and  O_31 
ROOT
HETATM    1  C   UNK N   1      34.699  15.027   8.355  0.00  0.00     0.135 A 
HETATM    2  C   UNK N   1      35.200  14.378   9.443  0.00  0.00     0.146 A 
HETATM    3  C   UNK N   1      34.179  14.305   7.291  0.00  0.00     0.174 A 
HETATM    4  C   UNK N   1      34.702  12.304   8.478  0.00  0.00     0.224 A 
HETATM    5  C   UNK N   1      35.364  16.489   9.781  0.00  0.00     0.331 A 
HETATM    6  N   UNK N   1      35.211  13.025   9.526  0.00  0.00    -0.306 N 
ATOM      7  HN  UNK N   1      35.591  12.556  10.348  1.00  0.00     0.171 HD
HETATM    8  N   UNK N   1      34.192  12.944   7.375  0.00  0.00    -0.301 N 
ATOM      9  HN  UNK N   1      33.817  12.390   6.604  1.00  0.00     0.171 HD
HETATM   10  N   UNK N   1      34.790  16.354   8.547  0.00  0.00    -0.292 N 
HETATM   11  N   UNK N   1      35.622  15.280  10.360  0.00  0.00    -0.281 N 
HETATM   12  O   UNK N   1      35.600  17.560  10.311  0.00  0.00    -0.246 OA
ENDROOT
BRANCH  11  13
HETATM   13  C   UNK N   1      36.195  15.126  11.700  0.00  0.00     0.170 C 
BRANCH  13  14
HETATM   14  C   UNK N   1      35.389  14.254  12.663  0.00  0.00     0.168 C 
BRANCH  14  15
HETATM   15  C   UNK N   1      36.195  12.972  12.986  0.00  0.00     0.179 C 
BRANCH  15  16
HETATM   16  C   UNK N   1      35.377  11.877  13.704  0.00  0.00     0.173 C 
BRANCH  16  17
HETATM   17  C   UNK N   1      34.983  10.760  12.737  0.00  0.00     0.198 C 
BRANCH  17  18
HETATM   18  O   UNK N   1      34.128  11.238  11.745  0.00  0.00    -0.398 OA
HETATM   19  H   UNK N   1      34.405  11.254  10.816  0.00  0.00     0.209 HD
ENDBRANCH  17  18
ENDBRANCH  16  17
BRANCH  16  20
HETATM   20  O   UNK N   1      34.236  12.423  14.295  0.00  0.00    -0.391 OA
HETATM   21  H   UNK N   1      33.495  13.016  14.095  0.00  0.00     0.210 HD
ENDBRANCH  16  20
ENDBRANCH  15  16
BRANCH  15  22
HETATM   22  O   UNK N   1      36.743  12.430  11.818  0.00  0.00    -0.390 OA
HETATM   23  H   UNK N   1      37.303  12.645  11.057  0.00  0.00     0.210 HD
ENDBRANCH  15  22
ENDBRANCH  14  15
BRANCH  14  24
HETATM   24  O   UNK N   1      34.166  13.940  12.069  0.00  0.00    -0.391 OA
HETATM   25  H   UNK N   1      33.267  14.301  12.026  0.00  0.00     0.210 HD
ENDBRANCH  14  24
ENDBRANCH  13  14
ENDBRANCH  11  13
BRANCH  10  26
HETATM   26  C   UNK N   1      34.315  17.408   7.661  0.00  0.00     0.134 C 
BRANCH  26  27
HETATM   27  C   UNK N   1      33.051  18.050   8.193  0.00  0.00     0.022 C 
BRANCH  27  28
HETATM   28  C   UNK N   1      31.890  17.579   7.343  0.00  0.00     0.028 C 
BRANCH  28  29
HETATM   29  C   UNK N   1      30.994  16.656   8.159  0.00  0.00     0.180 C 
BRANCH  29  30
HETATM   30  O   UNK N   1      29.648  16.998   7.991  0.00  0.00    -0.297 OA
BRANCH  30  31
HETATM   31  P   UNK N   1      29.123  17.681   9.508  0.00  0.00     0.390 P 
HETATM   32  O   UNK N   1      29.942  18.971   9.788  0.00  0.00    -0.632 OA
BRANCH  31  33
HETATM   33  O   UNK N   1      29.431  16.595  10.824  0.00  0.00    -0.307 OA
HETATM   34  H   UNK N   1      28.789  16.066  11.322  0.00  0.00     0.222 HD
ENDBRANCH  31  33
BRANCH  31  35
HETATM   35  O   UNK N   1      27.445  18.124   9.446  0.00  0.00    -0.307 OA
HETATM   36  H   UNK N   1      26.737  18.100  10.108  0.00  0.00     0.222 HD
ENDBRANCH  31  35
ENDBRANCH  30  31
ENDBRANCH  29  30
ENDBRANCH  28  29
ENDBRANCH  27  28
ENDBRANCH  26  27
ENDBRANCH  10  26
BRANCH   3  37
HETATM   37  O   UNK N   1      33.668  14.917   6.209  0.00  0.00    -0.344 OA
HETATM   38  H   UNK N   1      33.128  15.677   6.304  0.00  0.00     0.219 HD
ENDBRANCH   3  37
BRANCH   4  39
HETATM   39  O   UNK N   1      34.694  10.963   8.534  0.00  0.00    -0.332 OA
HETATM   40  H   UNK N   1      34.311  10.465   7.839  0.00  0.00     0.221 HD
ENDBRANCH   4  39
TORSDOF 19
ENDMDL
MODEL 7
REMARK VINA RESULT:      -6.0      3.798      9.177
REMARK  19 active torsions:
REMARK  status: ('A' for Active; 'I' for Inactive)
REMARK    1  A    between atoms: C_2  and  C_1 
REMARK    2  A    between atoms: C_3  and  C_1 
REMARK    3  A    between atoms: C_4  and  C_2 
REMARK    4  A    between atoms: N_19  and  C_3 
REMARK    5  A    between atoms: O_31  and  C_4 
REMARK    6  A    between atoms: C_7  and  C_5 
REMARK    7  A    between atoms: N_20  and  C_5 
REMARK    8  A    between atoms: C_8  and  C_6 
REMARK    9  A    between atoms: O_21  and  C_6 
REMARK   10  A    between atoms: C_10  and  C_7 
REMARK   11  A    between atoms: C_7  and  O_22 
REMARK   12  A    between atoms: C_10  and  C_8 
REMARK   13  A    between atoms: C_8  and  O_23 
REMARK   14  A    between atoms: C_10  and  O_24 
REMARK   15  A    between atoms: O_25  and  C_12 
REMARK   16  A    between atoms: O_26  and  C_13 
REMARK   17  A    between atoms: P_32  and  O_28 
REMARK   18  A    between atoms: P_32  and  O_29 
REMARK   19  A    between atoms: P_32  and  O_31 
ROOT
HETATM    1  C   UNK N   1      30.776  17.387   7.273  0.00  0.00     0.135 A 
HETATM    2  C   UNK N   1      29.519  17.568   6.778  0.00  0.00     0.146 A 
HETATM    3  C   UNK N   1      30.985  17.340   8.643  0.00  0.00     0.174 A 
HETATM    4  C   UNK N   1      28.642  17.665   8.946  0.00  0.00     0.224 A 
HETATM    5  C   UNK N   1      30.873  17.363   5.128  0.00  0.00     0.331 A 
HETATM    6  N   UNK N   1      28.444  17.708   7.591  0.00  0.00    -0.306 N 
ATOM      7  HN  UNK N   1      27.510  17.843   7.203  1.00  0.00     0.171 HD
HETATM    8  N   UNK N   1      29.902  17.483   9.461  0.00  0.00    -0.301 N 
ATOM      9  HN  UNK N   1      30.030  17.453  10.473  1.00  0.00     0.171 HD
HETATM   10  N   UNK N   1      31.642  17.254   6.253  0.00  0.00    -0.292 N 
HETATM   11  N   UNK N   1      29.553  17.551   5.425  0.00  0.00    -0.281 N 
HETATM   12  O   UNK N   1      31.308  17.282   3.993  0.00  0.00    -0.246 OA
ENDROOT
BRANCH  11  13
HETATM   13  C   UNK N   1      28.499  17.657   4.412  0.00  0.00     0.170 C 
BRANCH  13  14
HETATM   14  C   UNK N   1      27.623  18.907   4.505  0.00  0.00     0.168 C 
BRANCH  14  15
HETATM   15  C   UNK N   1      26.138  18.503   4.330  0.00  0.00     0.179 C 
BRANCH  15  16
HETATM   16  C   UNK N   1      25.151  19.688   4.393  0.00  0.00     0.173 C 
BRANCH  16  17
HETATM   17  C   UNK N   1      24.677  20.086   2.995  0.00  0.00     0.198 C 
BRANCH  17  18
HETATM   18  O   UNK N   1      23.658  21.036   3.066  0.00  0.00    -0.398 OA
HETATM   19  H   UNK N   1      23.846  21.946   3.343  0.00  0.00     0.209 HD
ENDBRANCH  17  18
ENDBRANCH  16  17
BRANCH  16  20
HETATM   20  O   UNK N   1      25.738  20.784   5.029  0.00  0.00    -0.391 OA
HETATM   21  H   UNK N   1      25.587  21.728   5.195  0.00  0.00     0.210 HD
ENDBRANCH  16  20
ENDBRANCH  15  16
BRANCH  15  22
HETATM   22  O   UNK N   1      25.954  17.829   3.118  0.00  0.00    -0.390 OA
HETATM   23  H   UNK N   1      25.455  17.857   2.287  0.00  0.00     0.210 HD
ENDBRANCH  15  22
ENDBRANCH  14  15
BRANCH  14  24
HETATM   24  O   UNK N   1      28.017  19.808   3.516  0.00  0.00    -0.391 OA
HETATM   25  H   UNK N   1      28.256  19.794   2.577  0.00  0.00     0.210 HD
ENDBRANCH  14  24
ENDBRANCH  13  14
ENDBRANCH  11  13
BRANCH  10  26
HETATM   26  C   UNK N   1      33.069  16.983   6.339  0.00  0.00     0.134 C 
BRANCH  26  27
HETATM   27  C   UNK N   1      33.352  15.495   6.331  0.00  0.00     0.022 C 
BRANCH  27  28
HETATM   28  C   UNK N   1      34.722  15.273   6.937  0.00  0.00     0.028 C 
BRANCH  28  29
HETATM   29  C   UNK N   1      34.579  14.794   8.376  0.00  0.00     0.180 C 
BRANCH  29  30
HETATM   30  O   UNK N   1      35.769  14.988   9.083  0.00  0.00    -0.297 OA
BRANCH  30  31
HETATM   31  P   UNK N   1      35.337  15.824  10.552  0.00  0.00     0.390 P 
HETATM   32  O   UNK N   1      35.309  17.352  10.271  0.00  0.00    -0.632 OA
BRANCH  31  33
HETATM   33  O   UNK N   1      36.521  15.563  11.793  0.00  0.00    -0.307 OA
HETATM   34  H   UNK N   1      37.471  15.753  11.758  0.00  0.00     0.222 HD
ENDBRANCH  31  33
BRANCH  31  35
HETATM   35  O   UNK N   1      33.755  15.358  11.094  0.00  0.00    -0.307 OA
HETATM   36  H   UNK N   1      33.194  15.668  11.822  0.00  0.00     0.222 HD
ENDBRANCH  31  35
ENDBRANCH  30  31
ENDBRANCH  29  30
ENDBRANCH  28  29
ENDBRANCH  27  28
ENDBRANCH  26  27
ENDBRANCH  10  26
BRANCH   3  37
HETATM   37  O   UNK N   1      32.211  17.152   9.161  0.00  0.00    -0.344 OA
HETATM   38  H   UNK N   1      32.940  17.647   8.845  0.00  0.00     0.219 HD
ENDBRANCH   3  37
BRANCH   4  39
HETATM   39  O   UNK N   1      27.595  17.795   9.777  0.00  0.00    -0.332 OA
HETATM   40  H   UNK N   1      27.007  17.078   9.909  0.00  0.00     0.221 HD
ENDBRANCH   4  39
TORSDOF 19
ENDMDL
MODEL 8
REMARK VINA RESULT:      -5.9      4.664     10.114
REMARK  19 active torsions:
REMARK  status: ('A' for Active; 'I' for Inactive)
REMARK    1  A    between atoms: C_2  and  C_1 
REMARK    2  A    between atoms: C_3  and  C_1 
REMARK    3  A    between atoms: C_4  and  C_2 
REMARK    4  A    between atoms: N_19  and  C_3 
REMARK    5  A    between atoms: O_31  and  C_4 
REMARK    6  A    between atoms: C_7  and  C_5 
REMARK    7  A    between atoms: N_20  and  C_5 
REMARK    8  A    between atoms: C_8  and  C_6 
REMARK    9  A    between atoms: O_21  and  C_6 
REMARK   10  A    between atoms: C_10  and  C_7 
REMARK   11  A    between atoms: C_7  and  O_22 
REMARK   12  A    between atoms: C_10  and  C_8 
REMARK   13  A    between atoms: C_8  and  O_23 
REMARK   14  A    between atoms: C_10  and  O_24 
REMARK   15  A    between atoms: O_25  and  C_12 
REMARK   16  A    between atoms: O_26  and  C_13 
REMARK   17  A    between atoms: P_32  and  O_28 
REMARK   18  A    between atoms: P_32  and  O_29 
REMARK   19  A    between atoms: P_32  and  O_31 
ROOT
HETATM    1  C   UNK N   1      32.195  17.344   6.491  0.00  0.00     0.135 A 
HETATM    2  C   UNK N   1      30.949  17.214   5.956  0.00  0.00     0.146 A 
HETATM    3  C   UNK N   1      33.304  17.437   5.662  0.00  0.00     0.174 A 
HETATM    4  C   UNK N   1      31.836  17.257   3.790  0.00  0.00     0.224 A 
HETATM    5  C   UNK N   1      30.765  17.274   8.091  0.00  0.00     0.331 A 
HETATM    6  N   UNK N   1      30.747  17.169   4.617  0.00  0.00    -0.306 N 
ATOM      7  HN  UNK N   1      29.807  17.071   4.234  1.00  0.00     0.171 HD
HETATM    8  N   UNK N   1      33.099  17.389   4.314  0.00  0.00    -0.301 N 
ATOM      9  HN  UNK N   1      33.899  17.454   3.683  1.00  0.00     0.171 HD
HETATM   10  N   UNK N   1      32.103  17.386   7.831  0.00  0.00    -0.292 N 
HETATM   11  N   UNK N   1      30.028  17.173   6.947  0.00  0.00    -0.281 N 
HETATM   12  O   UNK N   1      30.284  17.283   9.211  0.00  0.00    -0.246 OA
ENDROOT
BRANCH  11  13
HETATM   13  C   UNK N   1      28.565  17.084   6.928  0.00  0.00     0.170 C 
BRANCH  13  14
HETATM   14  C   UNK N   1      27.844  18.262   6.273  0.00  0.00     0.168 C 
BRANCH  14  15
HETATM   15  C   UNK N   1      27.745  19.428   7.287  0.00  0.00     0.179 C 
BRANCH  15  16
HETATM   16  C   UNK N   1      26.583  20.406   7.013  0.00  0.00     0.173 C 
BRANCH  16  17
HETATM   17  C   UNK N   1      26.975  21.450   5.966  0.00  0.00     0.198 C 
BRANCH  17  18
HETATM   18  O   UNK N   1      26.814  20.946   4.676  0.00  0.00    -0.398 OA
HETATM   19  H   UNK N   1      26.409  21.485   3.979  0.00  0.00     0.209 HD
ENDBRANCH  17  18
ENDBRANCH  16  17
BRANCH  16  20
HETATM   20  O   UNK N   1      26.183  21.038   8.192  0.00  0.00    -0.391 OA
HETATM   21  H   UNK N   1      25.424  21.097   8.794  0.00  0.00     0.210 HD
ENDBRANCH  16  20
ENDBRANCH  15  16
BRANCH  15  22
HETATM   22  O   UNK N   1      27.618  18.934   8.590  0.00  0.00    -0.390 OA
HETATM   23  H   UNK N   1      26.963  18.674   9.257  0.00  0.00     0.210 HD
ENDBRANCH  15  22
ENDBRANCH  14  15
BRANCH  14  24
HETATM   24  O   UNK N   1      26.577  17.845   5.865  0.00  0.00    -0.391 OA
HETATM   25  H   UNK N   1      25.650  18.052   6.055  0.00  0.00     0.210 HD
ENDBRANCH  14  24
ENDBRANCH  13  14
ENDBRANCH  11  13
BRANCH  10  26
HETATM   26  C   UNK N   1      33.187  17.580   8.784  0.00  0.00     0.134 C 
BRANCH  26  27
HETATM   27  C   UNK N   1      33.759  16.256   9.248  0.00  0.00     0.022 C 
BRANCH  27  28
HETATM   28  C   UNK N   1      34.949  16.545  10.140  0.00  0.00     0.028 C 
BRANCH  28  29
HETATM   29  C   UNK N   1      35.094  15.443  11.181  0.00  0.00     0.180 C 
BRANCH  29  30
HETATM   30  O   UNK N   1      36.048  14.504  10.778  0.00  0.00    -0.297 OA
BRANCH  30  31
HETATM   31  P   UNK N   1      35.909  13.159  11.881  0.00  0.00     0.390 P 
HETATM   32  O   UNK N   1      35.884  11.839  11.063  0.00  0.00    -0.632 OA
BRANCH  31  33
HETATM   33  O   UNK N   1      34.420  13.228  12.769  0.00  0.00    -0.307 OA
HETATM   34  H   UNK N   1      34.238  12.877  13.654  0.00  0.00     0.222 HD
ENDBRANCH  31  33
BRANCH  31  35
HETATM   35  O   UNK N   1      37.271  13.089  12.956  0.00  0.00    -0.307 OA
HETATM   36  H   UNK N   1      37.361  12.817  13.883  0.00  0.00     0.222 HD
ENDBRANCH  31  35
ENDBRANCH  30  31
ENDBRANCH  29  30
ENDBRANCH  28  29
ENDBRANCH  27  28
ENDBRANCH  26  27
ENDBRANCH  10  26
BRANCH   3  37
HETATM   37  O   UNK N   1      34.544  17.577   6.160  0.00  0.00    -0.344 OA
HETATM   38  H   UNK N   1      34.777  18.342   6.647  0.00  0.00     0.219 HD
ENDBRANCH   3  37
BRANCH   4  39
HETATM   39  O   UNK N   1      31.668  17.221   2.459  0.00  0.00    -0.332 OA
HETATM   40  H   UNK N   1      32.397  17.049   1.896  0.00  0.00     0.221 HD
ENDBRANCH   4  39
TORSDOF 19
ENDMDL
MODEL 9
REMARK VINA RESULT:      -5.9      7.602      9.635
REMARK  19 active torsions:
REMARK  status: ('A' for Active; 'I' for Inactive)
REMARK    1  A    between atoms: C_2  and  C_1 
REMARK    2  A    between atoms: C_3  and  C_1 
REMARK    3  A    between atoms: C_4  and  C_2 
REMARK    4  A    between atoms: N_19  and  C_3 
REMARK    5  A    between atoms: O_31  and  C_4 
REMARK    6  A    between atoms: C_7  and  C_5 
REMARK    7  A    between atoms: N_20  and  C_5 
REMARK    8  A    between atoms: C_8  and  C_6 
REMARK    9  A    between atoms: O_21  and  C_6 
REMARK   10  A    between atoms: C_10  and  C_7 
REMARK   11  A    between atoms: C_7  and  O_22 
REMARK   12  A    between atoms: C_10  and  C_8 
REMARK   13  A    between atoms: C_8  and  O_23 
REMARK   14  A    between atoms: C_10  and  O_24 
REMARK   15  A    between atoms: O_25  and  C_12 
REMARK   16  A    between atoms: O_26  and  C_13 
REMARK   17  A    between atoms: P_32  and  O_28 
REMARK   18  A    between atoms: P_32  and  O_29 
REMARK   19  A    between atoms: P_32  and  O_31 
ROOT
HETATM    1  C   UNK N   1      20.878  17.377   2.385  0.00  0.00     0.135 A 
HETATM    2  C   UNK N   1      21.289  17.839   3.599  0.00  0.00     0.146 A 
HETATM    3  C   UNK N   1      20.345  18.252   1.450  0.00  0.00     0.174 A 
HETATM    4  C   UNK N   1      20.665  20.019   3.018  0.00  0.00     0.224 A 
HETATM    5  C   UNK N   1      21.669  15.731   3.515  0.00  0.00     0.331 A 
HETATM    6  N   UNK N   1      21.194  19.148   3.934  0.00  0.00    -0.306 N 
ATOM      7  HN  UNK N   1      21.506  19.477   4.848  1.00  0.00     0.171 HD
HETATM    8  N   UNK N   1      20.247  19.569   1.790  0.00  0.00    -0.301 N 
ATOM      9  HN  UNK N   1      19.857  20.232   1.119  1.00  0.00     0.171 HD
HETATM   10  N   UNK N   1      21.109  16.054   2.310  0.00  0.00    -0.292 N 
HETATM   11  N   UNK N   1      21.798  16.819   4.329  0.00  0.00    -0.281 N 
HETATM   12  O   UNK N   1      22.029  14.607   3.821  0.00  0.00    -0.246 OA
ENDROOT
BRANCH  11  13
HETATM   13  C   UNK N   1      22.405  16.770   5.662  0.00  0.00     0.170 C 
BRANCH  13  14
HETATM   14  C   UNK N   1      21.432  16.540   6.818  0.00  0.00     0.168 C 
BRANCH  14  15
HETATM   15  C   UNK N   1      21.844  15.259   7.585  0.00  0.00     0.179 C 
BRANCH  15  16
HETATM   16  C   UNK N   1      20.953  14.940   8.804  0.00  0.00     0.173 C 
BRANCH  16  17
HETATM   17  C   UNK N   1      21.599  13.880   9.698  0.00  0.00     0.198 C 
BRANCH  17  18
HETATM   18  O   UNK N   1      20.757  12.780   9.853  0.00  0.00    -0.398 OA
HETATM   19  H   UNK N   1      20.501  12.470  10.736  0.00  0.00     0.209 HD
ENDBRANCH  17  18
ENDBRANCH  16  17
BRANCH  16  20
HETATM   20  O   UNK N   1      19.689  14.512   8.392  0.00  0.00    -0.391 OA
HETATM   21  H   UNK N   1      18.796  14.361   8.738  0.00  0.00     0.210 HD
ENDBRANCH  16  20
ENDBRANCH  15  16
BRANCH  15  22
HETATM   22  O   UNK N   1      21.843  14.153   6.727  0.00  0.00    -0.390 OA
HETATM   23  H   UNK N   1      21.456  13.813   5.905  0.00  0.00     0.210 HD
ENDBRANCH  15  22
ENDBRANCH  14  15
BRANCH  14  24
HETATM   24  O   UNK N   1      20.141  16.421   6.303  0.00  0.00    -0.391 OA
HETATM   25  H   UNK N   1      19.503  16.964   5.816  0.00  0.00     0.210 HD
ENDBRANCH  14  24
ENDBRANCH  13  14
ENDBRANCH  11  13
BRANCH  10  26
HETATM   26  C   UNK N   1      20.877  15.182   1.168  0.00  0.00     0.134 C 
BRANCH  26  27
HETATM   27  C   UNK N   1      19.467  14.627   1.172  0.00  0.00     0.022 C 
BRANCH  27  28
HETATM   28  C   UNK N   1      19.521  13.202   0.663  0.00  0.00     0.028 C 
BRANCH  28  29
HETATM   29  C   UNK N   1      18.937  12.258   1.706  0.00  0.00     0.180 C 
BRANCH  29  30
HETATM   30  O   UNK N   1      18.415  12.977   2.785  0.00  0.00    -0.297 OA
BRANCH  30  31
HETATM   31  P   UNK N   1      19.312  12.467   4.193  0.00  0.00     0.390 P 
HETATM   32  O   UNK N   1      18.593  11.248   4.833  0.00  0.00    -0.632 OA
BRANCH  31  33
HETATM   33  O   UNK N   1      19.350  13.716   5.396  0.00  0.00    -0.307 OA
HETATM   34  H   UNK N   1      18.610  14.250   5.724  0.00  0.00     0.222 HD
ENDBRANCH  31  33
BRANCH  31  35
HETATM   35  O   UNK N   1      20.918  11.968   3.763  0.00  0.00    -0.307 OA
HETATM   36  H   UNK N   1      21.779  12.412   3.816  0.00  0.00     0.222 HD
ENDBRANCH  31  35
ENDBRANCH  30  31
ENDBRANCH  29  30
ENDBRANCH  28  29
ENDBRANCH  27  28
ENDBRANCH  26  27
ENDBRANCH  10  26
BRANCH   3  37
HETATM   37  O   UNK N   1      19.940  17.827   0.240  0.00  0.00    -0.344 OA
HETATM   38  H   UNK N   1      19.087  17.457   0.128  0.00  0.00     0.219 HD
ENDBRANCH   3  37
BRANCH   4  39
HETATM   39  O   UNK N   1      20.563  21.323   3.320  0.00  0.00    -0.332 OA
HETATM   40  H   UNK N   1      21.223  21.925   3.039  0.00  0.00     0.221 HD
ENDBRANCH   4  39
TORSDOF 19
ENDMDL
