MODEL 1
REMARK VINA RESULT:      -5.3      0.000      0.000
REMARK  11 active torsions:
REMARK  status: ('A' for Active; 'I' for Inactive)
REMARK    1  A    between atoms: C_2  and  N_1 
REMARK    2  A    between atoms: C_2  and  C_3 
REMARK    3  A    between atoms: C_2  and  C_14 
REMARK    4  A    between atoms: C_3  and  C_4 
REMARK    5  A    between atoms: C_4  and  C_5 
REMARK    6  A    between atoms: C_5  and  N_6 
REMARK       I    between atoms: N_6  and  C_7 
REMARK    7  A    between atoms: C_7  and  C_9 
REMARK    8  A    between atoms: C_9  and  P_10 
REMARK    9  A    between atoms: P_10  and  O_11 
REMARK   10  A    between atoms: P_10  and  O_12 
REMARK   11  A    between atoms: C_14  and  O_15 
ROOT
HETATM    1  C   UNK N   1      32.802  17.832   8.246  0.00  0.00     0.122 C 
ENDROOT
BRANCH   1   2
HETATM    2  C   UNK N   1      31.574  17.346   7.481  0.00  0.00     0.022 C 
BRANCH   2   3
HETATM    3  C   UNK N   1      30.359  17.170   8.388  0.00  0.00     0.037 C 
BRANCH   3   4
HETATM    4  C   UNK N   1      29.761  18.507   8.818  0.00  0.00     0.173 C 
BRANCH   4   5
HETATM    5  N   UNK N   1      29.911  18.660  10.257  0.00  0.00    -0.418 N 
HETATM    6  H   UNK N   1      29.608  19.520  10.714  0.00  0.00     0.150 HD
HETATM    7  H   UNK N   1      30.322  17.907  10.809  0.00  0.00     0.150 HD
ENDBRANCH   4   5
BRANCH   4   8
HETATM    8  C   UNK N   1      28.313  18.589   8.422  0.00  0.00     0.163 C 
HETATM    9  O   UNK N   1      28.011  19.010   7.317  0.00  0.00    -0.648 OA
BRANCH   8  10
HETATM   10  O   UNK N   1      27.342  18.224   9.282  0.00  0.00    -0.775 OA
HETATM   11  H   UNK N   1      26.899  17.406   9.169  0.00  0.00     0.167 HD
ENDBRANCH   8  10
ENDBRANCH   4   8
ENDBRANCH   3   4
ENDBRANCH   2   3
ENDBRANCH   1   2
BRANCH   1  12
HETATM   12  N   UNK N   1      33.567  16.725   8.786  0.00  0.00    -0.361 N 
HETATM   13  C   UNK N   1      34.761  16.894   9.414  0.00  0.00     0.228 C 
HETATM   14  O   UNK N   1      35.264  18.002   9.503  0.00  0.00    -0.273 OA
HETATM   15  H   UNK N   1      33.206  15.813   8.694  0.00  0.00     0.162 HD
BRANCH  13  16
HETATM   16  C   UNK N   1      35.461  15.731  10.044  0.00  0.00     0.227 C 
BRANCH  16  17
HETATM   17  P   UNK N   1      34.284  14.531  10.844  0.00  0.00     0.244 P 
HETATM   18  O   UNK N   1      34.701  14.242  12.310  0.00  0.00    -0.653 OA
BRANCH  17  19
HETATM   19  O   UNK N   1      34.261  12.961  10.101  0.00  0.00    -0.329 OA
HETATM   20  H   UNK N   1      34.298  12.821   9.142  0.00  0.00     0.220 HD
ENDBRANCH  17  19
BRANCH  17  21
HETATM   21  O   UNK N   1      32.637  15.062  10.959  0.00  0.00    -0.329 OA
HETATM   22  H   UNK N   1      32.249  15.903  11.247  0.00  0.00     0.220 HD
ENDBRANCH  17  21
ENDBRANCH  16  17
ENDBRANCH  13  16
ENDBRANCH   1  12
TORSDOF 11
ENDMDL
MODEL 2
REMARK VINA RESULT:      -5.2      4.232      7.703
REMARK  11 active torsions:
REMARK  status: ('A' for Active; 'I' for Inactive)
REMARK    1  A    between atoms: C_2  and  N_1 
REMARK    2  A    between atoms: C_2  and  C_3 
REMARK    3  A    between atoms: C_2  and  C_14 
REMARK    4  A    between atoms: C_3  and  C_4 
REMARK    5  A    between atoms: C_4  and  C_5 
REMARK    6  A    between atoms: C_5  and  N_6 
REMARK       I    between atoms: N_6  and  C_7 
REMARK    7  A    between atoms: C_7  and  C_9 
REMARK    8  A    between atoms: C_9  and  P_10 
REMARK    9  A    between atoms: P_10  and  O_11 
REMARK   10  A    between atoms: P_10  and  O_12 
REMARK   11  A    between atoms: C_14  and  O_15 
ROOT
HETATM    1  C   UNK N   1      35.537  14.799  11.921  0.00  0.00     0.122 C 
ENDROOT
BRANCH   1   2
HETATM    2  C   UNK N   1      35.576  13.332  12.340  0.00  0.00     0.022 C 
BRANCH   2   3
HETATM    3  C   UNK N   1      36.530  13.089  13.507  0.00  0.00     0.037 C 
BRANCH   3   4
HETATM    4  C   UNK N   1      36.122  13.862  14.757  0.00  0.00     0.173 C 
BRANCH   4   5
HETATM    5  N   UNK N   1      37.314  14.380  15.412  0.00  0.00    -0.418 N 
HETATM    6  H   UNK N   1      38.239  14.131  15.061  0.00  0.00     0.150 HD
HETATM    7  H   UNK N   1      37.224  14.993  16.223  0.00  0.00     0.150 HD
ENDBRANCH   4   5
BRANCH   4   8
HETATM    8  C   UNK N   1      35.342  12.981  15.692  0.00  0.00     0.163 C 
HETATM    9  O   UNK N   1      34.136  13.133  15.800  0.00  0.00    -0.648 OA
BRANCH   8  10
HETATM   10  O   UNK N   1      35.962  12.039  16.430  0.00  0.00    -0.775 OA
HETATM   11  H   UNK N   1      35.680  11.871  17.307  0.00  0.00     0.167 HD
ENDBRANCH   8  10
ENDBRANCH   4   8
ENDBRANCH   3   4
ENDBRANCH   2   3
ENDBRANCH   1   2
BRANCH   1  12
HETATM   12  N   UNK N   1      35.099  14.949  10.547  0.00  0.00    -0.361 N 
HETATM   13  C   UNK N   1      35.162  16.134   9.881  0.00  0.00     0.228 C 
HETATM   14  O   UNK N   1      35.552  17.143  10.445  0.00  0.00    -0.273 OA
HETATM   15  H   UNK N   1      34.741  14.161  10.077  0.00  0.00     0.162 HD
BRANCH  13  16
HETATM   16  C   UNK N   1      34.793  16.213   8.433  0.00  0.00     0.227 C 
BRANCH  16  17
HETATM   17  P   UNK N   1      34.228  17.913   7.926  0.00  0.00     0.244 P 
HETATM   18  O   UNK N   1      34.258  18.069   6.383  0.00  0.00    -0.653 OA
BRANCH  17  19
HETATM   19  O   UNK N   1      35.250  19.197   8.495  0.00  0.00    -0.329 OA
HETATM   20  H   UNK N   1      35.919  19.083   9.187  0.00  0.00     0.220 HD
ENDBRANCH  17  19
BRANCH  17  21
HETATM   21  O   UNK N   1      32.603  18.324   8.371  0.00  0.00    -0.329 OA
HETATM   22  H   UNK N   1      31.849  18.636   7.846  0.00  0.00     0.220 HD
ENDBRANCH  17  21
ENDBRANCH  16  17
ENDBRANCH  13  16
ENDBRANCH   1  12
TORSDOF 11
ENDMDL
MODEL 3
REMARK VINA RESULT:      -5.2      1.666      2.175
REMARK  11 active torsions:
REMARK  status: ('A' for Active; 'I' for Inactive)
REMARK    1  A    between atoms: C_2  and  N_1 
REMARK    2  A    between atoms: C_2  and  C_3 
REMARK    3  A    between atoms: C_2  and  C_14 
REMARK    4  A    between atoms: C_3  and  C_4 
REMARK    5  A    between atoms: C_4  and  C_5 
REMARK    6  A    between atoms: C_5  and  N_6 
REMARK       I    between atoms: N_6  and  C_7 
REMARK    7  A    between atoms: C_7  and  C_9 
REMARK    8  A    between atoms: C_9  and  P_10 
REMARK    9  A    between atoms: P_10  and  O_11 
REMARK   10  A    between atoms: P_10  and  O_12 
REMARK   11  A    between atoms: C_14  and  O_15 
ROOT
HETATM    1  C   UNK N   1      33.380  16.739   8.647  0.00  0.00     0.122 C 
ENDROOT
BRANCH   1   2
HETATM    2  C   UNK N   1      31.874  16.492   8.639  0.00  0.00     0.022 C 
BRANCH   2   3
HETATM    3  C   UNK N   1      31.083  17.750   8.290  0.00  0.00     0.037 C 
BRANCH   3   4
HETATM    4  C   UNK N   1      29.582  17.487   8.221  0.00  0.00     0.173 C 
BRANCH   4   5
HETATM    5  N   UNK N   1      29.073  17.941   6.936  0.00  0.00    -0.418 N 
HETATM    6  H   UNK N   1      29.536  18.705   6.443  0.00  0.00     0.150 HD
HETATM    7  H   UNK N   1      28.251  17.496   6.527  0.00  0.00     0.150 HD
ENDBRANCH   4   5
BRANCH   4   8
HETATM    8  C   UNK N   1      28.872  18.181   9.350  0.00  0.00     0.163 C 
HETATM    9  O   UNK N   1      29.520  18.752  10.212  0.00  0.00    -0.648 OA
BRANCH   8  10
HETATM   10  O   UNK N   1      27.527  18.162   9.433  0.00  0.00    -0.775 OA
HETATM   11  H   UNK N   1      27.082  17.366   9.651  0.00  0.00     0.167 HD
ENDBRANCH   8  10
ENDBRANCH   4   8
ENDBRANCH   3   4
ENDBRANCH   2   3
ENDBRANCH   1   2
BRANCH   1  12
HETATM   12  N   UNK N   1      34.013  16.141   9.806  0.00  0.00    -0.361 N 
HETATM   13  C   UNK N   1      35.084  16.701  10.429  0.00  0.00     0.228 C 
HETATM   14  O   UNK N   1      35.592  17.721   9.995  0.00  0.00    -0.273 OA
HETATM   15  H   UNK N   1      33.651  15.295  10.157  0.00  0.00     0.162 HD
BRANCH  13  16
HETATM   16  C   UNK N   1      35.636  16.098  11.683  0.00  0.00     0.227 C 
BRANCH  16  17
HETATM   17  P   UNK N   1      35.785  14.244  11.585  0.00  0.00     0.244 P 
HETATM   18  O   UNK N   1      35.809  13.769  10.108  0.00  0.00    -0.653 OA
BRANCH  17  19
HETATM   19  O   UNK N   1      34.441  13.389  12.276  0.00  0.00    -0.329 OA
HETATM   20  H   UNK N   1      34.182  12.493  12.013  0.00  0.00     0.220 HD
ENDBRANCH  17  19
BRANCH  17  21
HETATM   21  O   UNK N   1      37.225  13.572  12.280  0.00  0.00    -0.329 OA
HETATM   22  H   UNK N   1      38.084  13.968  12.495  0.00  0.00     0.220 HD
ENDBRANCH  17  21
ENDBRANCH  16  17
ENDBRANCH  13  16
ENDBRANCH   1  12
TORSDOF 11
ENDMDL
MODEL 4
REMARK VINA RESULT:      -5.2      9.238     11.610
REMARK  11 active torsions:
REMARK  status: ('A' for Active; 'I' for Inactive)
REMARK    1  A    between atoms: C_2  and  N_1 
REMARK    2  A    between atoms: C_2  and  C_3 
REMARK    3  A    between atoms: C_2  and  C_14 
REMARK    4  A    between atoms: C_3  and  C_4 
REMARK    5  A    between atoms: C_4  and  C_5 
REMARK    6  A    between atoms: C_5  and  N_6 
REMARK       I    between atoms: N_6  and  C_7 
REMARK    7  A    between atoms: C_7  and  C_9 
REMARK    8  A    between atoms: C_9  and  P_10 
REMARK    9  A    between atoms: P_10  and  O_11 
REMARK   10  A    between atoms: P_10  and  O_12 
REMARK   11  A    between atoms: C_14  and  O_15 
ROOT
HETATM    1  C   UNK N   1      22.304  18.877   4.216  0.00  0.00     0.122 C 
ENDROOT
BRANCH   1   2
HETATM    2  C   UNK N   1      21.671  17.640   3.585  0.00  0.00     0.022 C 
BRANCH   2   3
HETATM    3  C   UNK N   1      20.919  17.967   2.297  0.00  0.00     0.037 C 
BRANCH   3   4
HETATM    4  C   UNK N   1      20.156  19.285   2.392  0.00  0.00     0.173 C 
BRANCH   4   5
HETATM    5  N   UNK N   1      18.726  19.013   2.390  0.00  0.00    -0.418 N 
HETATM    6  H   UNK N   1      18.315  18.448   1.648  0.00  0.00     0.150 HD
HETATM    7  H   UNK N   1      18.135  19.389   3.131  0.00  0.00     0.150 HD
ENDBRANCH   4   5
BRANCH   4   8
HETATM    8  C   UNK N   1      20.527  20.193   1.254  0.00  0.00     0.163 C 
HETATM    9  O   UNK N   1      20.737  21.376   1.469  0.00  0.00    -0.648 OA
BRANCH   8  10
HETATM   10  O   UNK N   1      20.609  19.722  -0.006  0.00  0.00    -0.775 OA
HETATM   11  H   UNK N   1      20.427  20.287  -0.730  0.00  0.00     0.167 HD
ENDBRANCH   8  10
ENDBRANCH   4   8
ENDBRANCH   3   4
ENDBRANCH   2   3
ENDBRANCH   1   2
BRANCH   1  12
HETATM   12  N   UNK N   1      23.699  19.009   3.847  0.00  0.00    -0.361 N 
HETATM   13  C   UNK N   1      24.211  20.145   3.301  0.00  0.00     0.228 C 
HETATM   14  O   UNK N   1      23.487  21.095   3.052  0.00  0.00    -0.273 OA
HETATM   15  H   UNK N   1      24.302  18.245   3.999  0.00  0.00     0.162 HD
BRANCH  13  16
HETATM   16  C   UNK N   1      25.678  20.266   3.033  0.00  0.00     0.227 C 
BRANCH  16  17
HETATM   17  P   UNK N   1      26.713  19.997   4.557  0.00  0.00     0.244 P 
HETATM   18  O   UNK N   1      26.701  21.256   5.463  0.00  0.00    -0.653 OA
BRANCH  17  19
HETATM   19  O   UNK N   1      28.398  19.734   4.230  0.00  0.00    -0.329 OA
HETATM   20  H   UNK N   1      28.749  19.533   3.349  0.00  0.00     0.220 HD
ENDBRANCH  17  19
BRANCH  17  21
HETATM   21  O   UNK N   1      26.192  18.711   5.598  0.00  0.00    -0.329 OA
HETATM   22  H   UNK N   1      25.476  18.061   5.512  0.00  0.00     0.220 HD
ENDBRANCH  17  21
ENDBRANCH  16  17
ENDBRANCH  13  16
ENDBRANCH   1  12
TORSDOF 11
ENDMDL
MODEL 5
REMARK VINA RESULT:      -5.1     10.544     12.887
REMARK  11 active torsions:
REMARK  status: ('A' for Active; 'I' for Inactive)
REMARK    1  A    between atoms: C_2  and  N_1 
REMARK    2  A    between atoms: C_2  and  C_3 
REMARK    3  A    between atoms: C_2  and  C_14 
REMARK    4  A    between atoms: C_3  and  C_4 
REMARK    5  A    between atoms: C_4  and  C_5 
REMARK    6  A    between atoms: C_5  and  N_6 
REMARK       I    between atoms: N_6  and  C_7 
REMARK    7  A    between atoms: C_7  and  C_9 
REMARK    8  A    between atoms: C_9  and  P_10 
REMARK    9  A    between atoms: P_10  and  O_11 
REMARK   10  A    between atoms: P_10  and  O_12 
REMARK   11  A    between atoms: C_14  and  O_15 
ROOT
HETATM    1  C   UNK N   1      20.827  14.818   9.001  0.00  0.00     0.122 C 
ENDROOT
BRANCH   1   2
HETATM    2  C   UNK N   1      21.067  13.411   9.542  0.00  0.00     0.022 C 
BRANCH   2   3
HETATM    3  C   UNK N   1      22.467  13.247  10.129  0.00  0.00     0.037 C 
BRANCH   3   4
HETATM    4  C   UNK N   1      22.588  11.996  10.994  0.00  0.00     0.173 C 
BRANCH   4   5
HETATM    5  N   UNK N   1      21.346  11.796  11.726  0.00  0.00    -0.418 N 
HETATM    6  H   UNK N   1      20.577  11.283  11.296  0.00  0.00     0.150 HD
HETATM    7  H   UNK N   1      21.245  12.172  12.669  0.00  0.00     0.150 HD
ENDBRANCH   4   5
BRANCH   4   8
HETATM    8  C   UNK N   1      23.750  12.119  11.939  0.00  0.00     0.163 C 
HETATM    9  O   UNK N   1      23.562  12.032  13.142  0.00  0.00    -0.648 OA
BRANCH   8  10
HETATM   10  O   UNK N   1      24.995  12.345  11.476  0.00  0.00    -0.775 OA
HETATM   11  H   UNK N   1      25.736  12.013  11.942  0.00  0.00     0.167 HD
ENDBRANCH   8  10
ENDBRANCH   4   8
ENDBRANCH   3   4
ENDBRANCH   2   3
ENDBRANCH   1   2
BRANCH   1  12
HETATM   12  N   UNK N   1      20.542  14.801   7.580  0.00  0.00    -0.361 N 
HETATM   13  C   UNK N   1      21.401  15.304   6.652  0.00  0.00     0.228 C 
HETATM   14  O   UNK N   1      22.441  15.841   6.995  0.00  0.00    -0.273 OA
HETATM   15  H   UNK N   1      19.692  14.410   7.273  0.00  0.00     0.162 HD
BRANCH  13  16
HETATM   16  C   UNK N   1      21.106  15.170   5.191  0.00  0.00     0.227 C 
BRANCH  16  17
HETATM   17  P   UNK N   1      19.324  14.749   4.852  0.00  0.00     0.244 P 
HETATM   18  O   UNK N   1      18.988  13.320   5.353  0.00  0.00    -0.653 OA
BRANCH  17  19
HETATM   19  O   UNK N   1      18.917  14.706   3.164  0.00  0.00    -0.329 OA
HETATM   20  H   UNK N   1      18.008  14.754   2.830  0.00  0.00     0.220 HD
ENDBRANCH  17  19
BRANCH  17  21
HETATM   21  O   UNK N   1      18.155  15.767   5.629  0.00  0.00    -0.329 OA
HETATM   22  H   UNK N   1      17.250  16.015   5.383  0.00  0.00     0.220 HD
ENDBRANCH  17  21
ENDBRANCH  16  17
ENDBRANCH  13  16
ENDBRANCH   1  12
TORSDOF 11
ENDMDL
MODEL 6
REMARK VINA RESULT:      -5.0      4.766      7.566
REMARK  11 active torsions:
REMARK  status: ('A' for Active; 'I' for Inactive)
REMARK    1  A    between atoms: C_2  and  N_1 
REMARK    2  A    between atoms: C_2  and  C_3 
REMARK    3  A    between atoms: C_2  and  C_14 
REMARK    4  A    between atoms: C_3  and  C_4 
REMARK    5  A    between atoms: C_4  and  C_5 
REMARK    6  A    between atoms: C_5  and  N_6 
REMARK       I    between atoms: N_6  and  C_7 
REMARK    7  A    between atoms: C_7  and  C_9 
REMARK    8  A    between atoms: C_9  and  P_10 
REMARK    9  A    between atoms: P_10  and  O_11 
REMARK   10  A    between atoms: P_10  and  O_12 
REMARK   11  A    between atoms: C_14  and  O_15 
ROOT
HETATM    1  C   UNK N   1      37.099  12.134  10.961  0.00  0.00     0.122 C 
ENDROOT
BRANCH   1   2
HETATM    2  C   UNK N   1      37.140  12.325  12.474  0.00  0.00     0.022 C 
BRANCH   2   3
HETATM    3  C   UNK N   1      35.775  12.697  13.048  0.00  0.00     0.037 C 
BRANCH   3   4
HETATM    4  C   UNK N   1      35.836  13.950  13.916  0.00  0.00     0.173 C 
BRANCH   4   5
HETATM    5  N   UNK N   1      36.415  15.040  13.145  0.00  0.00    -0.418 N 
HETATM    6  H   UNK N   1      37.164  14.853  12.478  0.00  0.00     0.150 HD
HETATM    7  H   UNK N   1      36.073  15.993  13.273  0.00  0.00     0.150 HD
ENDBRANCH   4   5
BRANCH   4   8
HETATM    8  C   UNK N   1      36.638  13.693  15.160  0.00  0.00     0.163 C 
HETATM    9  O   UNK N   1      36.366  12.737  15.868  0.00  0.00    -0.648 OA
BRANCH   8  10
HETATM   10  O   UNK N   1      37.641  14.520  15.517  0.00  0.00    -0.775 OA
HETATM   11  H   UNK N   1      37.945  15.174  14.918  0.00  0.00     0.167 HD
ENDBRANCH   8  10
ENDBRANCH   4   8
ENDBRANCH   3   4
ENDBRANCH   2   3
ENDBRANCH   1   2
BRANCH   1  12
HETATM   12  N   UNK N   1      36.168  13.051  10.333  0.00  0.00    -0.361 N 
HETATM   13  C   UNK N   1      36.572  14.142   9.628  0.00  0.00     0.228 C 
HETATM   14  O   UNK N   1      37.757  14.419   9.539  0.00  0.00    -0.273 OA
HETATM   15  H   UNK N   1      35.202  12.877  10.421  0.00  0.00     0.162 HD
BRANCH  13  16
HETATM   16  C   UNK N   1      35.575  14.999   8.913  0.00  0.00     0.227 C 
BRANCH  16  17
HETATM   17  P   UNK N   1      34.458  15.927  10.079  0.00  0.00     0.244 P 
HETATM   18  O   UNK N   1      35.262  16.964  10.907  0.00  0.00    -0.653 OA
BRANCH  17  19
HETATM   19  O   UNK N   1      33.705  14.926  11.283  0.00  0.00    -0.329 OA
HETATM   20  H   UNK N   1      33.889  13.980  11.385  0.00  0.00     0.220 HD
ENDBRANCH  17  19
BRANCH  17  21
HETATM   21  O   UNK N   1      33.198  16.853   9.329  0.00  0.00    -0.329 OA
HETATM   22  H   UNK N   1      32.494  17.406   9.703  0.00  0.00     0.220 HD
ENDBRANCH  17  21
ENDBRANCH  16  17
ENDBRANCH  13  16
ENDBRANCH   1  12
TORSDOF 11
ENDMDL
MODEL 7
REMARK VINA RESULT:      -5.0     11.951     13.504
REMARK  11 active torsions:
REMARK  status: ('A' for Active; 'I' for Inactive)
REMARK    1  A    between atoms: C_2  and  N_1 
REMARK    2  A    between atoms: C_2  and  C_3 
REMARK    3  A    between atoms: C_2  and  C_14 
REMARK    4  A    between atoms: C_3  and  C_4 
REMARK    5  A    between atoms: C_4  and  C_5 
REMARK    6  A    between atoms: C_5  and  N_6 
REMARK       I    between atoms: N_6  and  C_7 
REMARK    7  A    between atoms: C_7  and  C_9 
REMARK    8  A    between atoms: C_9  and  P_10 
REMARK    9  A    between atoms: P_10  and  O_11 
REMARK   10  A    between atoms: P_10  and  O_12 
REMARK   11  A    between atoms: C_14  and  O_15 
ROOT
HETATM    1  C   UNK N   1      19.592  16.067   3.823  0.00  0.00     0.122 C 
ENDROOT
BRANCH   1   2
HETATM    2  C   UNK N   1      19.178  16.061   5.292  0.00  0.00     0.022 C 
BRANCH   2   3
HETATM    3  C   UNK N   1      20.287  15.542   6.204  0.00  0.00     0.037 C 
BRANCH   3   4
HETATM    4  C   UNK N   1      20.574  16.493   7.362  0.00  0.00     0.173 C 
BRANCH   4   5
HETATM    5  N   UNK N   1      19.350  16.714   8.117  0.00  0.00    -0.418 N 
HETATM    6  H   UNK N   1      19.171  16.183   8.969  0.00  0.00     0.150 HD
HETATM    7  H   UNK N   1      18.669  17.402   7.793  0.00  0.00     0.150 HD
ENDBRANCH   4   5
BRANCH   4   8
HETATM    8  C   UNK N   1      21.129  17.794   6.853  0.00  0.00     0.163 C 
HETATM    9  O   UNK N   1      20.762  18.844   7.354  0.00  0.00    -0.648 OA
BRANCH   8  10
HETATM   10  O   UNK N   1      22.010  17.815   5.833  0.00  0.00    -0.775 OA
HETATM   11  H   UNK N   1      22.556  18.565   5.702  0.00  0.00     0.167 HD
ENDBRANCH   8  10
ENDBRANCH   4   8
ENDBRANCH   3   4
ENDBRANCH   2   3
ENDBRANCH   1   2
BRANCH   1  12
HETATM   12  N   UNK N   1      20.001  17.388   3.389  0.00  0.00    -0.361 N 
HETATM   13  C   UNK N   1      20.220  17.697   2.082  0.00  0.00     0.228 C 
HETATM   14  O   UNK N   1      20.126  16.842   1.218  0.00  0.00    -0.273 OA
HETATM   15  H   UNK N   1      20.125  18.091   4.068  0.00  0.00     0.162 HD
BRANCH  13  16
HETATM   16  C   UNK N   1      20.540  19.101   1.676  0.00  0.00     0.227 C 
BRANCH  16  17
HETATM   17  P   UNK N   1      21.449  20.044   3.001  0.00  0.00     0.244 P 
HETATM   18  O   UNK N   1      20.608  20.119   4.302  0.00  0.00    -0.653 OA
BRANCH  17  19
HETATM   19  O   UNK N   1      21.753  21.707   2.603  0.00  0.00    -0.329 OA
HETATM   20  H   UNK N   1      22.627  22.049   2.361  0.00  0.00     0.220 HD
ENDBRANCH  17  19
BRANCH  17  21
HETATM   21  O   UNK N   1      22.962  19.358   3.502  0.00  0.00    -0.329 OA
HETATM   22  H   UNK N   1      23.870  19.507   3.198  0.00  0.00     0.220 HD
ENDBRANCH  17  21
ENDBRANCH  16  17
ENDBRANCH  13  16
ENDBRANCH   1  12
TORSDOF 11
ENDMDL
MODEL 8
REMARK VINA RESULT:      -5.0      6.054      8.131
REMARK  11 active torsions:
REMARK  status: ('A' for Active; 'I' for Inactive)
REMARK    1  A    between atoms: C_2  and  N_1 
REMARK    2  A    between atoms: C_2  and  C_3 
REMARK    3  A    between atoms: C_2  and  C_14 
REMARK    4  A    between atoms: C_3  and  C_4 
REMARK    5  A    between atoms: C_4  and  C_5 
REMARK    6  A    between atoms: C_5  and  N_6 
REMARK       I    between atoms: N_6  and  C_7 
REMARK    7  A    between atoms: C_7  and  C_9 
REMARK    8  A    between atoms: C_9  and  P_10 
REMARK    9  A    between atoms: P_10  and  O_11 
REMARK   10  A    between atoms: P_10  and  O_12 
REMARK   11  A    between atoms: C_14  and  O_15 
ROOT
HETATM    1  C   UNK N   1      37.266  11.290  12.527  0.00  0.00     0.122 C 
ENDROOT
BRANCH   1   2
HETATM    2  C   UNK N   1      37.747  11.406  13.971  0.00  0.00     0.022 C 
BRANCH   2   3
HETATM    3  C   UNK N   1      37.229  12.669  14.655  0.00  0.00     0.037 C 
BRANCH   3   4
HETATM    4  C   UNK N   1      36.189  12.361  15.727  0.00  0.00     0.173 C 
BRANCH   4   5
HETATM    5  N   UNK N   1      36.172  10.929  15.982  0.00  0.00    -0.418 N 
HETATM    6  H   UNK N   1      36.478  10.277  15.260  0.00  0.00     0.150 HD
HETATM    7  H   UNK N   1      35.851  10.576  16.884  0.00  0.00     0.150 HD
ENDBRANCH   4   5
BRANCH   4   8
HETATM    8  C   UNK N   1      34.831  12.843  15.300  0.00  0.00     0.163 C 
HETATM    9  O   UNK N   1      34.049  13.265  16.136  0.00  0.00    -0.648 OA
BRANCH   8  10
HETATM   10  O   UNK N   1      34.458  12.793  14.006  0.00  0.00    -0.775 OA
HETATM   11  H   UNK N   1      33.549  12.761  13.781  0.00  0.00     0.167 HD
ENDBRANCH   8  10
ENDBRANCH   4   8
ENDBRANCH   3   4
ENDBRANCH   2   3
ENDBRANCH   1   2
BRANCH   1  12
HETATM   12  N   UNK N   1      36.814  12.568  12.012  0.00  0.00    -0.361 N 
HETATM   13  C   UNK N   1      37.456  13.224  11.009  0.00  0.00     0.228 C 
HETATM   14  O   UNK N   1      38.484  12.775  10.531  0.00  0.00    -0.273 OA
HETATM   15  H   UNK N   1      36.008  12.977  12.405  0.00  0.00     0.162 HD
BRANCH  13  16
HETATM   16  C   UNK N   1      36.891  14.490  10.444  0.00  0.00     0.227 C 
BRANCH  16  17
HETATM   17  P   UNK N   1      35.566  15.231  11.522  0.00  0.00     0.244 P 
HETATM   18  O   UNK N   1      36.043  15.329  12.995  0.00  0.00    -0.653 OA
BRANCH  17  19
HETATM   19  O   UNK N   1      34.116  14.279  11.615  0.00  0.00    -0.329 OA
HETATM   20  H   UNK N   1      33.465  14.362  12.328  0.00  0.00     0.220 HD
ENDBRANCH  17  19
BRANCH  17  21
HETATM   21  O   UNK N   1      35.086  16.847  11.114  0.00  0.00    -0.329 OA
HETATM   22  H   UNK N   1      34.917  17.273  10.259  0.00  0.00     0.220 HD
ENDBRANCH  17  21
ENDBRANCH  16  17
ENDBRANCH  13  16
ENDBRANCH   1  12
TORSDOF 11
ENDMDL
MODEL 9
REMARK VINA RESULT:      -5.0      3.579      4.521
REMARK  11 active torsions:
REMARK  status: ('A' for Active; 'I' for Inactive)
REMARK    1  A    between atoms: C_2  and  N_1 
REMARK    2  A    between atoms: C_2  and  C_3 
REMARK    3  A    between atoms: C_2  and  C_14 
REMARK    4  A    between atoms: C_3  and  C_4 
REMARK    5  A    between atoms: C_4  and  C_5 
REMARK    6  A    between atoms: C_5  and  N_6 
REMARK       I    between atoms: N_6  and  C_7 
REMARK    7  A    between atoms: C_7  and  C_9 
REMARK    8  A    between atoms: C_9  and  P_10 
REMARK    9  A    between atoms: P_10  and  O_11 
REMARK   10  A    between atoms: P_10  and  O_12 
REMARK   11  A    between atoms: C_14  and  O_15 
ROOT
HETATM    1  C   UNK N   1      35.507  14.456   8.227  0.00  0.00     0.122 C 
ENDROOT
BRANCH   1   2
HETATM    2  C   UNK N   1      34.004  14.707   8.144  0.00  0.00     0.022 C 
BRANCH   2   3
HETATM    3  C   UNK N   1      33.586  15.967   8.899  0.00  0.00     0.037 C 
BRANCH   3   4
HETATM    4  C   UNK N   1      34.746  16.938   9.091  0.00  0.00     0.173 C 
BRANCH   4   5
HETATM    5  N   UNK N   1      34.961  17.155  10.513  0.00  0.00    -0.418 N 
HETATM    6  H   UNK N   1      35.252  16.381  11.111  0.00  0.00     0.150 HD
HETATM    7  H   UNK N   1      34.819  18.083  10.914  0.00  0.00     0.150 HD
ENDBRANCH   4   5
BRANCH   4   8
HETATM    8  C   UNK N   1      34.468  18.238   8.390  0.00  0.00     0.163 C 
HETATM    9  O   UNK N   1      33.466  18.352   7.702  0.00  0.00    -0.648 OA
BRANCH   8  10
HETATM   10  O   UNK N   1      35.325  19.274   8.493  0.00  0.00    -0.775 OA
HETATM   11  H   UNK N   1      36.248  19.117   8.531  0.00  0.00     0.167 HD
ENDBRANCH   8  10
ENDBRANCH   4   8
ENDBRANCH   3   4
ENDBRANCH   2   3
ENDBRANCH   1   2
BRANCH   1  12
HETATM   12  N   UNK N   1      35.850  13.650   9.382  0.00  0.00    -0.361 N 
HETATM   13  C   UNK N   1      36.784  14.032  10.294  0.00  0.00     0.228 C 
HETATM   14  O   UNK N   1      37.414  15.065  10.141  0.00  0.00    -0.273 OA
HETATM   15  H   UNK N   1      35.387  12.790   9.512  0.00  0.00     0.162 HD
BRANCH  13  16
HETATM   16  C   UNK N   1      37.028  13.213  11.522  0.00  0.00     0.227 C 
BRANCH  16  17
HETATM   17  P   UNK N   1      35.598  13.259  12.714  0.00  0.00     0.244 P 
HETATM   18  O   UNK N   1      35.135  11.825  13.079  0.00  0.00    -0.653 OA
BRANCH  17  19
HETATM   19  O   UNK N   1      34.168  14.009  12.073  0.00  0.00    -0.329 OA
HETATM   20  H   UNK N   1      34.174  14.616  11.317  0.00  0.00     0.220 HD
ENDBRANCH  17  19
BRANCH  17  21
HETATM   21  O   UNK N   1      35.923  14.011  14.243  0.00  0.00    -0.329 OA
HETATM   22  H   UNK N   1      35.398  14.619  14.788  0.00  0.00     0.220 HD
ENDBRANCH  17  21
ENDBRANCH  16  17
ENDBRANCH  13  16
ENDBRANCH   1  12
TORSDOF 11
ENDMDL
