MODEL 1
REMARK VINA RESULT:      -7.5      0.000      0.000
REMARK  25 active torsions:
REMARK  status: ('A' for Active; 'I' for Inactive)
REMARK    1  A    between atoms: C_9  and  C_3 
REMARK    2  A    between atoms: O_46  and  C_3 
REMARK    3  A    between atoms: C_10  and  C_4 
REMARK    4  A    between atoms: O_47  and  C_4 
REMARK    5  A    between atoms: C_17  and  C_7 
REMARK    6  A    between atoms: C_8  and  O_33 
REMARK    7  A    between atoms: C_12  and  O_34 
REMARK    8  A    between atoms: C_13  and  O_35 
REMARK    9  A    between atoms: C_14  and  O_36 
REMARK   10  A    between atoms: C_15  and  O_50 
REMARK   11  A    between atoms: N_22  and  C_16 
REMARK   12  A    between atoms: N_23  and  C_17 
REMARK   13  A    between atoms: O_37  and  C_17 
REMARK   14  A    between atoms: C_19  and  O_38 
REMARK   15  A    between atoms: C_20  and  N_31 
REMARK   16  A    between atoms: C_21  and  N_32 
REMARK   17  A    between atoms: P_52  and  O_39 
REMARK   18  A    between atoms: P_52  and  O_40 
REMARK   19  A    between atoms: P_53  and  O_42 
REMARK   20  A    between atoms: P_54  and  O_44 
REMARK   21  A    between atoms: P_53  and  O_46 
REMARK   22  A    between atoms: P_54  and  O_47 
REMARK   23  A    between atoms: P_52  and  O_50 
REMARK   24  A    between atoms: P_53  and  O_51 
REMARK   25  A    between atoms: P_54  and  O_51 
ROOT
HETATM    1  O   UNK N   1      25.156  13.069   9.464  0.00  0.00    -0.631 OA
HETATM    2  P   UNK N   1      23.727  12.900   8.888  0.00  0.00     0.401 P 
ENDROOT
BRANCH   2   3
HETATM    3  O   UNK N   1      23.642  11.216   8.466  0.00  0.00    -0.307 OA
HETATM    4  H   UNK N   1      23.652  10.268   8.671  0.00  0.00     0.222 HD
ENDBRANCH   2   3
BRANCH   2   5
HETATM    5  O   UNK N   1      23.667  14.011   7.533  0.00  0.00    -0.294 OA
BRANCH   5   6
HETATM    6  C   UNK N   1      24.856  13.919   6.786  0.00  0.00     0.215 C 
BRANCH   6   7
HETATM    7  C   UNK N   1      25.687  15.209   6.790  0.00  0.00     0.180 C 
HETATM    8  C   UNK N   1      25.358  16.134   5.626  0.00  0.00     0.183 C 
HETATM    9  C   UNK N   1      26.572  17.027   5.684  0.00  0.00     0.214 C 
HETATM   10  C   UNK N   1      27.601  15.892   5.787  0.00  0.00     0.263 C 
HETATM   11  O   UNK N   1      27.078  14.940   6.708  0.00  0.00    -0.353 OA
BRANCH   8  12
HETATM   12  O   UNK N   1      24.163  16.819   5.825  0.00  0.00    -0.390 OA
HETATM   13  H   UNK N   1      24.039  17.742   6.094  0.00  0.00     0.210 HD
ENDBRANCH   8  12
BRANCH   9  14
HETATM   14  O   UNK N   1      26.871  17.895   4.599  0.00  0.00    -0.284 OA
BRANCH  14  15
HETATM   15  P   UNK N   1      26.058  19.452   4.585  0.00  0.00     0.391 P 
HETATM   16  O   UNK N   1      26.293  20.195   5.928  0.00  0.00    -0.632 OA
BRANCH  15  17
HETATM   17  O   UNK N   1      24.351  19.317   4.300  0.00  0.00    -0.307 OA
HETATM   18  H   UNK N   1      23.538  18.901   3.972  0.00  0.00     0.222 HD
ENDBRANCH  15  17
BRANCH  15  19
HETATM   19  O   UNK N   1      26.771  20.461   3.368  0.00  0.00    -0.307 OA
HETATM   20  H   UNK N   1      27.524  20.136   2.850  0.00  0.00     0.222 HD
ENDBRANCH  15  19
ENDBRANCH  14  15
ENDBRANCH   9  14
BRANCH  10  21
HETATM   21  N   UNK N   1      28.946  16.343   6.164  0.00  0.00    -0.297 N 
HETATM   22  C   UNK N   1      30.061  16.359   5.387  0.00  0.00     0.188 A 
HETATM   23  N   UNK N   1      31.116  16.925   6.041  0.00  0.00    -0.346 N 
HETATM   24  C   UNK N   1      30.621  17.262   7.245  0.00  0.00     0.122 A 
ATOM     25  HN  UNK N   1      32.066  17.061   5.694  1.00  0.00     0.167 HD
HETATM   26  C   UNK N   1      31.231  17.898   8.318  0.00  0.00     0.131 A 
HETATM   27  C   UNK N   1      29.324  16.910   7.321  0.00  0.00     0.142 A 
HETATM   28  N   UNK N   1      30.482  18.131   9.436  0.00  0.00    -0.337 N 
HETATM   29  C   UNK N   1      29.161  17.759   9.492  0.00  0.00     0.183 A 
ATOM     30  HN  UNK N   1      30.909  18.590  10.241  1.00  0.00     0.168 HD
HETATM   31  N   UNK N   1      28.569  17.151   8.419  0.00  0.00    -0.336 N 
ATOM     32  HN  UNK N   1      27.584  16.886   8.445  1.00  0.00     0.168 HD
BRANCH  26  33
HETATM   33  N   UNK N   1      32.578  18.306   8.260  0.00  0.00    -0.383 N 
HETATM   34  H   UNK N   1      33.238  18.105   8.961  0.00  0.00     0.157 HD
HETATM   35  H   UNK N   1      32.875  18.822   7.476  0.00  0.00     0.157 HD
ENDBRANCH  26  33
ENDBRANCH  10  21
ENDBRANCH   6   7
ENDBRANCH   5   6
ENDBRANCH   2   5
BRANCH   2  36
HETATM   36  O   UNK N   1      22.681  13.307  10.206  0.00  0.00    -0.195 OA
BRANCH  36  37
HETATM   37  P   UNK N   1      21.143  13.632   9.479  0.00  0.00     0.401 P 
HETATM   38  O   UNK N   1      20.078  13.029  10.440  0.00  0.00    -0.631 OA
BRANCH  37  39
HETATM   39  O   UNK N   1      20.931  12.826   7.956  0.00  0.00    -0.307 OA
HETATM   40  H   UNK N   1      20.721  12.045   7.420  0.00  0.00     0.222 HD
ENDBRANCH  37  39
BRANCH  37  41
HETATM   41  O   UNK N   1      20.880  15.351   9.291  0.00  0.00    -0.294 OA
BRANCH  41  42
HETATM   42  C   UNK N   1      20.248  15.521   8.072  0.00  0.00     0.215 C 
BRANCH  42  43
HETATM   43  C   UNK N   1      21.136  16.243   7.060  0.00  0.00     0.180 C 
HETATM   44  C   UNK N   1      20.558  17.596   6.612  0.00  0.00     0.182 C 
HETATM   45  C   UNK N   1      20.611  17.473   5.099  0.00  0.00     0.198 C 
HETATM   46  C   UNK N   1      20.281  15.989   5.016  0.00  0.00     0.257 C 
HETATM   47  O   UNK N   1      21.148  15.399   5.945  0.00  0.00    -0.354 OA
BRANCH  44  48
HETATM   48  O   UNK N   1      21.280  18.689   7.102  0.00  0.00    -0.390 OA
HETATM   49  H   UNK N   1      22.234  18.784   7.247  0.00  0.00     0.210 HD
ENDBRANCH  44  48
BRANCH  45  50
HETATM   50  O   UNK N   1      21.911  17.696   4.631  0.00  0.00    -0.388 OA
HETATM   51  H   UNK N   1      22.773  17.712   4.188  0.00  0.00     0.210 HD
ENDBRANCH  45  50
BRANCH  46  52
HETATM   52  N   UNK N   1      20.452  15.328   3.739  0.00  0.00    -0.332 N 
HETATM   53  C   UNK N   1      19.867  16.007   2.621  0.00  0.00     0.102 C 
HETATM   54  C   UNK N   1      20.318  15.878   1.372  0.00  0.00     0.010 C 
HETATM   55  C   UNK N   1      21.522  15.015   1.105  0.00  0.00     0.080 C 
HETATM   56  C   UNK N   1      21.519  13.839   2.076  0.00  0.00     0.171 C 
HETATM   57  C   UNK N   1      21.522  14.354   3.530  0.00  0.00     0.251 C 
BRANCH  54  58
HETATM   58  C   UNK N   1      19.644  16.625   0.287  0.00  0.00     0.141 C 
BRANCH  58  59
HETATM   59  N   UNK N   1      18.433  16.355  -0.032  0.00  0.00    -0.380 N 
HETATM   60  H   UNK N   1      17.877  15.765   0.526  0.00  0.00     0.158 HD
ATOM     61  HN  UNK N   1      18.037  16.760  -0.882  1.00  0.00     0.158 HD
ENDBRANCH  58  59
BRANCH  58  62
HETATM   62  O   UNK N   1      20.306  17.595  -0.378  0.00  0.00    -0.346 OA
HETATM   63  H   UNK N   1      20.972  18.109   0.035  0.00  0.00     0.219 HD
ENDBRANCH  58  62
ENDBRANCH  54  58
BRANCH  56  64
HETATM   64  O   UNK N   1      22.626  13.022   1.842  0.00  0.00    -0.391 OA
HETATM   65  H   UNK N   1      23.338  12.927   2.495  0.00  0.00     0.210 HD
ENDBRANCH  56  64
BRANCH  57  66
HETATM   66  O   UNK N   1      22.753  14.944   3.833  0.00  0.00    -0.374 OA
HETATM   67  H   UNK N   1      23.424  15.597   4.083  0.00  0.00     0.212 HD
ENDBRANCH  57  66
ENDBRANCH  46  52
ENDBRANCH  42  43
ENDBRANCH  41  42
ENDBRANCH  37  41
ENDBRANCH  36  37
ENDBRANCH   2  36
TORSDOF 25
ENDMDL
MODEL 2
REMARK VINA RESULT:      -7.1      3.826      9.554
REMARK  25 active torsions:
REMARK  status: ('A' for Active; 'I' for Inactive)
REMARK    1  A    between atoms: C_9  and  C_3 
REMARK    2  A    between atoms: O_46  and  C_3 
REMARK    3  A    between atoms: C_10  and  C_4 
REMARK    4  A    between atoms: O_47  and  C_4 
REMARK    5  A    between atoms: C_17  and  C_7 
REMARK    6  A    between atoms: C_8  and  O_33 
REMARK    7  A    between atoms: C_12  and  O_34 
REMARK    8  A    between atoms: C_13  and  O_35 
REMARK    9  A    between atoms: C_14  and  O_36 
REMARK   10  A    between atoms: C_15  and  O_50 
REMARK   11  A    between atoms: N_22  and  C_16 
REMARK   12  A    between atoms: N_23  and  C_17 
REMARK   13  A    between atoms: O_37  and  C_17 
REMARK   14  A    between atoms: C_19  and  O_38 
REMARK   15  A    between atoms: C_20  and  N_31 
REMARK   16  A    between atoms: C_21  and  N_32 
REMARK   17  A    between atoms: P_52  and  O_39 
REMARK   18  A    between atoms: P_52  and  O_40 
REMARK   19  A    between atoms: P_53  and  O_42 
REMARK   20  A    between atoms: P_54  and  O_44 
REMARK   21  A    between atoms: P_53  and  O_46 
REMARK   22  A    between atoms: P_54  and  O_47 
REMARK   23  A    between atoms: P_52  and  O_50 
REMARK   24  A    between atoms: P_53  and  O_51 
REMARK   25  A    between atoms: P_54  and  O_51 
ROOT
HETATM    1  O   UNK N   1      27.611  16.037   4.569  0.00  0.00    -0.631 OA
HETATM    2  P   UNK N   1      26.151  16.525   4.744  0.00  0.00     0.401 P 
ENDROOT
BRANCH   2   3
HETATM    3  O   UNK N   1      25.890  16.458   6.461  0.00  0.00    -0.307 OA
HETATM    4  H   UNK N   1      25.484  16.757   7.290  0.00  0.00     0.222 HD
ENDBRANCH   2   3
BRANCH   2   5
HETATM    5  O   UNK N   1      25.197  15.396   3.801  0.00  0.00    -0.294 OA
BRANCH   5   6
HETATM    6  C   UNK N   1      25.010  14.205   4.527  0.00  0.00     0.215 C 
BRANCH   6   7
HETATM    7  C   UNK N   1      23.600  14.058   5.114  0.00  0.00     0.180 C 
HETATM    8  C   UNK N   1      22.653  15.167   4.676  0.00  0.00     0.183 C 
HETATM    9  C   UNK N   1      21.570  14.974   5.708  0.00  0.00     0.214 C 
HETATM   10  C   UNK N   1      22.514  14.897   6.917  0.00  0.00     0.263 C 
HETATM   11  O   UNK N   1      23.615  14.080   6.533  0.00  0.00    -0.353 OA
BRANCH   8  12
HETATM   12  O   UNK N   1      22.205  14.986   3.371  0.00  0.00    -0.390 OA
HETATM   13  H   UNK N   1      22.699  15.110   2.545  0.00  0.00     0.210 HD
ENDBRANCH   8  12
BRANCH   9  14
HETATM   14  O   UNK N   1      20.577  15.973   5.894  0.00  0.00    -0.284 OA
BRANCH  14  15
HETATM   15  P   UNK N   1      19.137  15.852   4.894  0.00  0.00     0.391 P 
HETATM   16  O   UNK N   1      19.116  14.494   4.142  0.00  0.00    -0.632 OA
BRANCH  15  17
HETATM   17  O   UNK N   1      19.007  17.144   3.742  0.00  0.00    -0.307 OA
HETATM   18  H   UNK N   1      19.300  17.711   3.011  0.00  0.00     0.222 HD
ENDBRANCH  15  17
BRANCH  15  19
HETATM   19  O   UNK N   1      17.732  15.839   5.911  0.00  0.00    -0.307 OA
HETATM   20  H   UNK N   1      17.054  15.156   5.792  0.00  0.00     0.222 HD
ENDBRANCH  15  19
ENDBRANCH  14  15
ENDBRANCH   9  14
BRANCH  10  21
HETATM   21  N   UNK N   1      21.868  14.412   8.143  0.00  0.00    -0.297 N 
HETATM   22  C   UNK N   1      20.667  14.796   8.652  0.00  0.00     0.188 A 
HETATM   23  N   UNK N   1      20.343  14.072   9.763  0.00  0.00    -0.346 N 
HETATM   24  C   UNK N   1      21.377  13.227   9.925  0.00  0.00     0.122 A 
ATOM     25  HN  UNK N   1      19.506  14.155  10.341  1.00  0.00     0.167 HD
HETATM   26  C   UNK N   1      21.583  12.236  10.875  0.00  0.00     0.131 A 
HETATM   27  C   UNK N   1      22.292  13.433   8.958  0.00  0.00     0.142 A 
HETATM   28  N   UNK N   1      22.735  11.505  10.800  0.00  0.00    -0.337 N 
HETATM   29  C   UNK N   1      23.656  11.736   9.807  0.00  0.00     0.183 A 
ATOM     30  HN  UNK N   1      22.913  10.776  11.490  1.00  0.00     0.168 HD
HETATM   31  N   UNK N   1      23.428  12.704   8.867  0.00  0.00    -0.336 N 
ATOM     32  HN  UNK N   1      24.098  12.871   8.116  1.00  0.00     0.168 HD
BRANCH  26  33
HETATM   33  N   UNK N   1      20.632  11.974  11.880  0.00  0.00    -0.383 N 
HETATM   34  H   UNK N   1      20.861  11.593  12.759  0.00  0.00     0.157 HD
HETATM   35  H   UNK N   1      19.688  12.183  11.695  0.00  0.00     0.157 HD
ENDBRANCH  26  33
ENDBRANCH  10  21
ENDBRANCH   6   7
ENDBRANCH   5   6
ENDBRANCH   2   5
BRANCH   2  36
HETATM   36  O   UNK N   1      26.163  18.147   4.138  0.00  0.00    -0.195 OA
BRANCH  36  37
HETATM   37  P   UNK N   1      27.471  18.927   4.962  0.00  0.00     0.401 P 
HETATM   38  O   UNK N   1      27.372  20.436   4.592  0.00  0.00    -0.631 OA
BRANCH  37  39
HETATM   39  O   UNK N   1      29.031  18.397   4.412  0.00  0.00    -0.307 OA
HETATM   40  H   UNK N   1      29.610  17.772   3.950  0.00  0.00     0.222 HD
ENDBRANCH  37  39
BRANCH  37  41
HETATM   41  O   UNK N   1      27.343  18.722   6.693  0.00  0.00    -0.294 OA
BRANCH  41  42
HETATM   42  C   UNK N   1      28.560  19.110   7.227  0.00  0.00     0.215 C 
BRANCH  42  43
HETATM   43  C   UNK N   1      29.188  18.011   8.082  0.00  0.00     0.180 C 
HETATM   44  C   UNK N   1      30.198  18.553   9.108  0.00  0.00     0.182 C 
HETATM   45  C   UNK N   1      31.414  17.685   8.838  0.00  0.00     0.198 C 
HETATM   46  C   UNK N   1      31.242  17.577   7.330  0.00  0.00     0.257 C 
HETATM   47  O   UNK N   1      29.896  17.224   7.168  0.00  0.00    -0.354 OA
BRANCH  44  48
HETATM   48  O   UNK N   1      29.739  18.466  10.426  0.00  0.00    -0.390 OA
HETATM   49  H   UNK N   1      29.350  17.713  10.896  0.00  0.00     0.210 HD
ENDBRANCH  44  48
BRANCH  45  50
HETATM   50  O   UNK N   1      31.259  16.424   9.424  0.00  0.00    -0.388 OA
HETATM   51  H   UNK N   1      31.215  15.486   9.667  0.00  0.00     0.210 HD
ENDBRANCH  45  50
BRANCH  46  52
HETATM   52  N   UNK N   1      32.062  16.615   6.622  0.00  0.00    -0.332 N 
HETATM   53  C   UNK N   1      31.430  15.991   5.498  0.00  0.00     0.102 C 
HETATM   54  C   UNK N   1      32.109  15.509   4.455  0.00  0.00     0.010 C 
HETATM   55  C   UNK N   1      33.607  15.652   4.417  0.00  0.00     0.080 C 
HETATM   56  C   UNK N   1      34.154  15.555   5.838  0.00  0.00     0.171 C 
HETATM   57  C   UNK N   1      33.519  16.645   6.725  0.00  0.00     0.251 C 
BRANCH  54  58
HETATM   58  C   UNK N   1      31.362  14.885   3.341  0.00  0.00     0.141 C 
BRANCH  58  59
HETATM   59  N   UNK N   1      31.813  13.833   2.766  0.00  0.00    -0.380 N 
HETATM   60  H   UNK N   1      32.668  13.846   2.276  0.00  0.00     0.158 HD
ATOM     61  HN  UNK N   1      31.277  12.966   2.815  1.00  0.00     0.158 HD
ENDBRANCH  58  59
BRANCH  58  62
HETATM   62  O   UNK N   1      30.198  15.424   2.921  0.00  0.00    -0.346 OA
HETATM   63  H   UNK N   1      30.172  16.072   2.244  0.00  0.00     0.219 HD
ENDBRANCH  58  62
ENDBRANCH  54  58
BRANCH  56  64
HETATM   64  O   UNK N   1      35.544  15.679   5.825  0.00  0.00    -0.391 OA
HETATM   65  H   UNK N   1      35.995  16.317   5.250  0.00  0.00     0.210 HD
ENDBRANCH  56  64
BRANCH  57  66
HETATM   66  O   UNK N   1      33.986  17.909   6.348  0.00  0.00    -0.374 OA
HETATM   67  H   UNK N   1      34.580  18.644   6.133  0.00  0.00     0.212 HD
ENDBRANCH  57  66
ENDBRANCH  46  52
ENDBRANCH  42  43
ENDBRANCH  41  42
ENDBRANCH  37  41
ENDBRANCH  36  37
ENDBRANCH   2  36
TORSDOF 25
ENDMDL
MODEL 3
REMARK VINA RESULT:      -7.0      3.776      6.460
REMARK  25 active torsions:
REMARK  status: ('A' for Active; 'I' for Inactive)
REMARK    1  A    between atoms: C_9  and  C_3 
REMARK    2  A    between atoms: O_46  and  C_3 
REMARK    3  A    between atoms: C_10  and  C_4 
REMARK    4  A    between atoms: O_47  and  C_4 
REMARK    5  A    between atoms: C_17  and  C_7 
REMARK    6  A    between atoms: C_8  and  O_33 
REMARK    7  A    between atoms: C_12  and  O_34 
REMARK    8  A    between atoms: C_13  and  O_35 
REMARK    9  A    between atoms: C_14  and  O_36 
REMARK   10  A    between atoms: C_15  and  O_50 
REMARK   11  A    between atoms: N_22  and  C_16 
REMARK   12  A    between atoms: N_23  and  C_17 
REMARK   13  A    between atoms: O_37  and  C_17 
REMARK   14  A    between atoms: C_19  and  O_38 
REMARK   15  A    between atoms: C_20  and  N_31 
REMARK   16  A    between atoms: C_21  and  N_32 
REMARK   17  A    between atoms: P_52  and  O_39 
REMARK   18  A    between atoms: P_52  and  O_40 
REMARK   19  A    between atoms: P_53  and  O_42 
REMARK   20  A    between atoms: P_54  and  O_44 
REMARK   21  A    between atoms: P_53  and  O_46 
REMARK   22  A    between atoms: P_54  and  O_47 
REMARK   23  A    between atoms: P_52  and  O_50 
REMARK   24  A    between atoms: P_53  and  O_51 
REMARK   25  A    between atoms: P_54  and  O_51 
ROOT
HETATM    1  O   UNK N   1      28.384  11.814   2.692  0.00  0.00    -0.631 OA
HETATM    2  P   UNK N   1      28.208  13.301   3.089  0.00  0.00     0.401 P 
ENDROOT
BRANCH   2   3
HETATM    3  O   UNK N   1      29.201  14.160   1.950  0.00  0.00    -0.307 OA
HETATM    4  H   UNK N   1      29.342  14.745   1.189  0.00  0.00     0.222 HD
ENDBRANCH   2   3
BRANCH   2   5
HETATM    5  O   UNK N   1      28.750  13.377   4.754  0.00  0.00    -0.294 OA
BRANCH   5   6
HETATM    6  C   UNK N   1      30.087  13.816   4.803  0.00  0.00     0.215 C 
BRANCH   6   7
HETATM    7  C   UNK N   1      30.232  15.304   5.149  0.00  0.00     0.180 C 
HETATM    8  C   UNK N   1      31.443  15.597   6.023  0.00  0.00     0.183 C 
HETATM    9  C   UNK N   1      31.061  16.975   6.501  0.00  0.00     0.214 C 
HETATM   10  C   UNK N   1      29.621  16.616   6.893  0.00  0.00     0.263 C 
HETATM   11  O   UNK N   1      29.101  15.794   5.852  0.00  0.00    -0.353 OA
BRANCH   8  12
HETATM   12  O   UNK N   1      32.630  15.577   5.295  0.00  0.00    -0.390 OA
HETATM   13  H   UNK N   1      32.956  16.236   4.663  0.00  0.00     0.210 HD
ENDBRANCH   8  12
BRANCH   9  14
HETATM   14  O   UNK N   1      31.757  17.571   7.589  0.00  0.00    -0.284 OA
BRANCH  14  15
HETATM   15  P   UNK N   1      33.511  17.588   7.491  0.00  0.00     0.391 P 
HETATM   16  O   UNK N   1      34.095  18.630   8.482  0.00  0.00    -0.632 OA
BRANCH  15  17
HETATM   17  O   UNK N   1      34.093  17.933   5.893  0.00  0.00    -0.307 OA
HETATM   18  H   UNK N   1      34.762  18.049   5.200  0.00  0.00     0.222 HD
ENDBRANCH  15  17
BRANCH  15  19
HETATM   19  O   UNK N   1      34.130  16.055   8.015  0.00  0.00    -0.307 OA
HETATM   20  H   UNK N   1      33.610  15.248   7.872  0.00  0.00     0.222 HD
ENDBRANCH  15  19
ENDBRANCH  14  15
ENDBRANCH   9  14
BRANCH  10  21
HETATM   21  N   UNK N   1      28.769  17.782   7.153  0.00  0.00    -0.297 N 
HETATM   22  C   UNK N   1      28.435  18.309   8.361  0.00  0.00     0.188 A 
HETATM   23  N   UNK N   1      27.694  19.446   8.220  0.00  0.00    -0.346 N 
HETATM   24  C   UNK N   1      27.581  19.610   6.889  0.00  0.00     0.122 A 
ATOM     25  HN  UNK N   1      27.311  20.038   8.958  1.00  0.00     0.167 HD
HETATM   26  C   UNK N   1      26.958  20.613   6.161  0.00  0.00     0.131 A 
HETATM   27  C   UNK N   1      28.220  18.612   6.251  0.00  0.00     0.142 A 
HETATM   28  N   UNK N   1      27.004  20.539   4.797  0.00  0.00    -0.337 N 
HETATM   29  C   UNK N   1      27.659  19.508   4.167  0.00  0.00     0.183 A 
ATOM     30  HN  UNK N   1      26.548  21.259   4.238  1.00  0.00     0.168 HD
HETATM   31  N   UNK N   1      28.285  18.538   4.901  0.00  0.00    -0.336 N 
ATOM     32  HN  UNK N   1      28.788  17.778   4.442  1.00  0.00     0.168 HD
BRANCH  26  33
HETATM   33  N   UNK N   1      26.306  21.687   6.798  0.00  0.00    -0.383 N 
HETATM   34  H   UNK N   1      25.929  21.633   7.705  0.00  0.00     0.157 HD
HETATM   35  H   UNK N   1      26.223  22.537   6.309  0.00  0.00     0.157 HD
ENDBRANCH  26  33
ENDBRANCH  10  21
ENDBRANCH   6   7
ENDBRANCH   5   6
ENDBRANCH   2   5
BRANCH   2  36
HETATM   36  O   UNK N   1      26.519  13.611   2.862  0.00  0.00    -0.195 OA
BRANCH  36  37
HETATM   37  P   UNK N   1      26.247  15.169   3.567  0.00  0.00     0.401 P 
HETATM   38  O   UNK N   1      27.372  16.092   3.016  0.00  0.00    -0.631 OA
BRANCH  37  39
HETATM   39  O   UNK N   1      26.424  15.171   5.294  0.00  0.00    -0.307 OA
HETATM   40  H   UNK N   1      26.587  15.618   6.139  0.00  0.00     0.222 HD
ENDBRANCH  37  39
BRANCH  37  41
HETATM   41  O   UNK N   1      24.678  15.800   3.123  0.00  0.00    -0.294 OA
BRANCH  41  42
HETATM   42  C   UNK N   1      24.064  16.193   4.300  0.00  0.00     0.215 C 
BRANCH  42  43
HETATM   43  C   UNK N   1      22.583  15.821   4.328  0.00  0.00     0.180 C 
HETATM   44  C   UNK N   1      21.663  16.993   3.947  0.00  0.00     0.182 C 
HETATM   45  C   UNK N   1      20.677  17.005   5.102  0.00  0.00     0.198 C 
HETATM   46  C   UNK N   1      21.659  16.613   6.196  0.00  0.00     0.257 C 
HETATM   47  O   UNK N   1      22.330  15.504   5.666  0.00  0.00    -0.354 OA
BRANCH  44  48
HETATM   48  O   UNK N   1      21.051  16.827   2.701  0.00  0.00    -0.390 OA
HETATM   49  H   UNK N   1      21.452  16.680   1.830  0.00  0.00     0.210 HD
ENDBRANCH  44  48
BRANCH  45  50
HETATM   50  O   UNK N   1      19.719  15.997   4.943  0.00  0.00    -0.388 OA
HETATM   51  H   UNK N   1      19.194  15.184   4.878  0.00  0.00     0.210 HD
ENDBRANCH  45  50
BRANCH  46  52
HETATM   52  N   UNK N   1      21.121  16.252   7.492  0.00  0.00    -0.332 N 
HETATM   53  C   UNK N   1      20.280  17.243   8.097  0.00  0.00     0.102 C 
HETATM   54  C   UNK N   1      19.317  16.945   8.971  0.00  0.00     0.010 C 
HETATM   55  C   UNK N   1      19.055  15.506   9.324  0.00  0.00     0.080 C 
HETATM   56  C   UNK N   1      20.373  14.738   9.300  0.00  0.00     0.171 C 
HETATM   57  C   UNK N   1      21.027  14.854   7.907  0.00  0.00     0.251 C 
BRANCH  54  58
HETATM   58  C   UNK N   1      18.501  18.043   9.537  0.00  0.00     0.141 C 
BRANCH  58  59
HETATM   59  N   UNK N   1      17.222  17.985   9.502  0.00  0.00    -0.380 N 
HETATM   60  H   UNK N   1      16.747  17.663   8.702  0.00  0.00     0.158 HD
ATOM     61  HN  UNK N   1      16.685  18.279  10.319  1.00  0.00     0.158 HD
ENDBRANCH  58  59
BRANCH  58  62
HETATM   62  O   UNK N   1      19.103  19.116  10.092  0.00  0.00    -0.346 OA
HETATM   63  H   UNK N   1      18.989  19.979   9.743  0.00  0.00     0.219 HD
ENDBRANCH  58  62
ENDBRANCH  54  58
BRANCH  56  64
HETATM   64  O   UNK N   1      20.154  13.400   9.630  0.00  0.00    -0.391 OA
HETATM   65  H   UNK N   1      20.233  13.079  10.542  0.00  0.00     0.210 HD
ENDBRANCH  56  64
BRANCH  57  66
HETATM   66  O   UNK N   1      20.286  14.137   6.963  0.00  0.00    -0.374 OA
HETATM   67  H   UNK N   1      20.024  13.461   6.320  0.00  0.00     0.212 HD
ENDBRANCH  57  66
ENDBRANCH  46  52
ENDBRANCH  42  43
ENDBRANCH  41  42
ENDBRANCH  37  41
ENDBRANCH  36  37
ENDBRANCH   2  36
TORSDOF 25
ENDMDL
MODEL 4
REMARK VINA RESULT:      -7.0      3.482      7.164
REMARK  25 active torsions:
REMARK  status: ('A' for Active; 'I' for Inactive)
REMARK    1  A    between atoms: C_9  and  C_3 
REMARK    2  A    between atoms: O_46  and  C_3 
REMARK    3  A    between atoms: C_10  and  C_4 
REMARK    4  A    between atoms: O_47  and  C_4 
REMARK    5  A    between atoms: C_17  and  C_7 
REMARK    6  A    between atoms: C_8  and  O_33 
REMARK    7  A    between atoms: C_12  and  O_34 
REMARK    8  A    between atoms: C_13  and  O_35 
REMARK    9  A    between atoms: C_14  and  O_36 
REMARK   10  A    between atoms: C_15  and  O_50 
REMARK   11  A    between atoms: N_22  and  C_16 
REMARK   12  A    between atoms: N_23  and  C_17 
REMARK   13  A    between atoms: O_37  and  C_17 
REMARK   14  A    between atoms: C_19  and  O_38 
REMARK   15  A    between atoms: C_20  and  N_31 
REMARK   16  A    between atoms: C_21  and  N_32 
REMARK   17  A    between atoms: P_52  and  O_39 
REMARK   18  A    between atoms: P_52  and  O_40 
REMARK   19  A    between atoms: P_53  and  O_42 
REMARK   20  A    between atoms: P_54  and  O_44 
REMARK   21  A    between atoms: P_53  and  O_46 
REMARK   22  A    between atoms: P_54  and  O_47 
REMARK   23  A    between atoms: P_52  and  O_50 
REMARK   24  A    between atoms: P_53  and  O_51 
REMARK   25  A    between atoms: P_54  and  O_51 
ROOT
HETATM    1  O   UNK N   1      18.058  11.882   4.018  0.00  0.00    -0.631 OA
HETATM    2  P   UNK N   1      19.464  12.310   4.511  0.00  0.00     0.401 P 
ENDROOT
BRANCH   2   3
HETATM    3  O   UNK N   1      19.987  10.976   5.494  0.00  0.00    -0.307 OA
HETATM    4  H   UNK N   1      20.557  10.217   5.695  0.00  0.00     0.222 HD
ENDBRANCH   2   3
BRANCH   2   5
HETATM    5  O   UNK N   1      19.186  13.809   5.376  0.00  0.00    -0.294 OA
BRANCH   5   6
HETATM    6  C   UNK N   1      18.956  14.854   4.462  0.00  0.00     0.215 C 
BRANCH   6   7
HETATM    7  C   UNK N   1      19.973  15.998   4.568  0.00  0.00     0.180 C 
HETATM    8  C   UNK N   1      19.920  16.954   3.385  0.00  0.00     0.183 C 
HETATM    9  C   UNK N   1      21.246  17.646   3.581  0.00  0.00     0.214 C 
HETATM   10  C   UNK N   1      22.067  16.365   3.783  0.00  0.00     0.263 C 
HETATM   11  O   UNK N   1      21.305  15.513   4.633  0.00  0.00    -0.353 OA
BRANCH   8  12
HETATM   12  O   UNK N   1      18.832  17.820   3.461  0.00  0.00    -0.390 OA
HETATM   13  H   UNK N   1      17.897  17.597   3.589  0.00  0.00     0.210 HD
ENDBRANCH   8  12
BRANCH   9  14
HETATM   14  O   UNK N   1      21.792  18.449   2.543  0.00  0.00    -0.284 OA
BRANCH  14  15
HETATM   15  P   UNK N   1      21.380  20.157   2.563  0.00  0.00     0.391 P 
HETATM   16  O   UNK N   1      22.662  21.018   2.712  0.00  0.00    -0.632 OA
BRANCH  15  17
HETATM   17  O   UNK N   1      20.269  20.565   3.833  0.00  0.00    -0.307 OA
HETATM   18  H   UNK N   1      19.400  20.645   4.258  0.00  0.00     0.222 HD
ENDBRANCH  15  17
BRANCH  15  19
HETATM   19  O   UNK N   1      20.698  20.601   1.032  0.00  0.00    -0.307 OA
HETATM   20  H   UNK N   1      21.260  21.001   0.349  0.00  0.00     0.222 HD
ENDBRANCH  15  19
ENDBRANCH  14  15
ENDBRANCH   9  14
BRANCH  10  21
HETATM   21  N   UNK N   1      23.418  16.603   4.306  0.00  0.00    -0.297 N 
HETATM   22  C   UNK N   1      23.756  17.120   5.517  0.00  0.00     0.188 A 
HETATM   23  N   UNK N   1      25.109  17.118   5.699  0.00  0.00    -0.346 N 
HETATM   24  C   UNK N   1      25.597  16.583   4.565  0.00  0.00     0.122 A 
ATOM     25  HN  UNK N   1      25.630  17.450   6.510  1.00  0.00     0.167 HD
HETATM   26  C   UNK N   1      26.908  16.309   4.198  0.00  0.00     0.131 A 
HETATM   27  C   UNK N   1      24.586  16.278   3.730  0.00  0.00     0.142 A 
HETATM   28  N   UNK N   1      27.125  15.744   2.973  0.00  0.00    -0.337 N 
HETATM   29  C   UNK N   1      26.078  15.446   2.135  0.00  0.00     0.183 A 
ATOM     30  HN  UNK N   1      28.079  15.540   2.676  1.00  0.00     0.168 HD
HETATM   31  N   UNK N   1      24.791  15.705   2.522  0.00  0.00    -0.336 N 
ATOM     32  HN  UNK N   1      24.006  15.472   1.913  1.00  0.00     0.168 HD
BRANCH  26  33
HETATM   33  N   UNK N   1      27.986  16.587   5.060  0.00  0.00    -0.383 N 
HETATM   34  H   UNK N   1      28.440  17.459   5.099  0.00  0.00     0.157 HD
HETATM   35  H   UNK N   1      28.302  15.870   5.656  0.00  0.00     0.157 HD
ENDBRANCH  26  33
ENDBRANCH  10  21
ENDBRANCH   6   7
ENDBRANCH   5   6
ENDBRANCH   2   5
BRANCH   2  36
HETATM   36  O   UNK N   1      20.397  12.472   3.061  0.00  0.00    -0.195 OA
BRANCH  36  37
HETATM   37  P   UNK N   1      21.102  10.912   2.801  0.00  0.00     0.401 P 
HETATM   38  O   UNK N   1      21.795  10.981   1.409  0.00  0.00    -0.631 OA
BRANCH  37  39
HETATM   39  O   UNK N   1      19.920   9.645   2.689  0.00  0.00    -0.307 OA
HETATM   40  H   UNK N   1      19.284   9.028   3.084  0.00  0.00     0.222 HD
ENDBRANCH  37  39
BRANCH  37  41
HETATM   41  O   UNK N   1      22.275  10.531   4.040  0.00  0.00    -0.294 OA
BRANCH  41  42
HETATM   42  C   UNK N   1      23.474  11.089   3.631  0.00  0.00     0.215 C 
BRANCH  42  43
HETATM   43  C   UNK N   1      23.843  12.323   4.452  0.00  0.00     0.180 C 
HETATM   44  C   UNK N   1      25.226  12.210   5.116  0.00  0.00     0.182 C 
HETATM   45  C   UNK N   1      24.907  12.549   6.562  0.00  0.00     0.198 C 
HETATM   46  C   UNK N   1      23.539  11.885   6.617  0.00  0.00     0.257 C 
HETATM   47  O   UNK N   1      22.887  12.359   5.471  0.00  0.00    -0.354 OA
BRANCH  44  48
HETATM   48  O   UNK N   1      26.178  13.061   4.547  0.00  0.00    -0.390 OA
HETATM   49  H   UNK N   1      26.405  13.199   3.614  0.00  0.00     0.210 HD
ENDBRANCH  44  48
BRANCH  45  50
HETATM   50  O   UNK N   1      24.768  13.933   6.724  0.00  0.00    -0.388 OA
HETATM   51  H   UNK N   1      24.640  14.849   7.015  0.00  0.00     0.210 HD
ENDBRANCH  45  50
BRANCH  46  52
HETATM   52  N   UNK N   1      22.703  12.152   7.769  0.00  0.00    -0.332 N 
HETATM   53  C   UNK N   1      23.300  11.847   9.036  0.00  0.00     0.102 C 
HETATM   54  C   UNK N   1      22.955  12.460  10.170  0.00  0.00     0.010 C 
HETATM   55  C   UNK N   1      21.923  13.555  10.137  0.00  0.00     0.080 C 
HETATM   56  C   UNK N   1      20.891  13.235   9.060  0.00  0.00     0.171 C 
HETATM   57  C   UNK N   1      21.585  13.090   7.689  0.00  0.00     0.251 C 
BRANCH  54  58
HETATM   58  C   UNK N   1      23.634  12.074  11.427  0.00  0.00     0.141 C 
BRANCH  58  59
HETATM   59  N   UNK N   1      22.971  11.549  12.388  0.00  0.00    -0.380 N 
HETATM   60  H   UNK N   1      23.216  11.713  13.328  0.00  0.00     0.158 HD
ATOM     61  HN  UNK N   1      22.173  10.949  12.177  1.00  0.00     0.158 HD
ENDBRANCH  58  59
BRANCH  58  62
HETATM   62  O   UNK N   1      24.961  12.277  11.569  0.00  0.00    -0.346 OA
HETATM   63  H   UNK N   1      25.401  12.981  11.134  0.00  0.00     0.219 HD
ENDBRANCH  58  62
ENDBRANCH  54  58
BRANCH  56  64
HETATM   64  O   UNK N   1      19.920  14.236   9.015  0.00  0.00    -0.391 OA
HETATM   65  H   UNK N   1      20.106  15.113   8.644  0.00  0.00     0.210 HD
ENDBRANCH  56  64
BRANCH  57  66
HETATM   66  O   UNK N   1      22.051  14.333   7.248  0.00  0.00    -0.374 OA
HETATM   67  H   UNK N   1      22.621  15.103   7.103  0.00  0.00     0.212 HD
ENDBRANCH  57  66
ENDBRANCH  46  52
ENDBRANCH  42  43
ENDBRANCH  41  42
ENDBRANCH  37  41
ENDBRANCH  36  37
ENDBRANCH   2  36
TORSDOF 25
ENDMDL
MODEL 5
REMARK VINA RESULT:      -6.9      3.657      6.894
REMARK  25 active torsions:
REMARK  status: ('A' for Active; 'I' for Inactive)
REMARK    1  A    between atoms: C_9  and  C_3 
REMARK    2  A    between atoms: O_46  and  C_3 
REMARK    3  A    between atoms: C_10  and  C_4 
REMARK    4  A    between atoms: O_47  and  C_4 
REMARK    5  A    between atoms: C_17  and  C_7 
REMARK    6  A    between atoms: C_8  and  O_33 
REMARK    7  A    between atoms: C_12  and  O_34 
REMARK    8  A    between atoms: C_13  and  O_35 
REMARK    9  A    between atoms: C_14  and  O_36 
REMARK   10  A    between atoms: C_15  and  O_50 
REMARK   11  A    between atoms: N_22  and  C_16 
REMARK   12  A    between atoms: N_23  and  C_17 
REMARK   13  A    between atoms: O_37  and  C_17 
REMARK   14  A    between atoms: C_19  and  O_38 
REMARK   15  A    between atoms: C_20  and  N_31 
REMARK   16  A    between atoms: C_21  and  N_32 
REMARK   17  A    between atoms: P_52  and  O_39 
REMARK   18  A    between atoms: P_52  and  O_40 
REMARK   19  A    between atoms: P_53  and  O_42 
REMARK   20  A    between atoms: P_54  and  O_44 
REMARK   21  A    between atoms: P_53  and  O_46 
REMARK   22  A    between atoms: P_54  and  O_47 
REMARK   23  A    between atoms: P_52  and  O_50 
REMARK   24  A    between atoms: P_53  and  O_51 
REMARK   25  A    between atoms: P_54  and  O_51 
ROOT
HETATM    1  O   UNK N   1      27.325  21.662   5.923  0.00  0.00    -0.631 OA
HETATM    2  P   UNK N   1      26.657  20.395   6.515  0.00  0.00     0.401 P 
ENDROOT
BRANCH   2   3
HETATM    3  O   UNK N   1      26.063  20.919   8.062  0.00  0.00    -0.307 OA
HETATM    4  H   UNK N   1      25.578  21.522   8.647  0.00  0.00     0.222 HD
ENDBRANCH   2   3
BRANCH   2   5
HETATM    5  O   UNK N   1      27.946  19.208   6.576  0.00  0.00    -0.294 OA
BRANCH   5   6
HETATM    6  C   UNK N   1      27.961  18.581   7.836  0.00  0.00     0.215 C 
BRANCH   6   7
HETATM    7  C   UNK N   1      29.130  17.606   8.024  0.00  0.00     0.180 C 
HETATM    8  C   UNK N   1      30.330  18.239   8.714  0.00  0.00     0.183 C 
HETATM    9  C   UNK N   1      31.374  17.209   8.364  0.00  0.00     0.214 C 
HETATM   10  C   UNK N   1      31.022  17.124   6.872  0.00  0.00     0.263 C 
HETATM   11  O   UNK N   1      29.600  17.103   6.782  0.00  0.00    -0.353 OA
BRANCH   8  12
HETATM   12  O   UNK N   1      30.132  18.375  10.085  0.00  0.00    -0.390 OA
HETATM   13  H   UNK N   1      30.607  17.934  10.806  0.00  0.00     0.210 HD
ENDBRANCH   8  12
BRANCH   9  14
HETATM   14  O   UNK N   1      32.753  17.500   8.550  0.00  0.00    -0.284 OA
BRANCH  14  15
HETATM   15  P   UNK N   1      33.714  16.282   9.376  0.00  0.00     0.391 P 
HETATM   16  O   UNK N   1      34.609  15.522   8.360  0.00  0.00    -0.632 OA
BRANCH  15  17
HETATM   17  O   UNK N   1      32.744  15.138  10.249  0.00  0.00    -0.307 OA
HETATM   18  H   UNK N   1      32.298  14.290  10.402  0.00  0.00     0.222 HD
ENDBRANCH  15  17
BRANCH  15  19
HETATM   19  O   UNK N   1      34.813  17.062  10.467  0.00  0.00    -0.307 OA
HETATM   20  H   UNK N   1      35.768  16.915  10.381  0.00  0.00     0.222 HD
ENDBRANCH  15  19
ENDBRANCH  14  15
ENDBRANCH   9  14
BRANCH  10  21
HETATM   21  N   UNK N   1      31.635  15.983   6.182  0.00  0.00    -0.297 N 
HETATM   22  C   UNK N   1      31.679  14.690   6.600  0.00  0.00     0.188 A 
HETATM   23  N   UNK N   1      32.256  13.883   5.663  0.00  0.00    -0.346 N 
HETATM   24  C   UNK N   1      32.565  14.714   4.651  0.00  0.00     0.122 A 
ATOM     25  HN  UNK N   1      32.417  12.877   5.719  1.00  0.00     0.167 HD
HETATM   26  C   UNK N   1      33.146  14.446   3.419  0.00  0.00     0.131 A 
HETATM   27  C   UNK N   1      32.198  15.971   4.963  0.00  0.00     0.142 A 
HETATM   28  N   UNK N   1      33.341  15.491   2.561  0.00  0.00    -0.337 N 
HETATM   29  C   UNK N   1      32.962  16.766   2.903  0.00  0.00     0.183 A 
ATOM     30  HN  UNK N   1      33.772  15.322   1.652  1.00  0.00     0.168 HD
HETATM   31  N   UNK N   1      32.372  17.010   4.113  0.00  0.00    -0.336 N 
ATOM     32  HN  UNK N   1      32.073  17.951   4.369  1.00  0.00     0.168 HD
BRANCH  26  33
HETATM   33  N   UNK N   1      33.514  13.137   3.050  0.00  0.00    -0.383 N 
HETATM   34  H   UNK N   1      34.391  12.740   3.255  0.00  0.00     0.157 HD
HETATM   35  H   UNK N   1      32.859  12.590   2.559  0.00  0.00     0.157 HD
ENDBRANCH  26  33
ENDBRANCH  10  21
ENDBRANCH   6   7
ENDBRANCH   5   6
ENDBRANCH   2   5
BRANCH   2  36
HETATM   36  O   UNK N   1      25.380  20.022   5.406  0.00  0.00    -0.195 OA
BRANCH  36  37
HETATM   37  P   UNK N   1      26.177  19.503   3.959  0.00  0.00     0.401 P 
HETATM   38  O   UNK N   1      26.144  17.947   3.985  0.00  0.00    -0.631 OA
BRANCH  37  39
HETATM   39  O   UNK N   1      27.854  19.949   3.911  0.00  0.00    -0.307 OA
HETATM   40  H   UNK N   1      28.664  20.190   3.435  0.00  0.00     0.222 HD
ENDBRANCH  37  39
BRANCH  37  41
HETATM   41  O   UNK N   1      25.356  20.098   2.534  0.00  0.00    -0.294 OA
BRANCH  41  42
HETATM   42  C   UNK N   1      24.223  20.757   2.980  0.00  0.00     0.215 C 
BRANCH  42  43
HETATM   43  C   UNK N   1      22.940  20.049   2.550  0.00  0.00     0.180 C 
HETATM   44  C   UNK N   1      21.669  20.831   2.923  0.00  0.00     0.182 C 
HETATM   45  C   UNK N   1      20.852  19.775   3.644  0.00  0.00     0.198 C 
HETATM   46  C   UNK N   1      22.013  19.064   4.323  0.00  0.00     0.257 C 
HETATM   47  O   UNK N   1      22.936  18.861   3.289  0.00  0.00    -0.354 OA
BRANCH  44  48
HETATM   48  O   UNK N   1      21.014  21.372   1.812  0.00  0.00    -0.390 OA
HETATM   49  H   UNK N   1      20.219  21.926   1.773  0.00  0.00     0.210 HD
ENDBRANCH  44  48
BRANCH  45  50
HETATM   50  O   UNK N   1      20.240  18.912   2.727  0.00  0.00    -0.388 OA
HETATM   51  H   UNK N   1      19.681  18.306   2.217  0.00  0.00     0.210 HD
ENDBRANCH  45  50
BRANCH  46  52
HETATM   52  N   UNK N   1      21.748  17.791   4.963  0.00  0.00    -0.332 N 
HETATM   53  C   UNK N   1      22.770  16.802   4.791  0.00  0.00     0.102 C 
HETATM   54  C   UNK N   1      22.981  15.813   5.662  0.00  0.00     0.010 C 
HETATM   55  C   UNK N   1      22.147  15.738   6.913  0.00  0.00     0.080 C 
HETATM   56  C   UNK N   1      20.740  16.241   6.606  0.00  0.00     0.171 C 
HETATM   57  C   UNK N   1      20.801  17.686   6.070  0.00  0.00     0.251 C 
BRANCH  54  58
HETATM   58  C   UNK N   1      24.065  14.843   5.394  0.00  0.00     0.141 C 
BRANCH  58  59
HETATM   59  N   UNK N   1      23.885  13.593   5.608  0.00  0.00    -0.380 N 
HETATM   60  H   UNK N   1      24.052  12.924   4.904  0.00  0.00     0.158 HD
ATOM     61  HN  UNK N   1      23.560  13.283   6.525  1.00  0.00     0.158 HD
ENDBRANCH  58  59
BRANCH  58  62
HETATM   62  O   UNK N   1      25.256  15.271   4.926  0.00  0.00    -0.346 OA
HETATM   63  H   UNK N   1      25.977  14.684   4.802  0.00  0.00     0.219 HD
ENDBRANCH  58  62
ENDBRANCH  54  58
BRANCH  56  64
HETATM   64  O   UNK N   1      19.947  16.174   7.752  0.00  0.00    -0.391 OA
HETATM   65  H   UNK N   1      19.032  16.496   7.759  0.00  0.00     0.210 HD
ENDBRANCH  56  64
BRANCH  57  66
HETATM   66  O   UNK N   1      21.178  18.565   7.090  0.00  0.00    -0.374 OA
HETATM   67  H   UNK N   1      21.690  18.994   7.793  0.00  0.00     0.212 HD
ENDBRANCH  57  66
ENDBRANCH  46  52
ENDBRANCH  42  43
ENDBRANCH  41  42
ENDBRANCH  37  41
ENDBRANCH  36  37
ENDBRANCH   2  36
TORSDOF 25
ENDMDL
MODEL 6
REMARK VINA RESULT:      -6.9      2.557      8.630
REMARK  25 active torsions:
REMARK  status: ('A' for Active; 'I' for Inactive)
REMARK    1  A    between atoms: C_9  and  C_3 
REMARK    2  A    between atoms: O_46  and  C_3 
REMARK    3  A    between atoms: C_10  and  C_4 
REMARK    4  A    between atoms: O_47  and  C_4 
REMARK    5  A    between atoms: C_17  and  C_7 
REMARK    6  A    between atoms: C_8  and  O_33 
REMARK    7  A    between atoms: C_12  and  O_34 
REMARK    8  A    between atoms: C_13  and  O_35 
REMARK    9  A    between atoms: C_14  and  O_36 
REMARK   10  A    between atoms: C_15  and  O_50 
REMARK   11  A    between atoms: N_22  and  C_16 
REMARK   12  A    between atoms: N_23  and  C_17 
REMARK   13  A    between atoms: O_37  and  C_17 
REMARK   14  A    between atoms: C_19  and  O_38 
REMARK   15  A    between atoms: C_20  and  N_31 
REMARK   16  A    between atoms: C_21  and  N_32 
REMARK   17  A    between atoms: P_52  and  O_39 
REMARK   18  A    between atoms: P_52  and  O_40 
REMARK   19  A    between atoms: P_53  and  O_42 
REMARK   20  A    between atoms: P_54  and  O_44 
REMARK   21  A    between atoms: P_53  and  O_46 
REMARK   22  A    between atoms: P_54  and  O_47 
REMARK   23  A    between atoms: P_52  and  O_50 
REMARK   24  A    between atoms: P_53  and  O_51 
REMARK   25  A    between atoms: P_54  and  O_51 
ROOT
HETATM    1  O   UNK N   1      24.457  11.886   6.845  0.00  0.00    -0.631 OA
HETATM    2  P   UNK N   1      24.778  13.200   6.089  0.00  0.00     0.401 P 
ENDROOT
BRANCH   2   3
HETATM    3  O   UNK N   1      26.427  12.998   5.579  0.00  0.00    -0.307 OA
HETATM    4  H   UNK N   1      27.141  13.015   4.923  0.00  0.00     0.222 HD
ENDBRANCH   2   3
BRANCH   2   5
HETATM    5  O   UNK N   1      24.515  14.463   7.276  0.00  0.00    -0.294 OA
BRANCH   5   6
HETATM    6  C   UNK N   1      23.322  14.216   7.981  0.00  0.00     0.215 C 
BRANCH   6   7
HETATM    7  C   UNK N   1      22.127  15.030   7.469  0.00  0.00     0.180 C 
HETATM    8  C   UNK N   1      20.971  14.159   6.996  0.00  0.00     0.183 C 
HETATM    9  C   UNK N   1      20.204  15.192   6.208  0.00  0.00     0.214 C 
HETATM   10  C   UNK N   1      21.415  15.735   5.436  0.00  0.00     0.263 C 
HETATM   11  O   UNK N   1      22.483  15.854   6.370  0.00  0.00    -0.353 OA
BRANCH   8  12
HETATM   12  O   UNK N   1      20.246  13.632   8.061  0.00  0.00    -0.390 OA
HETATM   13  H   UNK N   1      19.846  12.751   8.136  0.00  0.00     0.210 HD
ENDBRANCH   8  12
BRANCH   9  14
HETATM   14  O   UNK N   1      19.168  14.788   5.323  0.00  0.00    -0.284 OA
BRANCH  14  15
HETATM   15  P   UNK N   1      19.390  13.254   4.494  0.00  0.00     0.391 P 
HETATM   16  O   UNK N   1      19.392  12.085   5.515  0.00  0.00    -0.632 OA
BRANCH  15  17
HETATM   17  O   UNK N   1      20.852  13.199   3.561  0.00  0.00    -0.307 OA
HETATM   18  H   UNK N   1      21.595  13.567   3.056  0.00  0.00     0.222 HD
ENDBRANCH  15  17
BRANCH  15  19
HETATM   19  O   UNK N   1      18.030  12.961   3.459  0.00  0.00    -0.307 OA
HETATM   20  H   UNK N   1      18.002  13.352   2.572  0.00  0.00     0.222 HD
ENDBRANCH  15  19
ENDBRANCH  14  15
ENDBRANCH   9  14
BRANCH  10  21
HETATM   21  N   UNK N   1      21.152  16.997   4.733  0.00  0.00    -0.297 N 
HETATM   22  C   UNK N   1      21.324  18.259   5.208  0.00  0.00     0.188 A 
HETATM   23  N   UNK N   1      21.060  19.192   4.248  0.00  0.00    -0.346 N 
HETATM   24  C   UNK N   1      20.722  18.470   3.164  0.00  0.00     0.122 A 
ATOM     25  HN  UNK N   1      21.107  20.208   4.334  1.00  0.00     0.167 HD
HETATM   26  C   UNK N   1      20.380  18.885   1.884  0.00  0.00     0.131 A 
HETATM   27  C   UNK N   1      20.772  17.157   3.455  0.00  0.00     0.142 A 
HETATM   28  N   UNK N   1      20.087  17.925   0.956  0.00  0.00    -0.337 N 
HETATM   29  C   UNK N   1      20.141  16.591   1.278  0.00  0.00     0.183 A 
ATOM     30  HN  UNK N   1      19.825  18.204   0.011  1.00  0.00     0.168 HD
HETATM   31  N   UNK N   1      20.499  16.199   2.539  0.00  0.00    -0.336 N 
ATOM     32  HN  UNK N   1      20.558  15.210   2.782  1.00  0.00     0.168 HD
BRANCH  26  33
HETATM   33  N   UNK N   1      20.347  20.250   1.538  0.00  0.00    -0.383 N 
HETATM   34  H   UNK N   1      19.544  20.813   1.621  0.00  0.00     0.157 HD
HETATM   35  H   UNK N   1      21.172  20.663   1.195  0.00  0.00     0.157 HD
ENDBRANCH  26  33
ENDBRANCH  10  21
ENDBRANCH   6   7
ENDBRANCH   5   6
ENDBRANCH   2   5
BRANCH   2  36
HETATM   36  O   UNK N   1      23.670  13.213   4.759  0.00  0.00    -0.195 OA
BRANCH  36  37
HETATM   37  P   UNK N   1      24.405  14.235   3.569  0.00  0.00     0.401 P 
HETATM   38  O   UNK N   1      23.251  14.705   2.635  0.00  0.00    -0.631 OA
BRANCH  37  39
HETATM   39  O   UNK N   1      25.533  13.390   2.554  0.00  0.00    -0.307 OA
HETATM   40  H   UNK N   1      26.201  12.704   2.401  0.00  0.00     0.222 HD
ENDBRANCH  37  39
BRANCH  37  41
HETATM   41  O   UNK N   1      25.181  15.615   4.310  0.00  0.00    -0.294 OA
BRANCH  41  42
HETATM   42  C   UNK N   1      24.648  16.739   3.702  0.00  0.00     0.215 C 
BRANCH  42  43
HETATM   43  C   UNK N   1      25.063  18.027   4.411  0.00  0.00     0.180 C 
HETATM   44  C   UNK N   1      25.474  19.143   3.436  0.00  0.00     0.182 C 
HETATM   45  C   UNK N   1      26.827  19.558   3.987  0.00  0.00     0.198 C 
HETATM   46  C   UNK N   1      27.288  18.175   4.424  0.00  0.00     0.257 C 
HETATM   47  O   UNK N   1      26.199  17.667   5.144  0.00  0.00    -0.354 OA
BRANCH  44  48
HETATM   48  O   UNK N   1      24.553  20.193   3.386  0.00  0.00    -0.390 OA
HETATM   49  H   UNK N   1      24.693  21.128   3.169  0.00  0.00     0.210 HD
ENDBRANCH  44  48
BRANCH  45  50
HETATM   50  O   UNK N   1      26.670  20.381   5.109  0.00  0.00    -0.388 OA
HETATM   51  H   UNK N   1      26.748  20.959   5.883  0.00  0.00     0.210 HD
ENDBRANCH  45  50
BRANCH  46  52
HETATM   52  N   UNK N   1      28.472  18.087   5.254  0.00  0.00    -0.332 N 
HETATM   53  C   UNK N   1      28.251  18.308   6.652  0.00  0.00     0.102 C 
HETATM   54  C   UNK N   1      29.031  17.792   7.604  0.00  0.00     0.010 C 
HETATM   55  C   UNK N   1      30.179  16.898   7.217  0.00  0.00     0.080 C 
HETATM   56  C   UNK N   1      30.755  17.373   5.887  0.00  0.00     0.171 C 
HETATM   57  C   UNK N   1      29.658  17.362   4.802  0.00  0.00     0.251 C 
BRANCH  54  58
HETATM   58  C   UNK N   1      28.716  18.078   9.021  0.00  0.00     0.141 C 
BRANCH  58  59
HETATM   59  N   UNK N   1      29.656  18.218   9.880  0.00  0.00    -0.380 N 
HETATM   60  H   UNK N   1      30.060  19.099  10.056  0.00  0.00     0.158 HD
ATOM     61  HN  UNK N   1      29.994  17.402  10.390  1.00  0.00     0.158 HD
ENDBRANCH  58  59
BRANCH  58  62
HETATM   62  O   UNK N   1      27.431  18.189   9.419  0.00  0.00    -0.346 OA
HETATM   63  H   UNK N   1      26.968  17.466   9.794  0.00  0.00     0.219 HD
ENDBRANCH  58  62
ENDBRANCH  54  58
BRANCH  56  64
HETATM   64  O   UNK N   1      31.826  16.561   5.511  0.00  0.00    -0.391 OA
HETATM   65  H   UNK N   1      31.994  16.334   4.583  0.00  0.00     0.210 HD
ENDBRANCH  56  64
BRANCH  57  66
HETATM   66  O   UNK N   1      29.305  16.047   4.482  0.00  0.00    -0.374 OA
HETATM   67  H   UNK N   1      29.173  15.224   3.988  0.00  0.00     0.212 HD
ENDBRANCH  57  66
ENDBRANCH  46  52
ENDBRANCH  42  43
ENDBRANCH  41  42
ENDBRANCH  37  41
ENDBRANCH  36  37
ENDBRANCH   2  36
TORSDOF 25
ENDMDL
MODEL 7
REMARK VINA RESULT:      -6.9      3.765      8.745
REMARK  25 active torsions:
REMARK  status: ('A' for Active; 'I' for Inactive)
REMARK    1  A    between atoms: C_9  and  C_3 
REMARK    2  A    between atoms: O_46  and  C_3 
REMARK    3  A    between atoms: C_10  and  C_4 
REMARK    4  A    between atoms: O_47  and  C_4 
REMARK    5  A    between atoms: C_17  and  C_7 
REMARK    6  A    between atoms: C_8  and  O_33 
REMARK    7  A    between atoms: C_12  and  O_34 
REMARK    8  A    between atoms: C_13  and  O_35 
REMARK    9  A    between atoms: C_14  and  O_36 
REMARK   10  A    between atoms: C_15  and  O_50 
REMARK   11  A    between atoms: N_22  and  C_16 
REMARK   12  A    between atoms: N_23  and  C_17 
REMARK   13  A    between atoms: O_37  and  C_17 
REMARK   14  A    between atoms: C_19  and  O_38 
REMARK   15  A    between atoms: C_20  and  N_31 
REMARK   16  A    between atoms: C_21  and  N_32 
REMARK   17  A    between atoms: P_52  and  O_39 
REMARK   18  A    between atoms: P_52  and  O_40 
REMARK   19  A    between atoms: P_53  and  O_42 
REMARK   20  A    between atoms: P_54  and  O_44 
REMARK   21  A    between atoms: P_53  and  O_46 
REMARK   22  A    between atoms: P_54  and  O_47 
REMARK   23  A    between atoms: P_52  and  O_50 
REMARK   24  A    between atoms: P_53  and  O_51 
REMARK   25  A    between atoms: P_54  and  O_51 
ROOT
HETATM    1  O   UNK N   1      25.244  15.670   4.997  0.00  0.00    -0.631 OA
HETATM    2  P   UNK N   1      25.152  14.881   3.667  0.00  0.00     0.401 P 
ENDROOT
BRANCH   2   3
HETATM    3  O   UNK N   1      25.717  16.009   2.471  0.00  0.00    -0.307 OA
HETATM    4  H   UNK N   1      25.667  16.835   1.965  0.00  0.00     0.222 HD
ENDBRANCH   2   3
BRANCH   2   5
HETATM    5  O   UNK N   1      23.460  14.441   3.535  0.00  0.00    -0.294 OA
BRANCH   5   6
HETATM    6  C   UNK N   1      23.247  13.178   4.117  0.00  0.00     0.215 C 
BRANCH   6   7
HETATM    7  C   UNK N   1      22.669  13.245   5.536  0.00  0.00     0.180 C 
HETATM    8  C   UNK N   1      22.062  14.601   5.869  0.00  0.00     0.183 C 
HETATM    9  C   UNK N   1      21.994  14.467   7.370  0.00  0.00     0.214 C 
HETATM   10  C   UNK N   1      23.430  13.954   7.550  0.00  0.00     0.263 C 
HETATM   11  O   UNK N   1      23.660  12.997   6.521  0.00  0.00    -0.353 OA
BRANCH   8  12
HETATM   12  O   UNK N   1      20.814  14.775   5.277  0.00  0.00    -0.390 OA
HETATM   13  H   UNK N   1      19.940  14.596   5.657  0.00  0.00     0.210 HD
ENDBRANCH   8  12
BRANCH   9  14
HETATM   14  O   UNK N   1      21.752  15.612   8.178  0.00  0.00    -0.284 OA
BRANCH  14  15
HETATM   15  P   UNK N   1      20.072  16.014   8.496  0.00  0.00     0.391 P 
HETATM   16  O   UNK N   1      19.964  17.442   9.095  0.00  0.00    -0.632 OA
BRANCH  15  17
HETATM   17  O   UNK N   1      19.302  14.887   9.569  0.00  0.00    -0.307 OA
HETATM   18  H   UNK N   1      18.887  14.593  10.395  0.00  0.00     0.222 HD
ENDBRANCH  15  17
BRANCH  15  19
HETATM   19  O   UNK N   1      19.202  16.075   6.997  0.00  0.00    -0.307 OA
HETATM   20  H   UNK N   1      19.562  15.636   6.210  0.00  0.00     0.222 HD
ENDBRANCH  15  19
ENDBRANCH  14  15
ENDBRANCH   9  14
BRANCH  10  21
HETATM   21  N   UNK N   1      23.700  13.406   8.885  0.00  0.00    -0.297 N 
HETATM   22  C   UNK N   1      24.894  13.359   9.533  0.00  0.00     0.188 A 
HETATM   23  N   UNK N   1      24.757  12.857  10.795  0.00  0.00    -0.346 N 
HETATM   24  C   UNK N   1      23.442  12.596  10.909  0.00  0.00     0.122 A 
ATOM     25  HN  UNK N   1      25.487  12.711  11.492  1.00  0.00     0.167 HD
HETATM   26  C   UNK N   1      22.719  12.098  11.984  0.00  0.00     0.131 A 
HETATM   27  C   UNK N   1      22.810  12.920   9.765  0.00  0.00     0.142 A 
HETATM   28  N   UNK N   1      21.370  11.938  11.831  0.00  0.00    -0.337 N 
HETATM   29  C   UNK N   1      20.748  12.271  10.652  0.00  0.00     0.183 A 
ATOM     30  HN  UNK N   1      20.817  11.567  12.603  1.00  0.00     0.168 HD
HETATM   31  N   UNK N   1      21.473  12.780   9.609  0.00  0.00    -0.336 N 
ATOM     32  HN  UNK N   1      21.017  13.046   8.736  1.00  0.00     0.168 HD
BRANCH  26  33
HETATM   33  N   UNK N   1      23.344  11.778  13.205  0.00  0.00    -0.383 N 
HETATM   34  H   UNK N   1      24.192  12.180  13.503  0.00  0.00     0.157 HD
HETATM   35  H   UNK N   1      22.911  11.117  13.791  0.00  0.00     0.157 HD
ENDBRANCH  26  33
ENDBRANCH  10  21
ENDBRANCH   6   7
ENDBRANCH   5   6
ENDBRANCH   2   5
BRANCH   2  36
HETATM   36  O   UNK N   1      26.233  13.545   3.882  0.00  0.00    -0.195 OA
BRANCH  36  37
HETATM   37  P   UNK N   1      26.785  13.150   2.289  0.00  0.00     0.401 P 
HETATM   38  O   UNK N   1      25.505  12.987   1.419  0.00  0.00    -0.631 OA
BRANCH  37  39
HETATM   39  O   UNK N   1      27.614  11.626   2.218  0.00  0.00    -0.307 OA
HETATM   40  H   UNK N   1      28.395  11.067   2.354  0.00  0.00     0.222 HD
ENDBRANCH  37  39
BRANCH  37  41
HETATM   41  O   UNK N   1      27.800  14.416   1.636  0.00  0.00    -0.294 OA
BRANCH  41  42
HETATM   42  C   UNK N   1      29.042  14.268   2.227  0.00  0.00     0.215 C 
BRANCH  42  43
HETATM   43  C   UNK N   1      29.683  15.614   2.561  0.00  0.00     0.180 C 
HETATM   44  C   UNK N   1      30.856  15.492   3.549  0.00  0.00     0.182 C 
HETATM   45  C   UNK N   1      30.481  16.514   4.607  0.00  0.00     0.198 C 
HETATM   46  C   UNK N   1      28.977  16.290   4.565  0.00  0.00     0.257 C 
HETATM   47  O   UNK N   1      28.667  16.333   3.199  0.00  0.00    -0.354 OA
BRANCH  44  48
HETATM   48  O   UNK N   1      32.099  15.741   2.957  0.00  0.00    -0.390 OA
HETATM   49  H   UNK N   1      32.867  15.156   2.864  0.00  0.00     0.210 HD
ENDBRANCH  44  48
BRANCH  45  50
HETATM   50  O   UNK N   1      30.780  17.809   4.170  0.00  0.00    -0.388 OA
HETATM   51  H   UNK N   1      31.164  18.647   3.868  0.00  0.00     0.210 HD
ENDBRANCH  45  50
BRANCH  46  52
HETATM   52  N   UNK N   1      28.131  17.239   5.260  0.00  0.00    -0.332 N 
HETATM   53  C   UNK N   1      28.369  17.345   6.669  0.00  0.00     0.102 C 
HETATM   54  C   UNK N   1      28.105  18.449   7.372  0.00  0.00     0.010 C 
HETATM   55  C   UNK N   1      27.570  19.666   6.666  0.00  0.00     0.080 C 
HETATM   56  C   UNK N   1      26.673  19.222   5.515  0.00  0.00     0.171 C 
HETATM   57  C   UNK N   1      27.467  18.325   4.542  0.00  0.00     0.251 C 
BRANCH  54  58
HETATM   58  C   UNK N   1      28.390  18.457   8.824  0.00  0.00     0.141 C 
BRANCH  58  59
HETATM   59  N   UNK N   1      29.492  18.937   9.266  0.00  0.00    -0.380 N 
HETATM   60  H   UNK N   1      29.578  19.246  10.197  0.00  0.00     0.158 HD
ATOM     61  HN  UNK N   1      30.297  19.000   8.641  1.00  0.00     0.158 HD
ENDBRANCH  58  59
BRANCH  58  62
HETATM   62  O   UNK N   1      27.489  17.954   9.693  0.00  0.00    -0.346 OA
HETATM   63  H   UNK N   1      27.386  18.307  10.555  0.00  0.00     0.219 HD
ENDBRANCH  58  62
ENDBRANCH  54  58
BRANCH  56  64
HETATM   64  O   UNK N   1      26.161  20.336   4.849  0.00  0.00    -0.391 OA
HETATM   65  H   UNK N   1      25.890  20.295   3.919  0.00  0.00     0.210 HD
ENDBRANCH  56  64
BRANCH  57  66
HETATM   66  O   UNK N   1      28.422  19.082   3.856  0.00  0.00    -0.374 OA
HETATM   67  H   UNK N   1      29.051  19.784   3.630  0.00  0.00     0.212 HD
ENDBRANCH  57  66
ENDBRANCH  46  52
ENDBRANCH  42  43
ENDBRANCH  41  42
ENDBRANCH  37  41
ENDBRANCH  36  37
ENDBRANCH   2  36
TORSDOF 25
ENDMDL
MODEL 8
REMARK VINA RESULT:      -6.8      3.373      6.182
REMARK  25 active torsions:
REMARK  status: ('A' for Active; 'I' for Inactive)
REMARK    1  A    between atoms: C_9  and  C_3 
REMARK    2  A    between atoms: O_46  and  C_3 
REMARK    3  A    between atoms: C_10  and  C_4 
REMARK    4  A    between atoms: O_47  and  C_4 
REMARK    5  A    between atoms: C_17  and  C_7 
REMARK    6  A    between atoms: C_8  and  O_33 
REMARK    7  A    between atoms: C_12  and  O_34 
REMARK    8  A    between atoms: C_13  and  O_35 
REMARK    9  A    between atoms: C_14  and  O_36 
REMARK   10  A    between atoms: C_15  and  O_50 
REMARK   11  A    between atoms: N_22  and  C_16 
REMARK   12  A    between atoms: N_23  and  C_17 
REMARK   13  A    between atoms: O_37  and  C_17 
REMARK   14  A    between atoms: C_19  and  O_38 
REMARK   15  A    between atoms: C_20  and  N_31 
REMARK   16  A    between atoms: C_21  and  N_32 
REMARK   17  A    between atoms: P_52  and  O_39 
REMARK   18  A    between atoms: P_52  and  O_40 
REMARK   19  A    between atoms: P_53  and  O_42 
REMARK   20  A    between atoms: P_54  and  O_44 
REMARK   21  A    between atoms: P_53  and  O_46 
REMARK   22  A    between atoms: P_54  and  O_47 
REMARK   23  A    between atoms: P_52  and  O_50 
REMARK   24  A    between atoms: P_53  and  O_51 
REMARK   25  A    between atoms: P_54  and  O_51 
ROOT
HETATM    1  O   UNK N   1      23.885  16.305   6.046  0.00  0.00    -0.631 OA
HETATM    2  P   UNK N   1      24.064  15.988   4.539  0.00  0.00     0.401 P 
ENDROOT
BRANCH   2   3
HETATM    3  O   UNK N   1      23.216  14.486   4.324  0.00  0.00    -0.307 OA
HETATM    4  H   UNK N   1      23.008  13.667   3.847  0.00  0.00     0.222 HD
ENDBRANCH   2   3
BRANCH   2   5
HETATM    5  O   UNK N   1      25.801  15.901   4.314  0.00  0.00    -0.294 OA
BRANCH   5   6
HETATM    6  C   UNK N   1      26.450  15.992   5.560  0.00  0.00     0.215 C 
BRANCH   6   7
HETATM    7  C   UNK N   1      27.909  16.455   5.460  0.00  0.00     0.180 C 
HETATM    8  C   UNK N   1      28.734  15.620   4.491  0.00  0.00     0.183 C 
HETATM    9  C   UNK N   1      30.114  16.035   4.938  0.00  0.00     0.214 C 
HETATM   10  C   UNK N   1      29.859  15.845   6.440  0.00  0.00     0.263 C 
HETATM   11  O   UNK N   1      28.571  16.385   6.714  0.00  0.00    -0.353 OA
BRANCH   8  12
HETATM   12  O   UNK N   1      28.467  15.944   3.164  0.00  0.00    -0.390 OA
HETATM   13  H   UNK N   1      28.733  16.738   2.675  0.00  0.00     0.210 HD
ENDBRANCH   8  12
BRANCH   9  14
HETATM   14  O   UNK N   1      31.252  15.298   4.512  0.00  0.00    -0.284 OA
BRANCH  14  15
HETATM   15  P   UNK N   1      32.510  16.197   3.676  0.00  0.00     0.391 P 
HETATM   16  O   UNK N   1      33.629  16.608   4.671  0.00  0.00    -0.632 OA
BRANCH  15  17
HETATM   17  O   UNK N   1      31.905  17.616   2.880  0.00  0.00    -0.307 OA
HETATM   18  H   UNK N   1      31.277  18.335   2.709  0.00  0.00     0.222 HD
ENDBRANCH  15  17
BRANCH  15  19
HETATM   19  O   UNK N   1      33.279  15.164   2.516  0.00  0.00    -0.307 OA
HETATM   20  H   UNK N   1      33.567  14.274   2.774  0.00  0.00     0.222 HD
ENDBRANCH  15  19
ENDBRANCH  14  15
ENDBRANCH   9  14
BRANCH  10  21
HETATM   21  N   UNK N   1      30.898  16.432   7.296  0.00  0.00    -0.297 N 
HETATM   22  C   UNK N   1      30.830  17.594   7.998  0.00  0.00     0.188 A 
HETATM   23  N   UNK N   1      31.951  17.785   8.753  0.00  0.00    -0.346 N 
HETATM   24  C   UNK N   1      32.713  16.706   8.499  0.00  0.00     0.122 A 
ATOM     25  HN  UNK N   1      32.163  18.570   9.369  1.00  0.00     0.167 HD
HETATM   26  C   UNK N   1      33.953  16.346   9.009  0.00  0.00     0.131 A 
HETATM   27  C   UNK N   1      32.085  15.898   7.624  0.00  0.00     0.142 A 
HETATM   28  N   UNK N   1      34.506  15.171   8.582  0.00  0.00    -0.337 N 
HETATM   29  C   UNK N   1      33.848  14.366   7.685  0.00  0.00     0.183 A 
ATOM     30  HN  UNK N   1      35.419  14.888   8.936  1.00  0.00     0.168 HD
HETATM   31  N   UNK N   1      32.617  14.726   7.208  0.00  0.00    -0.336 N 
ATOM     32  HN  UNK N   1      32.114  14.126   6.554  1.00  0.00     0.168 HD
BRANCH  26  33
HETATM   33  N   UNK N   1      34.623  17.153   9.949  0.00  0.00    -0.383 N 
HETATM   34  H   UNK N   1      34.252  17.382  10.831  0.00  0.00     0.157 HD
HETATM   35  H   UNK N   1      35.510  17.508   9.710  0.00  0.00     0.157 HD
ENDBRANCH  26  33
ENDBRANCH  10  21
ENDBRANCH   6   7
ENDBRANCH   5   6
ENDBRANCH   2   5
BRANCH   2  36
HETATM   36  O   UNK N   1      23.293  17.308   3.726  0.00  0.00    -0.195 OA
BRANCH  36  37
HETATM   37  P   UNK N   1      22.023  17.814   4.790  0.00  0.00     0.401 P 
HETATM   38  O   UNK N   1      21.164  18.829   3.981  0.00  0.00    -0.631 OA
BRANCH  37  39
HETATM   39  O   UNK N   1      22.607  18.675   6.180  0.00  0.00    -0.307 OA
HETATM   40  H   UNK N   1      22.475  19.243   6.955  0.00  0.00     0.222 HD
ENDBRANCH  37  39
BRANCH  37  41
HETATM   41  O   UNK N   1      21.040  16.458   5.293  0.00  0.00    -0.294 OA
BRANCH  41  42
HETATM   42  C   UNK N   1      20.311  16.886   6.389  0.00  0.00     0.215 C 
BRANCH  42  43
HETATM   43  C   UNK N   1      19.806  15.719   7.235  0.00  0.00     0.180 C 
HETATM   44  C   UNK N   1      19.652  16.077   8.723  0.00  0.00     0.182 C 
HETATM   45  C   UNK N   1      20.424  14.957   9.396  0.00  0.00     0.198 C 
HETATM   46  C   UNK N   1      21.517  14.819   8.346  0.00  0.00     0.257 C 
HETATM   47  O   UNK N   1      20.816  14.757   7.135  0.00  0.00    -0.354 OA
BRANCH  44  48
HETATM   48  O   UNK N   1      18.317  16.151   9.133  0.00  0.00    -0.390 OA
HETATM   49  H   UNK N   1      17.584  16.664   8.759  0.00  0.00     0.210 HD
ENDBRANCH  44  48
BRANCH  45  50
HETATM   50  O   UNK N   1      19.658  13.786   9.438  0.00  0.00    -0.388 OA
HETATM   51  H   UNK N   1      19.269  12.907   9.567  0.00  0.00     0.210 HD
ENDBRANCH  45  50
BRANCH  46  52
HETATM   52  N   UNK N   1      22.398  13.672   8.431  0.00  0.00    -0.332 N 
HETATM   53  C   UNK N   1      22.932  13.412   9.735  0.00  0.00     0.102 C 
HETATM   54  C   UNK N   1      23.307  12.197  10.140  0.00  0.00     0.010 C 
HETATM   55  C   UNK N   1      23.133  11.022   9.216  0.00  0.00     0.080 C 
HETATM   56  C   UNK N   1      23.345  11.482   7.777  0.00  0.00     0.171 C 
HETATM   57  C   UNK N   1      22.349  12.608   7.430  0.00  0.00     0.251 C 
BRANCH  54  58
HETATM   58  C   UNK N   1      23.845  12.034  11.508  0.00  0.00     0.141 C 
BRANCH  58  59
HETATM   59  N   UNK N   1      23.088  11.629  12.459  0.00  0.00    -0.380 N 
HETATM   60  H   UNK N   1      22.348  12.186  12.796  0.00  0.00     0.158 HD
ATOM     61  HN  UNK N   1      23.254  10.713  12.876  1.00  0.00     0.158 HD
ENDBRANCH  58  59
BRANCH  58  62
HETATM   62  O   UNK N   1      25.139  12.316  11.765  0.00  0.00    -0.346 OA
HETATM   63  H   UNK N   1      25.397  13.117  12.178  0.00  0.00     0.219 HD
ENDBRANCH  58  62
ENDBRANCH  54  58
BRANCH  56  64
HETATM   64  O   UNK N   1      23.193  10.405   6.902  0.00  0.00    -0.391 OA
HETATM   65  H   UNK N   1      22.321  10.123   6.586  0.00  0.00     0.210 HD
ENDBRANCH  56  64
BRANCH  57  66
HETATM   66  O   UNK N   1      21.049  12.099   7.356  0.00  0.00    -0.374 OA
HETATM   67  H   UNK N   1      20.274  11.531   7.485  0.00  0.00     0.212 HD
ENDBRANCH  57  66
ENDBRANCH  46  52
ENDBRANCH  42  43
ENDBRANCH  41  42
ENDBRANCH  37  41
ENDBRANCH  36  37
ENDBRANCH   2  36
TORSDOF 25
ENDMDL
MODEL 9
REMARK VINA RESULT:      -6.8      4.774     11.990
REMARK  25 active torsions:
REMARK  status: ('A' for Active; 'I' for Inactive)
REMARK    1  A    between atoms: C_9  and  C_3 
REMARK    2  A    between atoms: O_46  and  C_3 
REMARK    3  A    between atoms: C_10  and  C_4 
REMARK    4  A    between atoms: O_47  and  C_4 
REMARK    5  A    between atoms: C_17  and  C_7 
REMARK    6  A    between atoms: C_8  and  O_33 
REMARK    7  A    between atoms: C_12  and  O_34 
REMARK    8  A    between atoms: C_13  and  O_35 
REMARK    9  A    between atoms: C_14  and  O_36 
REMARK   10  A    between atoms: C_15  and  O_50 
REMARK   11  A    between atoms: N_22  and  C_16 
REMARK   12  A    between atoms: N_23  and  C_17 
REMARK   13  A    between atoms: O_37  and  C_17 
REMARK   14  A    between atoms: C_19  and  O_38 
REMARK   15  A    between atoms: C_20  and  N_31 
REMARK   16  A    between atoms: C_21  and  N_32 
REMARK   17  A    between atoms: P_52  and  O_39 
REMARK   18  A    between atoms: P_52  and  O_40 
REMARK   19  A    between atoms: P_53  and  O_42 
REMARK   20  A    between atoms: P_54  and  O_44 
REMARK   21  A    between atoms: P_53  and  O_46 
REMARK   22  A    between atoms: P_54  and  O_47 
REMARK   23  A    between atoms: P_52  and  O_50 
REMARK   24  A    between atoms: P_53  and  O_51 
REMARK   25  A    between atoms: P_54  and  O_51 
ROOT
HETATM    1  O   UNK N   1      27.065  18.547   4.988  0.00  0.00    -0.631 OA
HETATM    2  P   UNK N   1      28.077  17.411   4.690  0.00  0.00     0.401 P 
ENDROOT
BRANCH   2   3
HETATM    3  O   UNK N   1      29.544  18.251   4.288  0.00  0.00    -0.307 OA
HETATM    4  H   UNK N   1      30.047  18.974   3.881  0.00  0.00     0.222 HD
ENDBRANCH   2   3
BRANCH   2   5
HETATM    5  O   UNK N   1      27.349  16.512   3.373  0.00  0.00    -0.294 OA
BRANCH   5   6
HETATM    6  C   UNK N   1      26.435  15.571   3.883  0.00  0.00     0.215 C 
BRANCH   6   7
HETATM    7  C   UNK N   1      25.114  16.190   4.356  0.00  0.00     0.180 C 
HETATM    8  C   UNK N   1      24.630  15.622   5.683  0.00  0.00     0.183 C 
HETATM    9  C   UNK N   1      23.198  16.093   5.633  0.00  0.00     0.214 C 
HETATM   10  C   UNK N   1      22.925  15.624   4.197  0.00  0.00     0.263 C 
HETATM   11  O   UNK N   1      24.067  15.975   3.422  0.00  0.00    -0.353 OA
BRANCH   8  12
HETATM   12  O   UNK N   1      25.341  16.139   6.763  0.00  0.00    -0.390 OA
HETATM   13  H   UNK N   1      25.161  16.025   7.708  0.00  0.00     0.210 HD
ENDBRANCH   8  12
BRANCH   9  14
HETATM   14  O   UNK N   1      22.241  15.559   6.539  0.00  0.00    -0.284 OA
BRANCH  14  15
HETATM   15  P   UNK N   1      21.010  16.665   7.130  0.00  0.00     0.391 P 
HETATM   16  O   UNK N   1      19.628  16.309   6.519  0.00  0.00    -0.632 OA
BRANCH  15  17
HETATM   17  O   UNK N   1      21.375  18.326   6.783  0.00  0.00    -0.307 OA
HETATM   18  H   UNK N   1      21.644  19.235   6.990  0.00  0.00     0.222 HD
ENDBRANCH  15  17
BRANCH  15  19
HETATM   19  O   UNK N   1      20.826  16.456   8.842  0.00  0.00    -0.307 OA
HETATM   20  H   UNK N   1      20.913  15.574   9.235  0.00  0.00     0.222 HD
ENDBRANCH  15  19
ENDBRANCH  14  15
ENDBRANCH   9  14
BRANCH  10  21
HETATM   21  N   UNK N   1      21.684  16.159   3.625  0.00  0.00    -0.297 N 
HETATM   22  C   UNK N   1      20.566  15.466   3.281  0.00  0.00     0.188 A 
HETATM   23  N   UNK N   1      19.573  16.301   2.858  0.00  0.00    -0.346 N 
HETATM   24  C   UNK N   1      20.108  17.532   2.953  0.00  0.00     0.122 A 
ATOM     25  HN  UNK N   1      18.637  16.048   2.540  1.00  0.00     0.167 HD
HETATM   26  C   UNK N   1      19.549  18.773   2.684  0.00  0.00     0.131 A 
HETATM   27  C   UNK N   1      21.372  17.447   3.408  0.00  0.00     0.142 A 
HETATM   28  N   UNK N   1      20.324  19.882   2.880  0.00  0.00    -0.337 N 
HETATM   29  C   UNK N   1      21.614  19.770   3.340  0.00  0.00     0.183 A 
ATOM     30  HN  UNK N   1      19.939  20.805   2.683  1.00  0.00     0.168 HD
HETATM   31  N   UNK N   1      22.142  18.539   3.619  0.00  0.00    -0.336 N 
ATOM     32  HN  UNK N   1      23.093  18.448   3.977  1.00  0.00     0.168 HD
BRANCH  26  33
HETATM   33  N   UNK N   1      18.219  18.899   2.237  0.00  0.00    -0.383 N 
HETATM   34  H   UNK N   1      17.440  18.891   2.838  0.00  0.00     0.157 HD
HETATM   35  H   UNK N   1      18.060  18.999   1.271  0.00  0.00     0.157 HD
ENDBRANCH  26  33
ENDBRANCH  10  21
ENDBRANCH   6   7
ENDBRANCH   5   6
ENDBRANCH   2   5
BRANCH   2  36
HETATM   36  O   UNK N   1      28.198  16.540   6.182  0.00  0.00    -0.195 OA
BRANCH  36  37
HETATM   37  P   UNK N   1      29.112  17.570   7.233  0.00  0.00     0.401 P 
HETATM   38  O   UNK N   1      28.877  17.030   8.674  0.00  0.00    -0.631 OA
BRANCH  37  39
HETATM   39  O   UNK N   1      28.545  19.211   7.234  0.00  0.00    -0.307 OA
HETATM   40  H   UNK N   1      28.667  20.161   7.078  0.00  0.00     0.222 HD
ENDBRANCH  37  39
BRANCH  37  41
HETATM   41  O   UNK N   1      30.816  17.523   6.842  0.00  0.00    -0.294 OA
BRANCH  41  42
HETATM   42  C   UNK N   1      31.362  16.493   7.589  0.00  0.00     0.215 C 
BRANCH  42  43
HETATM   43  C   UNK N   1      32.469  16.984   8.520  0.00  0.00     0.180 C 
HETATM   44  C   UNK N   1      33.708  17.493   7.764  0.00  0.00     0.182 C 
HETATM   45  C   UNK N   1      34.827  16.720   8.439  0.00  0.00     0.198 C 
HETATM   46  C   UNK N   1      34.058  15.426   8.661  0.00  0.00     0.257 C 
HETATM   47  O   UNK N   1      32.851  15.844   9.235  0.00  0.00    -0.354 OA
BRANCH  44  48
HETATM   48  O   UNK N   1      33.868  18.880   7.846  0.00  0.00    -0.390 OA
HETATM   49  H   UNK N   1      33.311  19.541   8.286  0.00  0.00     0.210 HD
ENDBRANCH  44  48
BRANCH  45  50
HETATM   50  O   UNK N   1      35.150  17.296   9.673  0.00  0.00    -0.388 OA
HETATM   51  H   UNK N   1      35.434  17.839  10.425  0.00  0.00     0.210 HD
ENDBRANCH  45  50
BRANCH  46  52
HETATM   52  N   UNK N   1      34.655  14.422   9.518  0.00  0.00    -0.332 N 
HETATM   53  C   UNK N   1      36.006  14.072   9.193  0.00  0.00     0.102 C 
HETATM   54  C   UNK N   1      36.874  13.603  10.092  0.00  0.00     0.010 C 
HETATM   55  C   UNK N   1      36.450  13.467  11.530  0.00  0.00     0.080 C 
HETATM   56  C   UNK N   1      34.972  13.094  11.581  0.00  0.00     0.171 C 
HETATM   57  C   UNK N   1      34.131  14.166  10.858  0.00  0.00     0.251 C 
BRANCH  54  58
HETATM   58  C   UNK N   1      38.248  13.273   9.655  0.00  0.00     0.141 C 
BRANCH  58  59
HETATM   59  N   UNK N   1      38.711  12.089   9.810  0.00  0.00    -0.380 N 
HETATM   60  H   UNK N   1      39.408  11.730   9.213  0.00  0.00     0.158 HD
ATOM     61  HN  UNK N   1      38.351  11.505  10.566  1.00  0.00     0.158 HD
ENDBRANCH  58  59
BRANCH  58  62
HETATM   62  O   UNK N   1      39.025  14.222   9.092  0.00  0.00    -0.346 OA
HETATM   63  H   UNK N   1      38.670  14.876   8.522  0.00  0.00     0.219 HD
ENDBRANCH  58  62
ENDBRANCH  54  58
BRANCH  56  64
HETATM   64  O   UNK N   1      34.558  12.957  12.907  0.00  0.00    -0.391 OA
HETATM   65  H   UNK N   1      34.795  13.608  13.586  0.00  0.00     0.210 HD
ENDBRANCH  56  64
BRANCH  57  66
HETATM   66  O   UNK N   1      34.128  15.357  11.592  0.00  0.00    -0.374 OA
HETATM   67  H   UNK N   1      33.840  16.193  11.988  0.00  0.00     0.212 HD
ENDBRANCH  57  66
ENDBRANCH  46  52
ENDBRANCH  42  43
ENDBRANCH  41  42
ENDBRANCH  37  41
ENDBRANCH  36  37
ENDBRANCH   2  36
TORSDOF 25
ENDMDL
