MODEL 1
REMARK VINA RESULT:      -5.3      0.000      0.000
REMARK  11 active torsions:
REMARK  status: ('A' for Active; 'I' for Inactive)
REMARK    1  A    between atoms: C_3  and  C_1 
REMARK    2  A    between atoms: C_4  and  C_2 
REMARK    3  A    between atoms: O_13  and  C_2 
REMARK    4  A    between atoms: C_5  and  C_3 
REMARK    5  A    between atoms: C_3  and  O_7 
REMARK    6  A    between atoms: C_5  and  C_4 
REMARK    7  A    between atoms: C_4  and  O_8 
REMARK    8  A    between atoms: C_5  and  O_9 
REMARK    9  A    between atoms: P_14  and  O_10 
REMARK   10  A    between atoms: P_14  and  O_11 
REMARK   11  A    between atoms: P_14  and  O_13 
ROOT
HETATM    1  C   UNK N   1      34.710  15.227  10.672  0.00  0.00     0.174 C 
ENDROOT
BRANCH   1   2
HETATM    2  C   UNK N   1      34.391  16.545   9.976  0.00  0.00     0.215 C 
BRANCH   2   3
HETATM    3  O   UNK N   1      34.728  16.454   8.622  0.00  0.00    -0.294 OA
BRANCH   3   4
HETATM    4  P   UNK N   1      34.259  17.964   7.891  0.00  0.00     0.390 P 
HETATM    5  O   UNK N   1      32.805  18.306   8.321  0.00  0.00    -0.632 OA
BRANCH   4   6
HETATM    6  O   UNK N   1      35.260  19.258   8.471  0.00  0.00    -0.307 OA
HETATM    7  H   UNK N   1      36.204  19.476   8.427  0.00  0.00     0.222 HD
ENDBRANCH   4   6
BRANCH   4   8
HETATM    8  O   UNK N   1      34.298  17.887   6.157  0.00  0.00    -0.307 OA
HETATM    9  H   UNK N   1      34.876  18.092   5.406  0.00  0.00     0.222 HD
ENDBRANCH   4   8
ENDBRANCH   3   4
ENDBRANCH   2   3
ENDBRANCH   1   2
BRANCH   1  10
HETATM   10  C   UNK N   1      35.929  15.371  11.608  0.00  0.00     0.184 C 
BRANCH  10  11
HETATM   11  C   UNK N   1      36.466  13.998  12.075  0.00  0.00     0.210 C 
BRANCH  11  12
HETATM   12  C   UNK N   1      36.101  13.723  13.505  0.00  0.00     0.265 C 
HETATM   13  O   UNK N   1      34.938  13.545  13.829  0.00  0.00    -0.304 OA
ENDBRANCH  11  12
BRANCH  11  14
HETATM   14  O   UNK N   1      35.957  12.968  11.280  0.00  0.00    -0.386 OA
HETATM   15  H   UNK N   1      36.482  12.574  10.565  0.00  0.00     0.210 HD
ENDBRANCH  11  14
ENDBRANCH  10  11
BRANCH  10  16
HETATM   16  O   UNK N   1      36.947  16.047  10.925  0.00  0.00    -0.390 OA
HETATM   17  H   UNK N   1      37.656  16.506  11.400  0.00  0.00     0.210 HD
ENDBRANCH  10  16
ENDBRANCH   1  10
BRANCH   1  18
HETATM   18  O   UNK N   1      33.584  14.823  11.394  0.00  0.00    -0.391 OA
HETATM   19  H   UNK N   1      32.901  15.458  11.659  0.00  0.00     0.210 HD
ENDBRANCH   1  18
TORSDOF 11
ENDMDL
MODEL 2
REMARK VINA RESULT:      -5.2      0.900      1.640
REMARK  11 active torsions:
REMARK  status: ('A' for Active; 'I' for Inactive)
REMARK    1  A    between atoms: C_3  and  C_1 
REMARK    2  A    between atoms: C_4  and  C_2 
REMARK    3  A    between atoms: O_13  and  C_2 
REMARK    4  A    between atoms: C_5  and  C_3 
REMARK    5  A    between atoms: C_3  and  O_7 
REMARK    6  A    between atoms: C_5  and  C_4 
REMARK    7  A    between atoms: C_4  and  O_8 
REMARK    8  A    between atoms: C_5  and  O_9 
REMARK    9  A    between atoms: P_14  and  O_10 
REMARK   10  A    between atoms: P_14  and  O_11 
REMARK   11  A    between atoms: P_14  and  O_13 
ROOT
HETATM    1  C   UNK N   1      35.725  15.824  10.858  0.00  0.00     0.174 C 
ENDROOT
BRANCH   1   2
HETATM    2  C   UNK N   1      35.259  16.041   9.423  0.00  0.00     0.215 C 
BRANCH   2   3
HETATM    3  O   UNK N   1      34.046  16.736   9.424  0.00  0.00    -0.294 OA
BRANCH   3   4
HETATM    4  P   UNK N   1      34.140  17.903   8.134  0.00  0.00     0.390 P 
HETATM    5  O   UNK N   1      32.753  18.585   7.964  0.00  0.00    -0.632 OA
BRANCH   4   6
HETATM    6  O   UNK N   1      35.262  19.165   8.536  0.00  0.00    -0.307 OA
HETATM    7  H   UNK N   1      36.138  19.206   8.950  0.00  0.00     0.222 HD
ENDBRANCH   4   6
BRANCH   4   8
HETATM    8  O   UNK N   1      34.561  17.166   6.620  0.00  0.00    -0.307 OA
HETATM    9  H   UNK N   1      34.219  17.039   5.721  0.00  0.00     0.222 HD
ENDBRANCH   4   8
ENDBRANCH   3   4
ENDBRANCH   2   3
ENDBRANCH   1   2
BRANCH   1  10
HETATM   10  C   UNK N   1      35.329  14.422  11.367  0.00  0.00     0.184 C 
BRANCH  10  11
HETATM   11  C   UNK N   1      36.127  14.016  12.628  0.00  0.00     0.210 C 
BRANCH  11  12
HETATM   12  C   UNK N   1      35.396  12.978  13.429  0.00  0.00     0.265 C 
HETATM   13  O   UNK N   1      34.611  13.302  14.303  0.00  0.00    -0.304 OA
ENDBRANCH  11  12
BRANCH  11  14
HETATM   14  O   UNK N   1      37.380  13.508  12.280  0.00  0.00    -0.386 OA
HETATM   15  H   UNK N   1      37.988  14.005  11.710  0.00  0.00     0.210 HD
ENDBRANCH  11  14
ENDBRANCH  10  11
BRANCH  10  16
HETATM   16  O   UNK N   1      33.963  14.422  11.677  0.00  0.00    -0.390 OA
HETATM   17  H   UNK N   1      33.506  13.610  11.946  0.00  0.00     0.210 HD
ENDBRANCH  10  16
ENDBRANCH   1  10
BRANCH   1  18
HETATM   18  O   UNK N   1      37.112  15.986  10.904  0.00  0.00    -0.391 OA
HETATM   19  H   UNK N   1      37.608  16.299  10.131  0.00  0.00     0.210 HD
ENDBRANCH   1  18
TORSDOF 11
ENDMDL
MODEL 3
REMARK VINA RESULT:      -5.0      0.778      1.565
REMARK  11 active torsions:
REMARK  status: ('A' for Active; 'I' for Inactive)
REMARK    1  A    between atoms: C_3  and  C_1 
REMARK    2  A    between atoms: C_4  and  C_2 
REMARK    3  A    between atoms: O_13  and  C_2 
REMARK    4  A    between atoms: C_5  and  C_3 
REMARK    5  A    between atoms: C_3  and  O_7 
REMARK    6  A    between atoms: C_5  and  C_4 
REMARK    7  A    between atoms: C_4  and  O_8 
REMARK    8  A    between atoms: C_5  and  O_9 
REMARK    9  A    between atoms: P_14  and  O_10 
REMARK   10  A    between atoms: P_14  and  O_11 
REMARK   11  A    between atoms: P_14  and  O_13 
ROOT
HETATM    1  C   UNK N   1      33.740  14.700   9.927  0.00  0.00     0.174 C 
ENDROOT
BRANCH   1   2
HETATM    2  C   UNK N   1      33.406  15.792   8.916  0.00  0.00     0.215 C 
BRANCH   2   3
HETATM    3  O   UNK N   1      34.589  16.354   8.426  0.00  0.00    -0.294 OA
BRANCH   3   4
HETATM    4  P   UNK N   1      34.175  17.936   7.822  0.00  0.00     0.390 P 
HETATM    5  O   UNK N   1      32.742  18.302   8.302  0.00  0.00    -0.632 OA
BRANCH   4   6
HETATM    6  O   UNK N   1      35.237  19.137   8.486  0.00  0.00    -0.307 OA
HETATM    7  H   UNK N   1      35.748  19.233   9.305  0.00  0.00     0.222 HD
ENDBRANCH   4   6
BRANCH   4   8
HETATM    8  O   UNK N   1      34.188  17.994   6.088  0.00  0.00    -0.307 OA
HETATM    9  H   UNK N   1      34.743  18.283   5.347  0.00  0.00     0.222 HD
ENDBRANCH   4   8
ENDBRANCH   3   4
ENDBRANCH   2   3
ENDBRANCH   1   2
BRANCH   1  10
HETATM   10  C   UNK N   1      35.264  14.578  10.132  0.00  0.00     0.184 C 
BRANCH  10  11
HETATM   11  C   UNK N   1      35.752  15.394  11.352  0.00  0.00     0.210 C 
BRANCH  11  12
HETATM   12  C   UNK N   1      36.033  14.506  12.530  0.00  0.00     0.265 C 
HETATM   13  O   UNK N   1      35.122  13.969  13.138  0.00  0.00    -0.304 OA
ENDBRANCH  11  12
BRANCH  11  14
HETATM   14  O   UNK N   1      36.915  16.103  11.043  0.00  0.00    -0.386 OA
HETATM   15  H   UNK N   1      37.399  16.602  11.720  0.00  0.00     0.210 HD
ENDBRANCH  11  14
ENDBRANCH  10  11
BRANCH  10  16
HETATM   16  O   UNK N   1      35.588  13.231  10.331  0.00  0.00    -0.390 OA
HETATM   17  H   UNK N   1      35.848  12.896  11.203  0.00  0.00     0.210 HD
ENDBRANCH  10  16
ENDBRANCH   1  10
BRANCH   1  18
HETATM   18  O   UNK N   1      33.106  15.005  11.134  0.00  0.00    -0.391 OA
HETATM   19  H   UNK N   1      33.609  15.327  11.899  0.00  0.00     0.210 HD
ENDBRANCH   1  18
TORSDOF 11
ENDMDL
MODEL 4
REMARK VINA RESULT:      -5.0      2.952      6.422
REMARK  11 active torsions:
REMARK  status: ('A' for Active; 'I' for Inactive)
REMARK    1  A    between atoms: C_3  and  C_1 
REMARK    2  A    between atoms: C_4  and  C_2 
REMARK    3  A    between atoms: O_13  and  C_2 
REMARK    4  A    between atoms: C_5  and  C_3 
REMARK    5  A    between atoms: C_3  and  O_7 
REMARK    6  A    between atoms: C_5  and  C_4 
REMARK    7  A    between atoms: C_4  and  O_8 
REMARK    8  A    between atoms: C_5  and  O_9 
REMARK    9  A    between atoms: P_14  and  O_10 
REMARK   10  A    between atoms: P_14  and  O_11 
REMARK   11  A    between atoms: P_14  and  O_13 
ROOT
HETATM    1  C   UNK N   1      36.000  13.378  11.937  0.00  0.00     0.174 C 
ENDROOT
BRANCH   1   2
HETATM    2  C   UNK N   1      35.428  12.547  13.080  0.00  0.00     0.215 C 
BRANCH   2   3
HETATM    3  O   UNK N   1      34.969  13.395  14.093  0.00  0.00    -0.294 OA
BRANCH   3   4
HETATM    4  P   UNK N   1      36.057  13.195  15.439  0.00  0.00     0.390 P 
HETATM    5  O   UNK N   1      36.542  11.718  15.484  0.00  0.00    -0.632 OA
BRANCH   4   6
HETATM    6  O   UNK N   1      37.476  14.172  15.224  0.00  0.00    -0.307 OA
HETATM    7  H   UNK N   1      37.938  14.564  14.468  0.00  0.00     0.222 HD
ENDBRANCH   4   6
BRANCH   4   8
HETATM    8  O   UNK N   1      35.289  13.550  16.954  0.00  0.00    -0.307 OA
HETATM    9  H   UNK N   1      34.948  13.111  17.749  0.00  0.00     0.222 HD
ENDBRANCH   4   8
ENDBRANCH   3   4
ENDBRANCH   2   3
ENDBRANCH   1   2
BRANCH   1  10
HETATM   10  C   UNK N   1      35.250  14.718  11.792  0.00  0.00     0.184 C 
BRANCH  10  11
HETATM   11  C   UNK N   1      35.806  15.570  10.628  0.00  0.00     0.210 C 
BRANCH  11  12
HETATM   12  C   UNK N   1      34.938  16.766  10.360  0.00  0.00     0.265 C 
HETATM   13  O   UNK N   1      35.348  17.696   9.686  0.00  0.00    -0.304 OA
ENDBRANCH  11  12
BRANCH  11  14
HETATM   14  O   UNK N   1      37.100  16.014  10.910  0.00  0.00    -0.386 OA
HETATM   15  H   UNK N   1      37.418  16.098  11.823  0.00  0.00     0.210 HD
ENDBRANCH  11  14
ENDBRANCH  10  11
BRANCH  10  16
HETATM   16  O   UNK N   1      33.896  14.456  11.554  0.00  0.00    -0.390 OA
HETATM   17  H   UNK N   1      33.575  14.213  10.672  0.00  0.00     0.210 HD
ENDBRANCH  10  16
ENDBRANCH   1  10
BRANCH   1  18
HETATM   18  O   UNK N   1      37.356  13.601  12.188  0.00  0.00    -0.391 OA
HETATM   19  H   UNK N   1      37.690  13.710  13.092  0.00  0.00     0.210 HD
ENDBRANCH   1  18
TORSDOF 11
ENDMDL
MODEL 5
REMARK VINA RESULT:      -4.7      2.741      6.086
REMARK  11 active torsions:
REMARK  status: ('A' for Active; 'I' for Inactive)
REMARK    1  A    between atoms: C_3  and  C_1 
REMARK    2  A    between atoms: C_4  and  C_2 
REMARK    3  A    between atoms: O_13  and  C_2 
REMARK    4  A    between atoms: C_5  and  C_3 
REMARK    5  A    between atoms: C_3  and  O_7 
REMARK    6  A    between atoms: C_5  and  C_4 
REMARK    7  A    between atoms: C_4  and  O_8 
REMARK    8  A    between atoms: C_5  and  O_9 
REMARK    9  A    between atoms: P_14  and  O_10 
REMARK   10  A    between atoms: P_14  and  O_11 
REMARK   11  A    between atoms: P_14  and  O_13 
ROOT
HETATM    1  C   UNK N   1      36.174  14.894  10.906  0.00  0.00     0.174 C 
ENDROOT
BRANCH   1   2
HETATM    2  C   UNK N   1      36.398  14.060  12.162  0.00  0.00     0.215 C 
BRANCH   2   3
HETATM    3  O   UNK N   1      36.103  14.827  13.293  0.00  0.00    -0.294 OA
BRANCH   3   4
HETATM    4  P   UNK N   1      36.659  13.917  14.671  0.00  0.00     0.390 P 
HETATM    5  O   UNK N   1      35.429  13.432  15.489  0.00  0.00    -0.632 OA
BRANCH   4   6
HETATM    6  O   UNK N   1      37.500  12.489  14.156  0.00  0.00    -0.307 OA
HETATM    7  H   UNK N   1      38.151  11.888  14.551  0.00  0.00     0.222 HD
ENDBRANCH   4   6
BRANCH   4   8
HETATM    8  O   UNK N   1      37.656  14.872  15.722  0.00  0.00    -0.307 OA
HETATM    9  H   UNK N   1      37.634  15.320  16.582  0.00  0.00     0.222 HD
ENDBRANCH   4   8
ENDBRANCH   3   4
ENDBRANCH   2   3
ENDBRANCH   1   2
BRANCH   1  10
HETATM   10  C   UNK N   1      34.740  15.461  10.862  0.00  0.00     0.184 C 
BRANCH  10  11
HETATM   11  C   UNK N   1      34.281  15.765   9.417  0.00  0.00     0.210 C 
BRANCH  11  12
HETATM   12  C   UNK N   1      34.260  17.242   9.147  0.00  0.00     0.265 C 
HETATM   13  O   UNK N   1      35.221  17.941   9.423  0.00  0.00    -0.304 OA
ENDBRANCH  11  12
BRANCH  11  14
HETATM   14  O   UNK N   1      35.127  15.155   8.488  0.00  0.00    -0.386 OA
HETATM   15  H   UNK N   1      35.255  15.525   7.600  0.00  0.00     0.210 HD
ENDBRANCH  11  14
ENDBRANCH  10  11
BRANCH  10  16
HETATM   16  O   UNK N   1      33.865  14.526  11.427  0.00  0.00    -0.390 OA
HETATM   17  H   UNK N   1      33.823  13.613  11.103  0.00  0.00     0.210 HD
ENDBRANCH  10  16
ENDBRANCH   1  10
BRANCH   1  18
HETATM   18  O   UNK N   1      37.110  15.931  10.889  0.00  0.00    -0.391 OA
HETATM   19  H   UNK N   1      37.999  15.801  10.523  0.00  0.00     0.210 HD
ENDBRANCH   1  18
TORSDOF 11
ENDMDL
MODEL 6
REMARK VINA RESULT:      -4.6     15.945     17.235
REMARK  11 active torsions:
REMARK  status: ('A' for Active; 'I' for Inactive)
REMARK    1  A    between atoms: C_3  and  C_1 
REMARK    2  A    between atoms: C_4  and  C_2 
REMARK    3  A    between atoms: O_13  and  C_2 
REMARK    4  A    between atoms: C_5  and  C_3 
REMARK    5  A    between atoms: C_3  and  O_7 
REMARK    6  A    between atoms: C_5  and  C_4 
REMARK    7  A    between atoms: C_4  and  O_8 
REMARK    8  A    between atoms: C_5  and  O_9 
REMARK    9  A    between atoms: P_14  and  O_10 
REMARK   10  A    between atoms: P_14  and  O_11 
REMARK   11  A    between atoms: P_14  and  O_13 
ROOT
HETATM    1  C   UNK N   1      20.821  18.525   3.709  0.00  0.00     0.174 C 
ENDROOT
BRANCH   1   2
HETATM    2  C   UNK N   1      20.518  17.047   3.487  0.00  0.00     0.215 C 
BRANCH   2   3
HETATM    3  O   UNK N   1      21.499  16.486   2.664  0.00  0.00    -0.294 OA
BRANCH   3   4
HETATM    4  P   UNK N   1      20.661  15.712   1.348  0.00  0.00     0.390 P 
HETATM    5  O   UNK N   1      20.339  16.774   0.258  0.00  0.00    -0.632 OA
BRANCH   4   6
HETATM    6  O   UNK N   1      21.678  14.526   0.592  0.00  0.00    -0.307 OA
HETATM    7  H   UNK N   1      22.618  14.291   0.636  0.00  0.00     0.222 HD
ENDBRANCH   4   6
BRANCH   4   8
HETATM    8  O   UNK N   1      19.163  15.001   1.859  0.00  0.00    -0.307 OA
HETATM    9  H   UNK N   1      18.452  14.425   1.537  0.00  0.00     0.222 HD
ENDBRANCH   4   8
ENDBRANCH   3   4
ENDBRANCH   2   3
ENDBRANCH   1   2
BRANCH   1  10
HETATM   10  C   UNK N   1      19.865  19.419   2.891  0.00  0.00     0.184 C 
BRANCH  10  11
HETATM   11  C   UNK N   1      20.622  20.275   1.849  0.00  0.00     0.210 C 
BRANCH  11  12
HETATM   12  C   UNK N   1      22.052  20.493   2.251  0.00  0.00     0.265 C 
HETATM   13  O   UNK N   1      22.394  21.525   2.804  0.00  0.00    -0.304 OA
ENDBRANCH  11  12
BRANCH  11  14
HETATM   14  O   UNK N   1      20.602  19.662   0.594  0.00  0.00    -0.386 OA
HETATM   15  H   UNK N   1      20.795  20.160  -0.216  0.00  0.00     0.210 HD
ENDBRANCH  11  14
ENDBRANCH  10  11
BRANCH  10  16
HETATM   16  O   UNK N   1      18.943  18.604   2.224  0.00  0.00    -0.390 OA
HETATM   17  H   UNK N   1      18.540  18.878   1.386  0.00  0.00     0.210 HD
ENDBRANCH  10  16
ENDBRANCH   1  10
BRANCH   1  18
HETATM   18  O   UNK N   1      20.702  18.802   5.073  0.00  0.00    -0.391 OA
HETATM   19  H   UNK N   1      19.961  19.324   5.418  0.00  0.00     0.210 HD
ENDBRANCH   1  18
TORSDOF 11
ENDMDL
MODEL 7
REMARK VINA RESULT:      -4.5      2.355      3.779
REMARK  11 active torsions:
REMARK  status: ('A' for Active; 'I' for Inactive)
REMARK    1  A    between atoms: C_3  and  C_1 
REMARK    2  A    between atoms: C_4  and  C_2 
REMARK    3  A    between atoms: O_13  and  C_2 
REMARK    4  A    between atoms: C_5  and  C_3 
REMARK    5  A    between atoms: C_3  and  O_7 
REMARK    6  A    between atoms: C_5  and  C_4 
REMARK    7  A    between atoms: C_4  and  O_8 
REMARK    8  A    between atoms: C_5  and  O_9 
REMARK    9  A    between atoms: P_14  and  O_10 
REMARK   10  A    between atoms: P_14  and  O_11 
REMARK   11  A    between atoms: P_14  and  O_13 
ROOT
HETATM    1  C   UNK N   1      32.211  15.648   8.733  0.00  0.00     0.174 C 
ENDROOT
BRANCH   1   2
HETATM    2  C   UNK N   1      31.855  15.685   7.251  0.00  0.00     0.215 C 
BRANCH   2   3
HETATM    3  O   UNK N   1      31.750  17.014   6.827  0.00  0.00    -0.294 OA
BRANCH   3   4
HETATM    4  P   UNK N   1      32.720  17.154   5.387  0.00  0.00     0.390 P 
HETATM    5  O   UNK N   1      34.010  17.955   5.721  0.00  0.00    -0.632 OA
BRANCH   4   6
HETATM    6  O   UNK N   1      33.239  15.588   4.849  0.00  0.00    -0.307 OA
HETATM    7  H   UNK N   1      32.954  14.674   5.001  0.00  0.00     0.222 HD
ENDBRANCH   4   6
BRANCH   4   8
HETATM    8  O   UNK N   1      31.884  17.994   4.119  0.00  0.00    -0.307 OA
HETATM    9  H   UNK N   1      30.989  18.154   3.782  0.00  0.00     0.222 HD
ENDBRANCH   4   8
ENDBRANCH   3   4
ENDBRANCH   2   3
ENDBRANCH   1   2
BRANCH   1  10
HETATM   10  C   UNK N   1      33.655  16.138   8.971  0.00  0.00     0.184 C 
BRANCH  10  11
HETATM   11  C   UNK N   1      34.295  15.472  10.212  0.00  0.00     0.210 C 
BRANCH  11  12
HETATM   12  C   UNK N   1      35.253  16.401  10.900  0.00  0.00     0.265 C 
HETATM   13  O   UNK N   1      35.631  17.424  10.355  0.00  0.00    -0.304 OA
ENDBRANCH  11  12
BRANCH  11  14
HETATM   14  O   UNK N   1      33.316  15.084  11.128  0.00  0.00    -0.386 OA
HETATM   15  H   UNK N   1      33.465  15.143  12.085  0.00  0.00     0.210 HD
ENDBRANCH  11  14
ENDBRANCH  10  11
BRANCH  10  16
HETATM   16  O   UNK N   1      34.428  15.834   7.845  0.00  0.00    -0.390 OA
HETATM   17  H   UNK N   1      35.016  15.063   7.828  0.00  0.00     0.210 HD
ENDBRANCH  10  16
ENDBRANCH   1  10
BRANCH   1  18
HETATM   18  O   UNK N   1      31.302  16.450   9.427  0.00  0.00    -0.391 OA
HETATM   19  H   UNK N   1      30.345  16.305   9.355  0.00  0.00     0.210 HD
ENDBRANCH   1  18
TORSDOF 11
ENDMDL
MODEL 8
REMARK VINA RESULT:      -4.4      2.400      5.278
REMARK  11 active torsions:
REMARK  status: ('A' for Active; 'I' for Inactive)
REMARK    1  A    between atoms: C_3  and  C_1 
REMARK    2  A    between atoms: C_4  and  C_2 
REMARK    3  A    between atoms: O_13  and  C_2 
REMARK    4  A    between atoms: C_5  and  C_3 
REMARK    5  A    between atoms: C_3  and  O_7 
REMARK    6  A    between atoms: C_5  and  C_4 
REMARK    7  A    between atoms: C_4  and  O_8 
REMARK    8  A    between atoms: C_5  and  O_9 
REMARK    9  A    between atoms: P_14  and  O_10 
REMARK   10  A    between atoms: P_14  and  O_11 
REMARK   11  A    between atoms: P_14  and  O_13 
ROOT
HETATM    1  C   UNK N   1      34.531  15.249  10.903  0.00  0.00     0.174 C 
ENDROOT
BRANCH   1   2
HETATM    2  C   UNK N   1      35.041  13.844  10.607  0.00  0.00     0.215 C 
BRANCH   2   3
HETATM    3  O   UNK N   1      36.004  13.898   9.594  0.00  0.00    -0.294 OA
BRANCH   3   4
HETATM    4  P   UNK N   1      37.547  13.644  10.362  0.00  0.00     0.390 P 
HETATM    5  O   UNK N   1      38.185  12.343   9.799  0.00  0.00    -0.632 OA
BRANCH   4   6
HETATM    6  O   UNK N   1      38.640  14.936   9.972  0.00  0.00    -0.307 OA
HETATM    7  H   UNK N   1      39.252  15.499  10.470  0.00  0.00     0.222 HD
ENDBRANCH   4   6
BRANCH   4   8
HETATM    8  O   UNK N   1      37.397  13.464  12.081  0.00  0.00    -0.307 OA
HETATM    9  H   UNK N   1      37.528  12.811  12.786  0.00  0.00     0.222 HD
ENDBRANCH   4   8
ENDBRANCH   3   4
ENDBRANCH   2   3
ENDBRANCH   1   2
BRANCH   1  10
HETATM   10  C   UNK N   1      34.998  16.251   9.827  0.00  0.00     0.184 C 
BRANCH  10  11
HETATM   11  C   UNK N   1      33.818  16.791   8.986  0.00  0.00     0.210 C 
BRANCH  11  12
HETATM   12  C   UNK N   1      34.195  18.045   8.252  0.00  0.00     0.265 C 
HETATM   13  O   UNK N   1      34.567  18.002   7.091  0.00  0.00    -0.304 OA
ENDBRANCH  11  12
BRANCH  11  14
HETATM   14  O   UNK N   1      33.397  15.840   8.053  0.00  0.00    -0.386 OA
HETATM   15  H   UNK N   1      32.750  15.154   8.286  0.00  0.00     0.210 HD
ENDBRANCH  11  14
ENDBRANCH  10  11
BRANCH  10  16
HETATM   16  O   UNK N   1      35.635  17.327  10.456  0.00  0.00    -0.390 OA
HETATM   17  H   UNK N   1      35.313  17.683  11.298  0.00  0.00     0.210 HD
ENDBRANCH  10  16
ENDBRANCH   1  10
BRANCH   1  18
HETATM   18  O   UNK N   1      33.135  15.211  10.962  0.00  0.00    -0.391 OA
HETATM   19  H   UNK N   1      32.622  15.982  11.251  0.00  0.00     0.210 HD
ENDBRANCH   1  18
TORSDOF 11
ENDMDL
MODEL 9
REMARK VINA RESULT:      -4.4     15.796     17.407
REMARK  11 active torsions:
REMARK  status: ('A' for Active; 'I' for Inactive)
REMARK    1  A    between atoms: C_3  and  C_1 
REMARK    2  A    between atoms: C_4  and  C_2 
REMARK    3  A    between atoms: O_13  and  C_2 
REMARK    4  A    between atoms: C_5  and  C_3 
REMARK    5  A    between atoms: C_3  and  O_7 
REMARK    6  A    between atoms: C_5  and  C_4 
REMARK    7  A    between atoms: C_4  and  O_8 
REMARK    8  A    between atoms: C_5  and  O_9 
REMARK    9  A    between atoms: P_14  and  O_10 
REMARK   10  A    between atoms: P_14  and  O_11 
REMARK   11  A    between atoms: P_14  and  O_13 
ROOT
HETATM    1  C   UNK N   1      20.938  18.489   3.719  0.00  0.00     0.174 C 
ENDROOT
BRANCH   1   2
HETATM    2  C   UNK N   1      19.963  17.349   3.443  0.00  0.00     0.215 C 
BRANCH   2   3
HETATM    3  O   UNK N   1      19.993  17.025   2.084  0.00  0.00    -0.294 OA
BRANCH   3   4
HETATM    4  P   UNK N   1      20.312  15.315   1.987  0.00  0.00     0.390 P 
HETATM    5  O   UNK N   1      20.967  14.845   3.317  0.00  0.00    -0.632 OA
BRANCH   4   6
HETATM    6  O   UNK N   1      18.828  14.428   1.831  0.00  0.00    -0.307 OA
HETATM    7  H   UNK N   1      17.885  14.636   1.918  0.00  0.00     0.222 HD
ENDBRANCH   4   6
BRANCH   4   8
HETATM    8  O   UNK N   1      21.399  14.928   0.691  0.00  0.00    -0.307 OA
HETATM    9  H   UNK N   1      22.198  15.259   0.252  0.00  0.00     0.222 HD
ENDBRANCH   4   8
ENDBRANCH   3   4
ENDBRANCH   2   3
ENDBRANCH   1   2
BRANCH   1  10
HETATM   10  C   UNK N   1      20.388  19.832   3.195  0.00  0.00     0.184 C 
BRANCH  10  11
HETATM   11  C   UNK N   1      21.406  20.561   2.289  0.00  0.00     0.210 C 
BRANCH  11  12
HETATM   12  C   UNK N   1      20.806  20.905   0.956  0.00  0.00     0.265 C 
HETATM   13  O   UNK N   1      20.823  20.102   0.038  0.00  0.00    -0.304 OA
ENDBRANCH  11  12
BRANCH  11  14
HETATM   14  O   UNK N   1      21.853  21.739   2.891  0.00  0.00    -0.386 OA
HETATM   15  H   UNK N   1      22.655  21.756   3.438  0.00  0.00     0.210 HD
ENDBRANCH  11  14
ENDBRANCH  10  11
BRANCH  10  16
HETATM   16  O   UNK N   1      19.221  19.588   2.461  0.00  0.00    -0.390 OA
HETATM   17  H   UNK N   1      19.211  19.651   1.494  0.00  0.00     0.210 HD
ENDBRANCH  10  16
ENDBRANCH   1  10
BRANCH   1  18
HETATM   18  O   UNK N   1      21.164  18.556   5.096  0.00  0.00    -0.391 OA
HETATM   19  H   UNK N   1      21.488  19.369   5.514  0.00  0.00     0.210 HD
ENDBRANCH   1  18
TORSDOF 11
ENDMDL
