MODEL 1
REMARK VINA RESULT:      -6.3      0.000      0.000
REMARK  11 active torsions:
REMARK  status: ('A' for Active; 'I' for Inactive)
REMARK    1  A    between atoms: C_4  and  C_2 
REMARK    2  A    between atoms: O_14  and  C_2 
REMARK    3  A    between atoms: C_5  and  C_3 
REMARK    4  A    between atoms: O_15  and  C_3 
REMARK    5  A    between atoms: C_6  and  O_16 
REMARK    6  A    between atoms: C_8  and  O_18 
REMARK    7  A    between atoms: C_9  and  O_19 
REMARK    8  A    between atoms: C_10  and  O_20 
REMARK    9  A    between atoms: C_11  and  O_24 
REMARK   10  A    between atoms: C_12  and  O_21 
REMARK   11  A    between atoms: C_13  and  O_24 
ROOT
HETATM    1  C   UNK N   1      34.304  15.789   8.933  0.00  0.00     0.179 C 
HETATM    2  C   UNK N   1      32.806  15.763   8.579  0.00  0.00     0.181 C 
HETATM    3  C   UNK N   1      33.739  16.655   6.374  0.00  0.00     0.205 C 
HETATM    4  C   UNK N   1      32.484  16.584   7.300  0.00  0.00     0.189 C 
HETATM    5  C   UNK N   1      34.632  15.409   6.550  0.00  0.00     0.290 C 
HETATM    6  O   UNK N   1      32.470  14.418   8.371  0.00  0.00    -0.390 OA
HETATM    7  O   UNK N   1      35.140  15.287   7.884  0.00  0.00    -0.349 OA
HETATM    8  H   UNK N   1      32.197  13.488   8.338  0.00  0.00     0.210 HD
ENDROOT
BRANCH   1   9
HETATM    9  C   UNK N   1      34.774  17.169   9.387  0.00  0.00     0.198 C 
BRANCH   9  10
HETATM   10  O   UNK N   1      34.938  17.188  10.773  0.00  0.00    -0.398 OA
HETATM   11  H   UNK N   1      35.443  17.897  11.202  0.00  0.00     0.209 HD
ENDBRANCH   9  10
ENDBRANCH   1   9
BRANCH   4  12
HETATM   12  O   UNK N   1      31.345  15.970   6.704  0.00  0.00    -0.348 OA
BRANCH  12  13
HETATM   13  C   UNK N   1      30.148  16.719   6.832  0.00  0.00     0.292 C 
HETATM   14  C   UNK N   1      29.682  17.185   5.432  0.00  0.00     0.204 C 
HETATM   15  C   UNK N   1      28.694  18.378   5.543  0.00  0.00     0.183 C 
HETATM   16  C   UNK N   1      28.054  18.398   6.931  0.00  0.00     0.180 C 
HETATM   17  C   UNK N   1      29.218  18.591   7.954  0.00  0.00     0.179 C 
HETATM   18  O   UNK N   1      30.396  17.826   7.673  0.00  0.00    -0.348 OA
BRANCH  14  19
HETATM   19  O   UNK N   1      29.087  16.096   4.787  0.00  0.00    -0.388 OA
HETATM   20  H   UNK N   1      28.446  15.868   4.095  0.00  0.00     0.210 HD
ENDBRANCH  14  19
BRANCH  15  21
HETATM   21  O   UNK N   1      27.733  18.336   4.527  0.00  0.00    -0.390 OA
HETATM   22  H   UNK N   1      26.986  17.722   4.444  0.00  0.00     0.210 HD
ENDBRANCH  15  21
BRANCH  16  23
HETATM   23  O   UNK N   1      27.135  19.448   7.039  0.00  0.00    -0.390 OA
HETATM   24  H   UNK N   1      26.355  19.354   7.607  0.00  0.00     0.210 HD
ENDBRANCH  16  23
BRANCH  17  25
HETATM   25  C   UNK N   1      28.776  18.329   9.391  0.00  0.00     0.198 C 
BRANCH  25  26
HETATM   26  O   UNK N   1      27.437  17.937   9.438  0.00  0.00    -0.398 OA
HETATM   27  H   UNK N   1      27.193  16.999   9.466  0.00  0.00     0.209 HD
ENDBRANCH  25  26
ENDBRANCH  17  25
ENDBRANCH  12  13
ENDBRANCH   4  12
BRANCH   3  28
HETATM   28  O   UNK N   1      34.497  17.787   6.694  0.00  0.00    -0.388 OA
HETATM   29  H   UNK N   1      34.664  18.634   7.135  0.00  0.00     0.210 HD
ENDBRANCH   3  28
BRANCH   5  30
HETATM   30  O   UNK N   1      35.747  15.510   5.687  0.00  0.00    -0.363 OA
HETATM   31  C   UNK N   1      36.637  14.459   5.963  0.00  0.00     0.204 C 
ENDBRANCH   5  30
TORSDOF 11
ENDMDL
MODEL 2
REMARK VINA RESULT:      -6.2     11.638     15.271
REMARK  11 active torsions:
REMARK  status: ('A' for Active; 'I' for Inactive)
REMARK    1  A    between atoms: C_4  and  C_2 
REMARK    2  A    between atoms: O_14  and  C_2 
REMARK    3  A    between atoms: C_5  and  C_3 
REMARK    4  A    between atoms: O_15  and  C_3 
REMARK    5  A    between atoms: C_6  and  O_16 
REMARK    6  A    between atoms: C_8  and  O_18 
REMARK    7  A    between atoms: C_9  and  O_19 
REMARK    8  A    between atoms: C_10  and  O_20 
REMARK    9  A    between atoms: C_11  and  O_24 
REMARK   10  A    between atoms: C_12  and  O_21 
REMARK   11  A    between atoms: C_13  and  O_24 
ROOT
HETATM    1  C   UNK N   1      26.728  26.713  -4.596  0.00  0.00     0.179 C 
HETATM    2  C   UNK N   1      28.241  26.569  -4.356  0.00  0.00     0.181 C 
HETATM    3  C   UNK N   1      27.521  24.153  -3.938  0.00  0.00     0.205 C 
HETATM    4  C   UNK N   1      28.605  25.238  -3.642  0.00  0.00     0.189 C 
HETATM    5  C   UNK N   1      26.859  24.389  -5.311  0.00  0.00     0.290 C 
HETATM    6  O   UNK N   1      28.850  26.605  -5.618  0.00  0.00    -0.390 OA
HETATM    7  O   UNK N   1      26.177  25.647  -5.378  0.00  0.00    -0.349 OA
HETATM    8  H   UNK N   1      29.292  26.745  -6.470  0.00  0.00     0.210 HD
ENDROOT
BRANCH   1   9
HETATM    9  C   UNK N   1      25.945  26.895  -3.298  0.00  0.00     0.198 C 
BRANCH   9  10
HETATM   10  O   UNK N   1      25.419  28.186  -3.232  0.00  0.00    -0.398 OA
HETATM   11  H   UNK N   1      25.689  28.863  -3.873  0.00  0.00     0.209 HD
ENDBRANCH   9  10
ENDBRANCH   1   9
BRANCH   4  12
HETATM   12  O   UNK N   1      29.918  24.894  -4.075  0.00  0.00    -0.348 OA
BRANCH  12  13
HETATM   13  C   UNK N   1      30.186  23.502  -4.066  0.00  0.00     0.292 C 
HETATM   14  C   UNK N   1      31.283  23.197  -3.018  0.00  0.00     0.204 C 
HETATM   15  C   UNK N   1      31.951  21.822  -3.294  0.00  0.00     0.183 C 
HETATM   16  C   UNK N   1      31.018  20.948  -4.133  0.00  0.00     0.180 C 
HETATM   17  C   UNK N   1      30.800  21.702  -5.484  0.00  0.00     0.179 C 
HETATM   18  O   UNK N   1      30.605  23.115  -5.358  0.00  0.00    -0.348 OA
BRANCH  14  19
HETATM   19  O   UNK N   1      30.692  23.224  -1.751  0.00  0.00    -0.388 OA
HETATM   20  H   UNK N   1      30.195  23.797  -1.145  0.00  0.00     0.210 HD
ENDBRANCH  14  19
BRANCH  15  21
HETATM   21  O   UNK N   1      32.324  21.191  -2.103  0.00  0.00    -0.390 OA
HETATM   22  H   UNK N   1      31.773  21.034  -1.319  0.00  0.00     0.210 HD
ENDBRANCH  15  21
BRANCH  16  23
HETATM   23  O   UNK N   1      31.590  19.692  -4.366  0.00  0.00    -0.390 OA
HETATM   24  H   UNK N   1      32.404  19.437  -3.907  0.00  0.00     0.210 HD
ENDBRANCH  16  23
BRANCH  17  25
HETATM   25  C   UNK N   1      29.658  21.105  -6.302  0.00  0.00     0.198 C 
BRANCH  25  26
HETATM   26  O   UNK N   1      29.987  19.829  -6.763  0.00  0.00    -0.398 OA
HETATM   27  H   UNK N   1      29.790  19.562  -7.674  0.00  0.00     0.209 HD
ENDBRANCH  25  26
ENDBRANCH  17  25
ENDBRANCH  12  13
ENDBRANCH   4  12
BRANCH   3  28
HETATM   28  O   UNK N   1      26.526  24.201  -2.956  0.00  0.00    -0.388 OA
HETATM   29  H   UNK N   1      25.999  24.627  -2.262  0.00  0.00     0.210 HD
ENDBRANCH   3  28
BRANCH   5  30
HETATM   30  O   UNK N   1      25.895  23.381  -5.543  0.00  0.00    -0.363 OA
HETATM   31  C   UNK N   1      26.060  22.878  -6.843  0.00  0.00     0.204 C 
ENDBRANCH   5  30
TORSDOF 11
ENDMDL
MODEL 3
REMARK VINA RESULT:      -6.2      1.700      3.760
REMARK  11 active torsions:
REMARK  status: ('A' for Active; 'I' for Inactive)
REMARK    1  A    between atoms: C_4  and  C_2 
REMARK    2  A    between atoms: O_14  and  C_2 
REMARK    3  A    between atoms: C_5  and  C_3 
REMARK    4  A    between atoms: O_15  and  C_3 
REMARK    5  A    between atoms: C_6  and  O_16 
REMARK    6  A    between atoms: C_8  and  O_18 
REMARK    7  A    between atoms: C_9  and  O_19 
REMARK    8  A    between atoms: C_10  and  O_20 
REMARK    9  A    between atoms: C_11  and  O_24 
REMARK   10  A    between atoms: C_12  and  O_21 
REMARK   11  A    between atoms: C_13  and  O_24 
ROOT
HETATM    1  C   UNK N   1      34.991  15.052   8.043  0.00  0.00     0.179 C 
HETATM    2  C   UNK N   1      34.068  16.248   7.747  0.00  0.00     0.181 C 
HETATM    3  C   UNK N   1      32.759  15.173   9.661  0.00  0.00     0.205 C 
HETATM    4  C   UNK N   1      32.667  16.092   8.401  0.00  0.00     0.189 C 
HETATM    5  C   UNK N   1      34.151  15.269  10.318  0.00  0.00     0.290 C 
HETATM    6  O   UNK N   1      34.705  17.381   8.269  0.00  0.00    -0.390 OA
HETATM    7  O   UNK N   1      35.197  14.832   9.443  0.00  0.00    -0.349 OA
HETATM    8  H   UNK N   1      35.185  18.186   8.520  0.00  0.00     0.210 HD
ENDROOT
BRANCH   1   9
HETATM    9  C   UNK N   1      34.527  13.770   7.355  0.00  0.00     0.198 C 
BRANCH   9  10
HETATM   10  O   UNK N   1      34.974  12.655   8.067  0.00  0.00    -0.398 OA
HETATM   11  H   UNK N   1      35.913  12.412   8.064  0.00  0.00     0.209 HD
ENDBRANCH   9  10
ENDBRANCH   1   9
BRANCH   4  12
HETATM   12  O   UNK N   1      32.196  17.410   8.665  0.00  0.00    -0.348 OA
BRANCH  12  13
HETATM   13  C   UNK N   1      30.925  17.696   8.105  0.00  0.00     0.292 C 
HETATM   14  C   UNK N   1      29.850  17.636   9.216  0.00  0.00     0.204 C 
HETATM   15  C   UNK N   1      28.431  17.456   8.608  0.00  0.00     0.183 C 
HETATM   16  C   UNK N   1      28.424  17.924   7.153  0.00  0.00     0.180 C 
HETATM   17  C   UNK N   1      29.436  17.014   6.388  0.00  0.00     0.179 C 
HETATM   18  O   UNK N   1      30.655  16.749   7.092  0.00  0.00    -0.348 OA
BRANCH  14  19
HETATM   19  O   UNK N   1      29.932  18.814   9.963  0.00  0.00    -0.388 OA
HETATM   20  H   UNK N   1      29.541  19.698  10.051  0.00  0.00     0.210 HD
ENDBRANCH  14  19
BRANCH  15  21
HETATM   21  O   UNK N   1      27.465  18.116   9.374  0.00  0.00    -0.390 OA
HETATM   22  H   UNK N   1      26.558  18.344   9.113  0.00  0.00     0.210 HD
ENDBRANCH  15  21
BRANCH  16  23
HETATM   23  O   UNK N   1      27.145  17.800   6.598  0.00  0.00    -0.390 OA
HETATM   24  H   UNK N   1      27.002  17.224   5.831  0.00  0.00     0.210 HD
ENDBRANCH  16  23
BRANCH  17  25
HETATM   25  C   UNK N   1      29.763  17.552   4.998  0.00  0.00     0.198 C 
BRANCH  25  26
HETATM   26  O   UNK N   1      28.985  18.672   4.701  0.00  0.00    -0.398 OA
HETATM   27  H   UNK N   1      28.887  19.395   5.341  0.00  0.00     0.209 HD
ENDBRANCH  25  26
ENDBRANCH  17  25
ENDBRANCH  12  13
ENDBRANCH   4  12
BRANCH   3  28
HETATM   28  O   UNK N   1      32.537  13.843   9.292  0.00  0.00    -0.388 OA
HETATM   29  H   UNK N   1      32.799  12.971   8.956  0.00  0.00     0.210 HD
ENDBRANCH   3  28
BRANCH   5  30
HETATM   30  O   UNK N   1      34.186  14.433  11.458  0.00  0.00    -0.363 OA
HETATM   31  C   UNK N   1      35.425  13.775  11.507  0.00  0.00     0.204 C 
ENDBRANCH   5  30
TORSDOF 11
ENDMDL
MODEL 4
REMARK VINA RESULT:      -6.2     11.765     15.664
REMARK  11 active torsions:
REMARK  status: ('A' for Active; 'I' for Inactive)
REMARK    1  A    between atoms: C_4  and  C_2 
REMARK    2  A    between atoms: O_14  and  C_2 
REMARK    3  A    between atoms: C_5  and  C_3 
REMARK    4  A    between atoms: O_15  and  C_3 
REMARK    5  A    between atoms: C_6  and  O_16 
REMARK    6  A    between atoms: C_8  and  O_18 
REMARK    7  A    between atoms: C_9  and  O_19 
REMARK    8  A    between atoms: C_10  and  O_20 
REMARK    9  A    between atoms: C_11  and  O_24 
REMARK   10  A    between atoms: C_12  and  O_21 
REMARK   11  A    between atoms: C_13  and  O_24 
ROOT
HETATM    1  C   UNK N   1      25.836  25.286  -5.055  0.00  0.00     0.179 C 
HETATM    2  C   UNK N   1      26.894  24.391  -4.386  0.00  0.00     0.181 C 
HETATM    3  C   UNK N   1      28.355  26.409  -4.954  0.00  0.00     0.205 C 
HETATM    4  C   UNK N   1      28.344  24.874  -4.667  0.00  0.00     0.189 C 
HETATM    5  C   UNK N   1      27.201  27.121  -4.217  0.00  0.00     0.290 C 
HETATM    6  O   UNK N   1      26.643  24.438  -3.009  0.00  0.00    -0.390 OA
HETATM    7  O   UNK N   1      25.914  26.655  -4.643  0.00  0.00    -0.349 OA
HETATM    8  H   UNK N   1      26.411  24.368  -2.069  0.00  0.00     0.210 HD
ENDROOT
BRANCH   1   9
HETATM    9  C   UNK N   1      25.854  25.176  -6.577  0.00  0.00     0.198 C 
BRANCH   9  10
HETATM   10  O   UNK N   1      25.493  26.397  -7.151  0.00  0.00    -0.398 OA
HETATM   11  H   UNK N   1      25.919  27.222  -6.866  0.00  0.00     0.209 HD
ENDBRANCH   9  10
ENDBRANCH   1   9
BRANCH   4  12
HETATM   12  O   UNK N   1      29.126  24.478  -3.544  0.00  0.00    -0.348 OA
BRANCH  12  13
HETATM   13  C   UNK N   1      29.733  23.205  -3.680  0.00  0.00     0.292 C 
HETATM   14  C   UNK N   1      30.929  23.101  -2.703  0.00  0.00     0.204 C 
HETATM   15  C   UNK N   1      31.903  21.970  -3.133  0.00  0.00     0.183 C 
HETATM   16  C   UNK N   1      31.172  20.963  -4.022  0.00  0.00     0.180 C 
HETATM   17  C   UNK N   1      30.697  21.748  -5.285  0.00  0.00     0.179 C 
HETATM   18  O   UNK N   1      30.162  23.049  -5.016  0.00  0.00    -0.348 OA
BRANCH  14  19
HETATM   19  O   UNK N   1      30.423  22.868  -1.420  0.00  0.00    -0.388 OA
HETATM   20  H   UNK N   1      29.988  22.193  -0.875  0.00  0.00     0.210 HD
ENDBRANCH  14  19
BRANCH  15  21
HETATM   21  O   UNK N   1      32.489  21.355  -2.022  0.00  0.00    -0.390 OA
HETATM   22  H   UNK N   1      32.056  20.792  -1.360  0.00  0.00     0.210 HD
ENDBRANCH  15  21
BRANCH  16  23
HETATM   23  O   UNK N   1      32.026  19.918  -4.394  0.00  0.00    -0.390 OA
HETATM   24  H   UNK N   1      32.786  19.690  -3.837  0.00  0.00     0.210 HD
ENDBRANCH  16  23
BRANCH  17  25
HETATM   25  C   UNK N   1      29.696  20.953  -6.119  0.00  0.00     0.198 C 
BRANCH  25  26
HETATM   26  O   UNK N   1      30.303  19.836  -6.695  0.00  0.00    -0.398 OA
HETATM   27  H   UNK N   1      29.931  19.421  -7.489  0.00  0.00     0.209 HD
ENDBRANCH  25  26
ENDBRANCH  17  25
ENDBRANCH  12  13
ENDBRANCH   4  12
BRANCH   3  28
HETATM   28  O   UNK N   1      28.204  26.634  -6.326  0.00  0.00    -0.388 OA
HETATM   29  H   UNK N   1      28.352  26.448  -7.266  0.00  0.00     0.210 HD
ENDBRANCH   3  28
BRANCH   5  30
HETATM   30  O   UNK N   1      27.255  28.506  -4.494  0.00  0.00    -0.363 OA
HETATM   31  C   UNK N   1      26.262  29.163  -3.749  0.00  0.00     0.204 C 
ENDBRANCH   5  30
TORSDOF 11
ENDMDL
MODEL 5
REMARK VINA RESULT:      -6.2      0.922      2.424
REMARK  11 active torsions:
REMARK  status: ('A' for Active; 'I' for Inactive)
REMARK    1  A    between atoms: C_4  and  C_2 
REMARK    2  A    between atoms: O_14  and  C_2 
REMARK    3  A    between atoms: C_5  and  C_3 
REMARK    4  A    between atoms: O_15  and  C_3 
REMARK    5  A    between atoms: C_6  and  O_16 
REMARK    6  A    between atoms: C_8  and  O_18 
REMARK    7  A    between atoms: C_9  and  O_19 
REMARK    8  A    between atoms: C_10  and  O_20 
REMARK    9  A    between atoms: C_11  and  O_24 
REMARK   10  A    between atoms: C_12  and  O_21 
REMARK   11  A    between atoms: C_13  and  O_24 
ROOT
HETATM    1  C   UNK N   1      34.686  15.566   9.338  0.00  0.00     0.179 C 
HETATM    2  C   UNK N   1      33.149  15.579   9.253  0.00  0.00     0.181 C 
HETATM    3  C   UNK N   1      33.700  16.735   7.041  0.00  0.00     0.205 C 
HETATM    4  C   UNK N   1      32.624  16.549   8.158  0.00  0.00     0.189 C 
HETATM    5  C   UNK N   1      34.585  15.478   6.907  0.00  0.00     0.290 C 
HETATM    6  O   UNK N   1      32.756  14.270   8.947  0.00  0.00    -0.390 OA
HETATM    7  O   UNK N   1      35.316  15.196   8.106  0.00  0.00    -0.349 OA
HETATM    8  H   UNK N   1      32.463  13.350   8.851  0.00  0.00     0.210 HD
ENDROOT
BRANCH   1   9
HETATM    9  C   UNK N   1      35.254  16.881   9.865  0.00  0.00     0.198 C 
BRANCH   9  10
HETATM   10  O   UNK N   1      34.919  17.044  11.210  0.00  0.00    -0.398 OA
HETATM   11  H   UNK N   1      34.175  16.555  11.597  0.00  0.00     0.209 HD
ENDBRANCH   9  10
ENDBRANCH   1   9
BRANCH   4  12
HETATM   12  O   UNK N   1      31.387  16.010   7.702  0.00  0.00    -0.348 OA
BRANCH  12  13
HETATM   13  C   UNK N   1      30.379  16.981   7.474  0.00  0.00     0.292 C 
HETATM   14  C   UNK N   1      29.442  17.045   8.703  0.00  0.00     0.204 C 
HETATM   15  C   UNK N   1      28.083  17.702   8.333  0.00  0.00     0.183 C 
HETATM   16  C   UNK N   1      28.244  18.562   7.080  0.00  0.00     0.180 C 
HETATM   17  C   UNK N   1      28.684  17.597   5.933  0.00  0.00     0.179 C 
HETATM   18  O   UNK N   1      29.660  16.621   6.312  0.00  0.00    -0.348 OA
BRANCH  14  19
HETATM   19  O   UNK N   1      30.093  17.767   9.709  0.00  0.00    -0.388 OA
HETATM   20  H   UNK N   1      30.965  18.095   9.978  0.00  0.00     0.210 HD
ENDBRANCH  14  19
BRANCH  15  21
HETATM   21  O   UNK N   1      27.567  18.436   9.406  0.00  0.00    -0.390 OA
HETATM   22  H   UNK N   1      28.059  18.984  10.040  0.00  0.00     0.210 HD
ENDBRANCH  15  21
BRANCH  16  23
HETATM   23  O   UNK N   1      27.037  19.189   6.749  0.00  0.00    -0.390 OA
HETATM   24  H   UNK N   1      26.880  20.109   7.010  0.00  0.00     0.210 HD
ENDBRANCH  16  23
BRANCH  17  25
HETATM   25  C   UNK N   1      29.175  18.350   4.699  0.00  0.00     0.198 C 
BRANCH  25  26
HETATM   26  O   UNK N   1      28.117  18.636   3.835  0.00  0.00    -0.398 OA
HETATM   27  H   UNK N   1      28.238  18.610   2.873  0.00  0.00     0.209 HD
ENDBRANCH  25  26
ENDBRANCH  17  25
ENDBRANCH  12  13
ENDBRANCH   4  12
BRANCH   3  28
HETATM   28  O   UNK N   1      34.524  17.820   7.356  0.00  0.00    -0.388 OA
HETATM   29  H   UNK N   1      35.372  18.284   7.430  0.00  0.00     0.210 HD
ENDBRANCH   3  28
BRANCH   5  30
HETATM   30  O   UNK N   1      35.534  15.685   5.880  0.00  0.00    -0.363 OA
HETATM   31  C   UNK N   1      36.419  14.595   5.847  0.00  0.00     0.204 C 
ENDBRANCH   5  30
TORSDOF 11
ENDMDL
MODEL 6
REMARK VINA RESULT:      -6.1      2.989      7.256
REMARK  11 active torsions:
REMARK  status: ('A' for Active; 'I' for Inactive)
REMARK    1  A    between atoms: C_4  and  C_2 
REMARK    2  A    between atoms: O_14  and  C_2 
REMARK    3  A    between atoms: C_5  and  C_3 
REMARK    4  A    between atoms: O_15  and  C_3 
REMARK    5  A    between atoms: C_6  and  O_16 
REMARK    6  A    between atoms: C_8  and  O_18 
REMARK    7  A    between atoms: C_9  and  O_19 
REMARK    8  A    between atoms: C_10  and  O_20 
REMARK    9  A    between atoms: C_11  and  O_24 
REMARK   10  A    between atoms: C_12  and  O_21 
REMARK   11  A    between atoms: C_13  and  O_24 
ROOT
HETATM    1  C   UNK N   1      33.273  17.655   6.223  0.00  0.00     0.179 C 
HETATM    2  C   UNK N   1      33.621  17.870   7.707  0.00  0.00     0.181 C 
HETATM    3  C   UNK N   1      34.107  15.368   7.523  0.00  0.00     0.205 C 
HETATM    4  C   UNK N   1      33.728  16.533   8.492  0.00  0.00     0.189 C 
HETATM    5  C   UNK N   1      34.941  15.884   6.332  0.00  0.00     0.290 C 
HETATM    6  O   UNK N   1      34.857  18.530   7.734  0.00  0.00    -0.390 OA
HETATM    7  O   UNK N   1      34.222  16.833   5.535  0.00  0.00    -0.349 OA
HETATM    8  H   UNK N   1      35.652  19.086   7.767  0.00  0.00     0.210 HD
ENDROOT
BRANCH   1   9
HETATM    9  C   UNK N   1      31.854  17.127   6.026  0.00  0.00     0.198 C 
BRANCH   9  10
HETATM   10  O   UNK N   1      31.780  16.379   4.850  0.00  0.00    -0.398 OA
HETATM   11  H   UNK N   1      30.934  16.006   4.554  0.00  0.00     0.209 HD
ENDBRANCH   9  10
ENDBRANCH   1   9
BRANCH   4  12
HETATM   12  O   UNK N   1      34.663  16.756   9.542  0.00  0.00    -0.348 OA
BRANCH  12  13
HETATM   13  C   UNK N   1      35.238  15.572  10.068  0.00  0.00     0.292 C 
HETATM   14  C   UNK N   1      34.645  15.293  11.470  0.00  0.00     0.204 C 
HETATM   15  C   UNK N   1      35.557  14.329  12.279  0.00  0.00     0.183 C 
HETATM   16  C   UNK N   1      36.441  13.525  11.325  0.00  0.00     0.180 C 
HETATM   17  C   UNK N   1      37.327  14.560  10.562  0.00  0.00     0.179 C 
HETATM   18  O   UNK N   1      36.639  15.743  10.141  0.00  0.00    -0.348 OA
BRANCH  14  19
HETATM   19  O   UNK N   1      33.366  14.753  11.301  0.00  0.00    -0.388 OA
HETATM   20  H   UNK N   1      32.590  14.781  10.719  0.00  0.00     0.210 HD
ENDBRANCH  14  19
BRANCH  15  21
HETATM   21  O   UNK N   1      34.802  13.499  13.113  0.00  0.00    -0.390 OA
HETATM   22  H   UNK N   1      33.834  13.435  13.167  0.00  0.00     0.210 HD
ENDBRANCH  15  21
BRANCH  16  23
HETATM   23  O   UNK N   1      37.247  12.627  12.034  0.00  0.00    -0.390 OA
HETATM   24  H   UNK N   1      37.647  11.870  11.580  0.00  0.00     0.210 HD
ENDBRANCH  16  23
BRANCH  17  25
HETATM   25  C   UNK N   1      38.043  13.940   9.366  0.00  0.00     0.198 C 
BRANCH  25  26
HETATM   26  O   UNK N   1      39.063  13.084   9.784  0.00  0.00    -0.398 OA
HETATM   27  H   UNK N   1      39.000  12.126   9.642  0.00  0.00     0.209 HD
ENDBRANCH  25  26
ENDBRANCH  17  25
ENDBRANCH  12  13
ENDBRANCH   4  12
BRANCH   3  28
HETATM   28  O   UNK N   1      32.944  14.775   7.021  0.00  0.00    -0.388 OA
HETATM   29  H   UNK N   1      32.432  14.250   6.386  0.00  0.00     0.210 HD
ENDBRANCH   3  28
BRANCH   5  30
HETATM   30  O   UNK N   1      35.271  14.798   5.490  0.00  0.00    -0.363 OA
HETATM   31  C   UNK N   1      36.551  14.329   5.826  0.00  0.00     0.204 C 
ENDBRANCH   5  30
TORSDOF 11
ENDMDL
MODEL 7
REMARK VINA RESULT:      -6.1      2.462      6.975
REMARK  11 active torsions:
REMARK  status: ('A' for Active; 'I' for Inactive)
REMARK    1  A    between atoms: C_4  and  C_2 
REMARK    2  A    between atoms: O_14  and  C_2 
REMARK    3  A    between atoms: C_5  and  C_3 
REMARK    4  A    between atoms: O_15  and  C_3 
REMARK    5  A    between atoms: C_6  and  O_16 
REMARK    6  A    between atoms: C_8  and  O_18 
REMARK    7  A    between atoms: C_9  and  O_19 
REMARK    8  A    between atoms: C_10  and  O_20 
REMARK    9  A    between atoms: C_11  and  O_24 
REMARK   10  A    between atoms: C_12  and  O_21 
REMARK   11  A    between atoms: C_13  and  O_24 
ROOT
HETATM    1  C   UNK N   1      32.582  15.499   5.774  0.00  0.00     0.179 C 
HETATM    2  C   UNK N   1      32.988  14.788   7.078  0.00  0.00     0.181 C 
HETATM    3  C   UNK N   1      32.019  16.938   8.061  0.00  0.00     0.205 C 
HETATM    4  C   UNK N   1      33.003  15.749   8.299  0.00  0.00     0.189 C 
HETATM    5  C   UNK N   1      30.848  16.518   7.148  0.00  0.00     0.290 C 
HETATM    6  O   UNK N   1      32.044  13.775   7.290  0.00  0.00    -0.390 OA
HETATM    7  O   UNK N   1      31.291  16.114   5.846  0.00  0.00    -0.349 OA
HETATM    8  H   UNK N   1      31.468  13.000   7.388  0.00  0.00     0.210 HD
ENDROOT
BRANCH   1   9
HETATM    9  C   UNK N   1      33.634  16.500   5.302  0.00  0.00     0.198 C 
BRANCH   9  10
HETATM   10  O   UNK N   1      33.026  17.531   4.584  0.00  0.00    -0.398 OA
HETATM   11  H   UNK N   1      32.412  17.333   3.859  0.00  0.00     0.209 HD
ENDBRANCH   9  10
ENDBRANCH   1   9
BRANCH   4  12
HETATM   12  O   UNK N   1      32.702  14.954   9.442  0.00  0.00    -0.348 OA
BRANCH  12  13
HETATM   13  C   UNK N   1      33.819  14.681  10.270  0.00  0.00     0.292 C 
HETATM   14  C   UNK N   1      34.951  15.688   9.953  0.00  0.00     0.204 C 
HETATM   15  C   UNK N   1      36.324  15.157  10.449  0.00  0.00     0.183 C 
HETATM   16  C   UNK N   1      36.114  14.113  11.546  0.00  0.00     0.180 C 
HETATM   17  C   UNK N   1      35.308  12.943  10.897  0.00  0.00     0.179 C 
HETATM   18  O   UNK N   1      34.245  13.356  10.030  0.00  0.00    -0.348 OA
BRANCH  14  19
HETATM   19  O   UNK N   1      34.632  16.906  10.562  0.00  0.00    -0.388 OA
HETATM   20  H   UNK N   1      34.419  17.304  11.420  0.00  0.00     0.210 HD
ENDBRANCH  14  19
BRANCH  15  21
HETATM   21  O   UNK N   1      37.147  16.203  10.877  0.00  0.00    -0.390 OA
HETATM   22  H   UNK N   1      37.380  16.439  11.789  0.00  0.00     0.210 HD
ENDBRANCH  15  21
BRANCH  16  23
HETATM   23  O   UNK N   1      37.341  13.646  12.029  0.00  0.00    -0.390 OA
HETATM   24  H   UNK N   1      37.866  14.194  12.632  0.00  0.00     0.210 HD
ENDBRANCH  16  23
BRANCH  17  25
HETATM   25  C   UNK N   1      34.761  11.969  11.938  0.00  0.00     0.198 C 
BRANCH  25  26
HETATM   26  O   UNK N   1      34.479  12.627  13.136  0.00  0.00    -0.398 OA
HETATM   27  H   UNK N   1      34.988  13.406  13.410  0.00  0.00     0.209 HD
ENDBRANCH  25  26
ENDBRANCH  17  25
ENDBRANCH  12  13
ENDBRANCH   4  12
BRANCH   3  28
HETATM   28  O   UNK N   1      32.697  17.996   7.446  0.00  0.00    -0.388 OA
HETATM   29  H   UNK N   1      33.426  18.399   6.949  0.00  0.00     0.210 HD
ENDBRANCH   3  28
BRANCH   5  30
HETATM   30  O   UNK N   1      29.978  17.617   6.968  0.00  0.00    -0.363 OA
HETATM   31  C   UNK N   1      29.408  17.548   5.687  0.00  0.00     0.204 C 
ENDBRANCH   5  30
TORSDOF 11
ENDMDL
MODEL 8
REMARK VINA RESULT:      -6.0      4.197      7.418
REMARK  11 active torsions:
REMARK  status: ('A' for Active; 'I' for Inactive)
REMARK    1  A    between atoms: C_4  and  C_2 
REMARK    2  A    between atoms: O_14  and  C_2 
REMARK    3  A    between atoms: C_5  and  C_3 
REMARK    4  A    between atoms: O_15  and  C_3 
REMARK    5  A    between atoms: C_6  and  O_16 
REMARK    6  A    between atoms: C_8  and  O_18 
REMARK    7  A    between atoms: C_9  and  O_19 
REMARK    8  A    between atoms: C_10  and  O_20 
REMARK    9  A    between atoms: C_11  and  O_24 
REMARK   10  A    between atoms: C_12  and  O_21 
REMARK   11  A    between atoms: C_13  and  O_24 
ROOT
HETATM    1  C   UNK N   1      36.928  11.565  12.505  0.00  0.00     0.179 C 
HETATM    2  C   UNK N   1      37.102  12.529  11.318  0.00  0.00     0.181 C 
HETATM    3  C   UNK N   1      35.577  13.954  12.792  0.00  0.00     0.205 C 
HETATM    4  C   UNK N   1      36.061  13.682  11.332  0.00  0.00     0.189 C 
HETATM    5  C   UNK N   1      36.675  13.601  13.816  0.00  0.00     0.290 C 
HETATM    6  O   UNK N   1      38.394  13.062  11.423  0.00  0.00    -0.390 OA
HETATM    7  O   UNK N   1      37.031  12.214  13.777  0.00  0.00    -0.349 OA
HETATM    8  H   UNK N   1      39.320  13.350  11.417  0.00  0.00     0.210 HD
ENDROOT
BRANCH   1   9
HETATM    9  C   UNK N   1      35.641  10.751  12.413  0.00  0.00     0.198 C 
BRANCH   9  10
HETATM   10  O   UNK N   1      35.203  10.400  13.692  0.00  0.00    -0.398 OA
HETATM   11  H   UNK N   1      34.879   9.503  13.874  0.00  0.00     0.209 HD
ENDBRANCH   9  10
ENDBRANCH   1   9
BRANCH   4  12
HETATM   12  O   UNK N   1      36.684  14.796  10.700  0.00  0.00    -0.348 OA
BRANCH  12  13
HETATM   13  C   UNK N   1      35.961  15.317   9.597  0.00  0.00     0.292 C 
HETATM   14  C   UNK N   1      34.902  16.324  10.108  0.00  0.00     0.204 C 
HETATM   15  C   UNK N   1      33.790  16.549   9.046  0.00  0.00     0.183 C 
HETATM   16  C   UNK N   1      34.311  16.174   7.659  0.00  0.00     0.180 C 
HETATM   17  C   UNK N   1      34.675  14.656   7.716  0.00  0.00     0.179 C 
HETATM   18  O   UNK N   1      35.346  14.246   8.913  0.00  0.00    -0.348 OA
BRANCH  14  19
HETATM   19  O   UNK N   1      35.555  17.522  10.414  0.00  0.00    -0.388 OA
HETATM   20  H   UNK N   1      35.796  18.385  10.040  0.00  0.00     0.210 HD
ENDBRANCH  14  19
BRANCH  15  21
HETATM   21  O   UNK N   1      33.311  17.861   9.086  0.00  0.00    -0.390 OA
HETATM   22  H   UNK N   1      33.721  18.653   8.702  0.00  0.00     0.210 HD
ENDBRANCH  15  21
BRANCH  16  23
HETATM   23  O   UNK N   1      33.332  16.400   6.684  0.00  0.00    -0.390 OA
HETATM   24  H   UNK N   1      32.408  16.166   6.860  0.00  0.00     0.210 HD
ENDBRANCH  16  23
BRANCH  17  25
HETATM   25  C   UNK N   1      35.487  14.209   6.504  0.00  0.00     0.198 C 
BRANCH  25  26
HETATM   26  O   UNK N   1      35.902  15.307   5.749  0.00  0.00    -0.398 OA
HETATM   27  H   UNK N   1      36.508  15.967   6.120  0.00  0.00     0.209 HD
ENDBRANCH  25  26
ENDBRANCH  17  25
ENDBRANCH  12  13
ENDBRANCH   4  12
BRANCH   3  28
HETATM   28  O   UNK N   1      34.451  13.172  13.069  0.00  0.00    -0.388 OA
HETATM   29  H   UNK N   1      33.831  12.702  13.648  0.00  0.00     0.210 HD
ENDBRANCH   3  28
BRANCH   5  30
HETATM   30  O   UNK N   1      36.201  13.873  15.120  0.00  0.00    -0.363 OA
HETATM   31  C   UNK N   1      37.071  14.779  15.746  0.00  0.00     0.204 C 
ENDBRANCH   5  30
TORSDOF 11
ENDMDL
MODEL 9
REMARK VINA RESULT:      -5.9      9.672     11.811
REMARK  11 active torsions:
REMARK  status: ('A' for Active; 'I' for Inactive)
REMARK    1  A    between atoms: C_4  and  C_2 
REMARK    2  A    between atoms: O_14  and  C_2 
REMARK    3  A    between atoms: C_5  and  C_3 
REMARK    4  A    between atoms: O_15  and  C_3 
REMARK    5  A    between atoms: C_6  and  O_16 
REMARK    6  A    between atoms: C_8  and  O_18 
REMARK    7  A    between atoms: C_9  and  O_19 
REMARK    8  A    between atoms: C_10  and  O_20 
REMARK    9  A    between atoms: C_11  and  O_24 
REMARK   10  A    between atoms: C_12  and  O_21 
REMARK   11  A    between atoms: C_13  and  O_24 
ROOT
HETATM    1  C   UNK N   1      22.537  14.832   6.263  0.00  0.00     0.179 C 
HETATM    2  C   UNK N   1      22.395  16.149   5.479  0.00  0.00     0.181 C 
HETATM    3  C   UNK N   1      20.173  16.174   6.739  0.00  0.00     0.205 C 
HETATM    4  C   UNK N   1      20.937  16.685   5.477  0.00  0.00     0.189 C 
HETATM    5  C   UNK N   1      21.139  15.943   7.919  0.00  0.00     0.290 C 
HETATM    6  O   UNK N   1      23.236  17.078   6.107  0.00  0.00    -0.390 OA
HETATM    7  O   UNK N   1      22.123  14.942   7.630  0.00  0.00    -0.349 OA
HETATM    8  H   UNK N   1      23.897  17.696   6.457  0.00  0.00     0.210 HD
ENDROOT
BRANCH   1   9
HETATM    9  C   UNK N   1      21.833  13.664   5.576  0.00  0.00     0.198 C 
BRANCH   9  10
HETATM   10  O   UNK N   1      21.340  12.773   6.531  0.00  0.00    -0.398 OA
HETATM   11  H   UNK N   1      20.563  12.223   6.339  0.00  0.00     0.209 HD
ENDBRANCH   9  10
ENDBRANCH   1   9
BRANCH   4  12
HETATM   12  O   UNK N   1      21.029  18.103   5.377  0.00  0.00    -0.348 OA
BRANCH  12  13
HETATM   13  C   UNK N   1      20.777  18.611   4.078  0.00  0.00     0.292 C 
HETATM   14  C   UNK N   1      20.172  17.491   3.198  0.00  0.00     0.204 C 
HETATM   15  C   UNK N   1      20.329  17.824   1.688  0.00  0.00     0.183 C 
HETATM   16  C   UNK N   1      20.517  19.330   1.503  0.00  0.00     0.180 C 
HETATM   17  C   UNK N   1      21.831  19.709   2.258  0.00  0.00     0.179 C 
HETATM   18  O   UNK N   1      21.994  19.076   3.532  0.00  0.00    -0.348 OA
BRANCH  14  19
HETATM   19  O   UNK N   1      18.825  17.347   3.544  0.00  0.00    -0.388 OA
HETATM   20  H   UNK N   1      18.108  17.774   4.038  0.00  0.00     0.210 HD
ENDBRANCH  14  19
BRANCH  15  21
HETATM   21  O   UNK N   1      19.246  17.339   0.948  0.00  0.00    -0.390 OA
HETATM   22  H   UNK N   1      19.075  16.422   0.681  0.00  0.00     0.210 HD
ENDBRANCH  15  21
BRANCH  16  23
HETATM   23  O   UNK N   1      20.627  19.653   0.146  0.00  0.00    -0.390 OA
HETATM   24  H   UNK N   1      19.830  19.769  -0.393  0.00  0.00     0.210 HD
ENDBRANCH  16  23
BRANCH  17  25
HETATM   25  C   UNK N   1      21.991  21.219   2.419  0.00  0.00     0.198 C 
BRANCH  25  26
HETATM   26  O   UNK N   1      20.933  21.899   1.814  0.00  0.00    -0.398 OA
HETATM   27  H   UNK N   1      20.024  21.794   2.136  0.00  0.00     0.209 HD
ENDBRANCH  25  26
ENDBRANCH  17  25
ENDBRANCH  12  13
ENDBRANCH   4  12
BRANCH   3  28
HETATM   28  O   UNK N   1      19.538  14.962   6.448  0.00  0.00    -0.388 OA
HETATM   29  H   UNK N   1      19.397  14.005   6.525  0.00  0.00     0.210 HD
ENDBRANCH   3  28
BRANCH   5  30
HETATM   30  O   UNK N   1      20.406  15.493   9.041  0.00  0.00    -0.363 OA
HETATM   31  C   UNK N   1      21.073  14.401   9.618  0.00  0.00     0.204 C 
ENDBRANCH   5  30
TORSDOF 11
ENDMDL
