MODEL 1
REMARK VINA RESULT:      -8.7      0.000      0.000
REMARK  8 active torsions:
REMARK  status: ('A' for Active; 'I' for Inactive)
REMARK    1  A    between atoms: C_9  and  C_8 
REMARK    2  A    between atoms: C_25  and  C_8 
REMARK    3  A    between atoms: C_26  and  C_9 
REMARK    4  A    between atoms: C_24  and  O_41 
REMARK    5  A    between atoms: O_37  and  C_25 
REMARK    6  A    between atoms: O_41  and  C_26 
REMARK    7  A    between atoms: C_31  and  C_28 
REMARK    8  A    between atoms: O_40  and  C_28 
ROOT
HETATM    1  C   UNK N   1      23.799  14.681   1.697  0.00  0.00     0.018 C 
HETATM    2  C   UNK N   1      24.242  13.295   3.644  0.00  0.00     0.018 C 
HETATM    3  C   UNK N   1      33.995  14.455   4.496  0.00  0.00     0.016 C 
HETATM    4  C   UNK N   1      31.452  17.977   7.771  0.00  0.00     0.026 C 
HETATM    5  C   UNK N   1      25.985  14.308   5.638  0.00  0.00     0.016 C 
HETATM    6  C   UNK N   1      30.757  13.716   3.569  0.00  0.00     0.021 C 
HETATM    7  C   UNK N   1      28.269  13.483   4.521  0.00  0.00     0.017 C 
HETATM    8  C   UNK N   1      26.648  14.507   2.388  0.00  0.00     0.007 C 
HETATM    9  C   UNK N   1      23.751  15.988   5.371  0.00  0.00     0.034 C 
HETATM   10  C   UNK N   1      25.184  16.578   5.333  0.00  0.00     0.013 C 
HETATM   11  C   UNK N   1      28.113  14.930   2.502  0.00  0.00     0.011 C 
HETATM   12  C   UNK N   1      33.868  16.765   5.165  0.00  0.00     0.011 C 
HETATM   13  C   UNK N   1      33.026  17.768   5.912  0.00  0.00     0.021 C 
HETATM   14  C   UNK N   1      32.362  15.947   3.380  0.00  0.00     0.011 C 
HETATM   15  C   UNK N   1      30.825  16.166   3.339  0.00  0.00     0.015 C 
HETATM   16  C   UNK N   1      29.667  15.841   6.430  0.00  0.00     0.054 C 
HETATM   17  C   UNK N   1      32.410  15.687   7.278  0.00  0.00     0.030 C 
HETATM   18  C   UNK N   1      30.534  15.309   5.537  0.00  0.00    -0.062 C 
HETATM   19  C   UNK N   1      31.998  15.112   5.897  0.00  0.00     0.025 C 
HETATM   20  C   UNK N   1      28.268  16.214   6.114  0.00  0.00     0.155 C 
HETATM   21  C   UNK N   1      25.681  15.354   3.243  0.00  0.00     0.005 C 
HETATM   22  C   UNK N   1      23.217  15.573   3.985  0.00  0.00     0.140 C 
HETATM   23  C   UNK N   1      27.693  15.977   4.732  0.00  0.00     0.077 C 
HETATM   24  C   UNK N   1      24.245  14.745   3.158  0.00  0.00    -0.017 C 
HETATM   25  C   UNK N   1      33.000  15.581   4.753  0.00  0.00    -0.036 C 
HETATM   26  C   UNK N   1      32.679  17.219   7.302  0.00  0.00     0.042 C 
HETATM   27  C   UNK N   1      26.157  15.546   4.734  0.00  0.00    -0.028 C 
HETATM   28  C   UNK N   1      30.129  15.039   4.098  0.00  0.00    -0.012 C 
HETATM   29  C   UNK N   1      28.562  14.900   3.967  0.00  0.00    -0.021 C 
HETATM   30  O   UNK N   1      27.643  16.873   6.929  0.00  0.00    -0.293 OA
ENDROOT
BRANCH  22  31
HETATM   31  O   UNK N   1      22.837  16.710   3.290  0.00  0.00    -0.315 OA
BRANCH  31  32
HETATM   32  C   UNK N   1      21.567  17.211   3.242  0.00  0.00     0.259 C 
HETATM   33  O   UNK N   1      20.629  16.431   3.197  0.00  0.00    -0.265 OA
BRANCH  32  34
HETATM   34  C   UNK N   1      21.264  18.692   3.231  0.00  0.00     0.121 C 
BRANCH  34  35
HETATM   35  C   UNK N   1      20.401  19.099   2.037  0.00  0.00     0.119 C 
BRANCH  35  36
HETATM   36  C   UNK N   1      20.979  20.244   1.256  0.00  0.00     0.139 C 
HETATM   37  O   UNK N   1      21.809  20.970   1.778  0.00  0.00    -0.650 OA
BRANCH  36  38
HETATM   38  O   UNK N   1      20.601  20.473  -0.018  0.00  0.00    -0.776 OA
HETATM   39  H   UNK N   1      20.702  20.918  -0.837  0.00  0.00     0.167 HD
ENDBRANCH  36  38
ENDBRANCH  35  36
ENDBRANCH  34  35
ENDBRANCH  32  34
ENDBRANCH  31  32
ENDBRANCH  22  31
BRANCH  26  40
HETATM   40  C   UNK N   1      33.799  17.470   8.288  0.00  0.00     0.148 C 
HETATM   41  O   UNK N   1      34.694  18.264   8.036  0.00  0.00    -0.649 OA
BRANCH  40  42
HETATM   42  O   UNK N   1      33.818  16.807   9.462  0.00  0.00    -0.776 OA
HETATM   43  H   UNK N   1      34.503  16.356   9.916  0.00  0.00     0.167 HD
ENDBRANCH  40  42
ENDBRANCH  26  40
TORSDOF 8
ENDMDL
MODEL 2
REMARK VINA RESULT:      -8.6      1.987      9.976
REMARK  8 active torsions:
REMARK  status: ('A' for Active; 'I' for Inactive)
REMARK    1  A    between atoms: C_9  and  C_8 
REMARK    2  A    between atoms: C_25  and  C_8 
REMARK    3  A    between atoms: C_26  and  C_9 
REMARK    4  A    between atoms: C_24  and  O_41 
REMARK    5  A    between atoms: O_37  and  C_25 
REMARK    6  A    between atoms: O_41  and  C_26 
REMARK    7  A    between atoms: C_31  and  C_28 
REMARK    8  A    between atoms: O_40  and  C_28 
ROOT
HETATM    1  C   UNK N   1      31.391  14.149   4.185  0.00  0.00     0.018 C 
HETATM    2  C   UNK N   1      30.626  16.080   2.924  0.00  0.00     0.018 C 
HETATM    3  C   UNK N   1      21.291  13.470   1.125  0.00  0.00     0.016 C 
HETATM    4  C   UNK N   1      21.475  16.626   5.553  0.00  0.00     0.026 C 
HETATM    5  C   UNK N   1      28.077  17.157   3.542  0.00  0.00     0.016 C 
HETATM    6  C   UNK N   1      24.716  13.811   1.326  0.00  0.00     0.021 C 
HETATM    7  C   UNK N   1      26.652  15.546   1.956  0.00  0.00     0.017 C 
HETATM    8  C   UNK N   1      28.630  13.896   3.217  0.00  0.00     0.007 C 
HETATM    9  C   UNK N   1      29.752  17.303   5.791  0.00  0.00     0.034 C 
HETATM   10  C   UNK N   1      28.336  16.685   5.908  0.00  0.00     0.013 C 
HETATM   11  C   UNK N   1      27.170  13.443   3.181  0.00  0.00     0.011 C 
HETATM   12  C   UNK N   1      20.578  13.671   3.417  0.00  0.00     0.011 C 
HETATM   13  C   UNK N   1      20.804  14.437   4.696  0.00  0.00     0.021 C 
HETATM   14  C   UNK N   1      22.788  12.672   2.931  0.00  0.00     0.011 C 
HETATM   15  C   UNK N   1      24.124  13.090   3.604  0.00  0.00     0.015 C 
HETATM   16  C   UNK N   1      24.103  16.389   3.946  0.00  0.00     0.054 C 
HETATM   17  C   UNK N   1      21.375  16.313   3.044  0.00  0.00     0.030 C 
HETATM   18  C   UNK N   1      23.791  15.388   3.092  0.00  0.00    -0.062 C 
HETATM   19  C   UNK N   1      22.397  15.283   2.492  0.00  0.00     0.025 C 
HETATM   20  C   UNK N   1      25.379  16.477   4.696  0.00  0.00     0.155 C 
HETATM   21  C   UNK N   1      28.968  14.834   4.397  0.00  0.00     0.005 C 
HETATM   22  C   UNK N   1      30.845  16.277   5.427  0.00  0.00     0.140 C 
HETATM   23  C   UNK N   1      26.462  15.434   4.514  0.00  0.00     0.077 C 
HETATM   24  C   UNK N   1      30.438  15.342   4.250  0.00  0.00    -0.017 C 
HETATM   25  C   UNK N   1      21.804  13.807   2.521  0.00  0.00    -0.036 C 
HETATM   26  C   UNK N   1      20.740  15.944   4.415  0.00  0.00     0.042 C 
HETATM   27  C   UNK N   1      27.944  16.020   4.576  0.00  0.00    -0.028 C 
HETATM   28  C   UNK N   1      24.751  14.242   2.821  0.00  0.00    -0.012 C 
HETATM   29  C   UNK N   1      26.237  14.657   3.156  0.00  0.00    -0.021 C 
HETATM   30  O   UNK N   1      25.472  17.303   5.589  0.00  0.00    -0.293 OA
ENDROOT
BRANCH  22  31
HETATM   31  O   UNK N   1      31.155  15.532   6.554  0.00  0.00    -0.315 OA
BRANCH  31  32
HETATM   32  C   UNK N   1      32.096  15.873   7.484  0.00  0.00     0.259 C 
HETATM   33  O   UNK N   1      31.766  15.938   8.658  0.00  0.00    -0.265 OA
BRANCH  32  34
HETATM   34  C   UNK N   1      33.532  16.185   7.130  0.00  0.00     0.121 C 
BRANCH  34  35
HETATM   35  C   UNK N   1      33.823  17.686   7.156  0.00  0.00     0.119 C 
BRANCH  35  36
HETATM   36  C   UNK N   1      34.482  18.136   8.429  0.00  0.00     0.139 C 
HETATM   37  O   UNK N   1      35.207  19.117   8.416  0.00  0.00    -0.650 OA
BRANCH  36  38
HETATM   38  O   UNK N   1      34.272  17.477   9.586  0.00  0.00    -0.776 OA
HETATM   39  H   UNK N   1      33.738  17.269  10.327  0.00  0.00     0.167 HD
ENDBRANCH  36  38
ENDBRANCH  35  36
ENDBRANCH  34  35
ENDBRANCH  32  34
ENDBRANCH  31  32
ENDBRANCH  22  31
BRANCH  26  40
HETATM   40  C   UNK N   1      19.312  16.442   4.405  0.00  0.00     0.148 C 
HETATM   41  O   UNK N   1      18.499  16.038   5.224  0.00  0.00    -0.649 OA
BRANCH  40  42
HETATM   42  O   UNK N   1      18.923  17.341   3.479  0.00  0.00    -0.776 OA
HETATM   43  H   UNK N   1      19.370  18.060   3.077  0.00  0.00     0.167 HD
ENDBRANCH  40  42
ENDBRANCH  26  40
TORSDOF 8
ENDMDL
MODEL 3
REMARK VINA RESULT:      -8.5      2.264      9.763
REMARK  8 active torsions:
REMARK  status: ('A' for Active; 'I' for Inactive)
REMARK    1  A    between atoms: C_9  and  C_8 
REMARK    2  A    between atoms: C_25  and  C_8 
REMARK    3  A    between atoms: C_26  and  C_9 
REMARK    4  A    between atoms: C_24  and  O_41 
REMARK    5  A    between atoms: O_37  and  C_25 
REMARK    6  A    between atoms: O_41  and  C_26 
REMARK    7  A    between atoms: C_31  and  C_28 
REMARK    8  A    between atoms: O_40  and  C_28 
ROOT
HETATM    1  C   UNK N   1      31.599  14.245   6.014  0.00  0.00     0.018 C 
HETATM    2  C   UNK N   1      31.330  15.478   3.938  0.00  0.00     0.018 C 
HETATM    3  C   UNK N   1      23.120  11.308   0.419  0.00  0.00     0.016 C 
HETATM    4  C   UNK N   1      21.837  15.858   3.110  0.00  0.00     0.026 C 
HETATM    5  C   UNK N   1      28.736  16.397   3.254  0.00  0.00     0.016 C 
HETATM    6  C   UNK N   1      26.280  12.101   1.547  0.00  0.00     0.021 C 
HETATM    7  C   UNK N   1      27.910  14.162   2.043  0.00  0.00     0.017 C 
HETATM    8  C   UNK N   1      29.325  13.332   4.396  0.00  0.00     0.007 C 
HETATM    9  C   UNK N   1      29.555  17.550   5.680  0.00  0.00     0.034 C 
HETATM   10  C   UNK N   1      28.174  16.854   5.570  0.00  0.00     0.013 C 
HETATM   11  C   UNK N   1      27.957  12.727   4.076  0.00  0.00     0.011 C 
HETATM   12  C   UNK N   1      21.676  12.245   2.104  0.00  0.00     0.011 C 
HETATM   13  C   UNK N   1      21.467  13.445   2.993  0.00  0.00     0.021 C 
HETATM   14  C   UNK N   1      23.908  11.406   2.765  0.00  0.00     0.011 C 
HETATM   15  C   UNK N   1      24.943  12.196   3.613  0.00  0.00     0.015 C 
HETATM   16  C   UNK N   1      24.851  15.365   2.639  0.00  0.00     0.054 C 
HETATM   17  C   UNK N   1      22.587  14.643   1.021  0.00  0.00     0.030 C 
HETATM   18  C   UNK N   1      24.832  14.092   2.183  0.00  0.00    -0.062 C 
HETATM   19  C   UNK N   1      23.722  13.612   1.261  0.00  0.00     0.025 C 
HETATM   20  C   UNK N   1      25.798  15.871   3.660  0.00  0.00     0.155 C 
HETATM   21  C   UNK N   1      29.256  14.668   5.168  0.00  0.00     0.005 C 
HETATM   22  C   UNK N   1      30.692  16.599   6.104  0.00  0.00     0.140 C 
HETATM   23  C   UNK N   1      26.866  14.969   4.246  0.00  0.00     0.077 C 
HETATM   24  C   UNK N   1      30.695  15.258   5.312  0.00  0.00    -0.017 C 
HETATM   25  C   UNK N   1      23.135  12.189   1.663  0.00  0.00    -0.036 C 
HETATM   26  C   UNK N   1      21.521  14.727   2.151  0.00  0.00     0.042 C 
HETATM   27  C   UNK N   1      28.247  15.708   4.544  0.00  0.00    -0.028 C 
HETATM   28  C   UNK N   1      25.813  13.048   2.691  0.00  0.00    -0.012 C 
HETATM   29  C   UNK N   1      27.103  13.730   3.293  0.00  0.00    -0.021 C 
HETATM   30  O   UNK N   1      25.595  16.970   4.149  0.00  0.00    -0.293 OA
ENDROOT
BRANCH  22  31
HETATM   31  O   UNK N   1      30.594  16.358   7.466  0.00  0.00    -0.315 OA
BRANCH  31  32
HETATM   32  C   UNK N   1      30.693  17.312   8.439  0.00  0.00     0.259 C 
HETATM   33  O   UNK N   1      29.789  17.417   9.252  0.00  0.00    -0.265 OA
BRANCH  32  34
HETATM   34  C   UNK N   1      31.869  18.254   8.554  0.00  0.00     0.121 C 
BRANCH  34  35
HETATM   35  C   UNK N   1      33.205  17.513   8.607  0.00  0.00     0.119 C 
BRANCH  35  36
HETATM   36  C   UNK N   1      34.287  18.192   7.819  0.00  0.00     0.139 C 
HETATM   37  O   UNK N   1      34.957  19.066   8.345  0.00  0.00    -0.650 OA
BRANCH  36  38
HETATM   38  O   UNK N   1      34.536  17.841   6.541  0.00  0.00    -0.776 OA
HETATM   39  H   UNK N   1      34.901  18.020   5.697  0.00  0.00     0.167 HD
ENDBRANCH  36  38
ENDBRANCH  35  36
ENDBRANCH  34  35
ENDBRANCH  32  34
ENDBRANCH  31  32
ENDBRANCH  22  31
BRANCH  26  40
HETATM   40  C   UNK N   1      20.187  15.015   1.499  0.00  0.00     0.148 C 
HETATM   41  O   UNK N   1      20.125  15.581   0.417  0.00  0.00    -0.649 OA
BRANCH  40  42
HETATM   42  O   UNK N   1      19.047  14.649   2.117  0.00  0.00    -0.776 OA
HETATM   43  H   UNK N   1      18.148  14.697   1.855  0.00  0.00     0.167 HD
ENDBRANCH  40  42
ENDBRANCH  26  40
TORSDOF 8
ENDMDL
MODEL 4
REMARK VINA RESULT:      -8.4      2.275      9.255
REMARK  8 active torsions:
REMARK  status: ('A' for Active; 'I' for Inactive)
REMARK    1  A    between atoms: C_9  and  C_8 
REMARK    2  A    between atoms: C_25  and  C_8 
REMARK    3  A    between atoms: C_26  and  C_9 
REMARK    4  A    between atoms: C_24  and  O_41 
REMARK    5  A    between atoms: O_37  and  C_25 
REMARK    6  A    between atoms: O_41  and  C_26 
REMARK    7  A    between atoms: C_31  and  C_28 
REMARK    8  A    between atoms: O_40  and  C_28 
ROOT
HETATM    1  C   UNK N   1      31.746  14.325   6.017  0.00  0.00     0.018 C 
HETATM    2  C   UNK N   1      31.497  15.454   3.880  0.00  0.00     0.018 C 
HETATM    3  C   UNK N   1      23.221  11.242   0.571  0.00  0.00     0.016 C 
HETATM    4  C   UNK N   1      22.012  15.944   3.026  0.00  0.00     0.026 C 
HETATM    5  C   UNK N   1      28.919  16.379   3.148  0.00  0.00     0.016 C 
HETATM    6  C   UNK N   1      26.394  12.041   1.660  0.00  0.00     0.021 C 
HETATM    7  C   UNK N   1      28.057  14.098   2.052  0.00  0.00     0.017 C 
HETATM    8  C   UNK N   1      29.458  13.367   4.445  0.00  0.00     0.007 C 
HETATM    9  C   UNK N   1      29.755  17.641   5.513  0.00  0.00     0.034 C 
HETATM   10  C   UNK N   1      28.363  16.962   5.437  0.00  0.00     0.013 C 
HETATM   11  C   UNK N   1      28.081  12.769   4.155  0.00  0.00     0.011 C 
HETATM   12  C   UNK N   1      21.793  12.286   2.205  0.00  0.00     0.011 C 
HETATM   13  C   UNK N   1      21.603  13.534   3.031  0.00  0.00     0.021 C 
HETATM   14  C   UNK N   1      24.011  11.447   2.910  0.00  0.00     0.011 C 
HETATM   15  C   UNK N   1      25.059  12.263   3.717  0.00  0.00     0.015 C 
HETATM   16  C   UNK N   1      25.017  15.379   2.583  0.00  0.00     0.054 C 
HETATM   17  C   UNK N   1      22.742  14.611   1.002  0.00  0.00     0.030 C 
HETATM   18  C   UNK N   1      24.978  14.084   2.192  0.00  0.00    -0.062 C 
HETATM   19  C   UNK N   1      23.860  13.576   1.295  0.00  0.00     0.025 C 
HETATM   20  C   UNK N   1      25.972  15.921   3.578  0.00  0.00     0.155 C 
HETATM   21  C   UNK N   1      29.410  14.741   5.148  0.00  0.00     0.005 C 
HETATM   22  C   UNK N   1      30.877  16.694   5.986  0.00  0.00     0.140 C 
HETATM   23  C   UNK N   1      27.025  15.033   4.210  0.00  0.00     0.077 C 
HETATM   24  C   UNK N   1      30.859  15.315   5.263  0.00  0.00    -0.017 C 
HETATM   25  C   UNK N   1      23.251  12.185   1.768  0.00  0.00    -0.036 C 
HETATM   26  C   UNK N   1      21.678  14.770   2.126  0.00  0.00     0.042 C 
HETATM   27  C   UNK N   1      28.418  15.764   4.472  0.00  0.00    -0.028 C 
HETATM   28  C   UNK N   1      25.942  13.053   2.754  0.00  0.00    -0.012 C 
HETATM   29  C   UNK N   1      27.243  13.743   3.322  0.00  0.00    -0.021 C 
HETATM   30  O   UNK N   1      25.787  17.047   4.010  0.00  0.00    -0.293 OA
ENDROOT
BRANCH  22  31
HETATM   31  O   UNK N   1      30.775  16.525   7.358  0.00  0.00    -0.315 OA
BRANCH  31  32
HETATM   32  C   UNK N   1      31.387  17.312   8.292  0.00  0.00     0.259 C 
HETATM   33  O   UNK N   1      32.497  16.995   8.691  0.00  0.00    -0.265 OA
BRANCH  32  34
HETATM   34  C   UNK N   1      30.751  18.555   8.869  0.00  0.00     0.121 C 
BRANCH  34  35
HETATM   35  C   UNK N   1      29.568  18.233   9.781  0.00  0.00     0.119 C 
BRANCH  35  36
HETATM   36  C   UNK N   1      28.252  18.221   9.058  0.00  0.00     0.139 C 
HETATM   37  O   UNK N   1      27.998  19.105   8.256  0.00  0.00    -0.650 OA
BRANCH  36  38
HETATM   38  O   UNK N   1      27.353  17.241   9.274  0.00  0.00    -0.776 OA
HETATM   39  H   UNK N   1      26.502  16.951   9.540  0.00  0.00     0.167 HD
ENDBRANCH  36  38
ENDBRANCH  35  36
ENDBRANCH  34  35
ENDBRANCH  32  34
ENDBRANCH  31  32
ENDBRANCH  22  31
BRANCH  26  40
HETATM   40  C   UNK N   1      20.348  15.046   1.458  0.00  0.00     0.148 C 
HETATM   41  O   UNK N   1      20.289  15.659   0.402  0.00  0.00    -0.649 OA
BRANCH  40  42
HETATM   42  O   UNK N   1      19.208  14.615   2.034  0.00  0.00    -0.776 OA
HETATM   43  H   UNK N   1      18.793  13.775   2.049  0.00  0.00     0.167 HD
ENDBRANCH  40  42
ENDBRANCH  26  40
TORSDOF 8
ENDMDL
MODEL 5
REMARK VINA RESULT:      -8.3      7.625     13.820
REMARK  8 active torsions:
REMARK  status: ('A' for Active; 'I' for Inactive)
REMARK    1  A    between atoms: C_9  and  C_8 
REMARK    2  A    between atoms: C_25  and  C_8 
REMARK    3  A    between atoms: C_26  and  C_9 
REMARK    4  A    between atoms: C_24  and  O_41 
REMARK    5  A    between atoms: O_37  and  C_25 
REMARK    6  A    between atoms: O_41  and  C_26 
REMARK    7  A    between atoms: C_31  and  C_28 
REMARK    8  A    between atoms: O_40  and  C_28 
ROOT
HETATM    1  C   UNK N   1      36.057   8.532  15.113  0.00  0.00     0.018 C 
HETATM    2  C   UNK N   1      37.876   9.968  14.382  0.00  0.00     0.018 C 
HETATM    3  C   UNK N   1      34.670  12.513   5.415  0.00  0.00     0.016 C 
HETATM    4  C   UNK N   1      33.278  16.359   9.002  0.00  0.00     0.026 C 
HETATM    5  C   UNK N   1      37.221  12.406  13.093  0.00  0.00     0.016 C 
HETATM    6  C   UNK N   1      35.828  10.951   8.262  0.00  0.00     0.021 C 
HETATM    7  C   UNK N   1      36.999  11.415  10.621  0.00  0.00     0.017 C 
HETATM    8  C   UNK N   1      35.737   9.523  12.367  0.00  0.00     0.007 C 
HETATM    9  C   UNK N   1      36.175  12.386  15.699  0.00  0.00     0.034 C 
HETATM   10  C   UNK N   1      35.268  12.743  14.493  0.00  0.00     0.013 C 
HETATM   11  C   UNK N   1      35.026   9.973  11.091  0.00  0.00     0.011 C 
HETATM   12  C   UNK N   1      32.851  13.867   6.225  0.00  0.00     0.011 C 
HETATM   13  C   UNK N   1      32.420  14.773   7.351  0.00  0.00     0.021 C 
HETATM   14  C   UNK N   1      33.344  11.721   7.352  0.00  0.00     0.011 C 
HETATM   15  C   UNK N   1      33.520  11.538   8.885  0.00  0.00     0.015 C 
HETATM   16  C   UNK N   1      35.187  14.162  10.040  0.00  0.00     0.054 C 
HETATM   17  C   UNK N   1      34.931  15.291   7.409  0.00  0.00     0.030 C 
HETATM   18  C   UNK N   1      35.135  13.276   9.019  0.00  0.00    -0.062 C 
HETATM   19  C   UNK N   1      35.070  13.755   7.577  0.00  0.00     0.025 C 
HETATM   20  C   UNK N   1      35.092  13.790  11.472  0.00  0.00     0.155 C 
HETATM   21  C   UNK N   1      35.515  10.461  13.574  0.00  0.00     0.005 C 
HETATM   22  C   UNK N   1      36.199  10.880  16.029  0.00  0.00     0.140 C 
HETATM   23  C   UNK N   1      34.968  12.339  11.893  0.00  0.00     0.077 C 
HETATM   24  C   UNK N   1      36.397   9.982  14.771  0.00  0.00    -0.017 C 
HETATM   25  C   UNK N   1      33.995  12.977   6.700  0.00  0.00    -0.036 C 
HETATM   26  C   UNK N   1      33.489  15.847   7.589  0.00  0.00     0.042 C 
HETATM   27  C   UNK N   1      35.744  11.986  13.240  0.00  0.00    -0.028 C 
HETATM   28  C   UNK N   1      34.978  11.784   9.264  0.00  0.00    -0.012 C 
HETATM   29  C   UNK N   1      35.453  11.397  10.719  0.00  0.00    -0.021 C 
HETATM   30  O   UNK N   1      34.940  14.677  12.295  0.00  0.00    -0.293 OA
ENDROOT
BRANCH  22  31
HETATM   31  O   UNK N   1      35.025  10.544  16.685  0.00  0.00    -0.315 OA
BRANCH  31  32
HETATM   32  C   UNK N   1      34.934  10.218  18.009  0.00  0.00     0.259 C 
HETATM   33  O   UNK N   1      34.095   9.402  18.356  0.00  0.00    -0.265 OA
BRANCH  32  34
HETATM   34  C   UNK N   1      35.816  10.830  19.072  0.00  0.00     0.121 C 
BRANCH  34  35
HETATM   35  C   UNK N   1      35.010  11.542  20.157  0.00  0.00     0.119 C 
BRANCH  35  36
HETATM   36  C   UNK N   1      34.930  13.028  19.953  0.00  0.00     0.139 C 
HETATM   37  O   UNK N   1      35.444  13.528  18.966  0.00  0.00    -0.650 OA
BRANCH  36  38
HETATM   38  O   UNK N   1      34.288  13.814  20.840  0.00  0.00    -0.776 OA
HETATM   39  H   UNK N   1      33.637  14.456  21.048  0.00  0.00     0.167 HD
ENDBRANCH  36  38
ENDBRANCH  35  36
ENDBRANCH  34  35
ENDBRANCH  32  34
ENDBRANCH  31  32
ENDBRANCH  22  31
BRANCH  26  40
HETATM   40  C   UNK N   1      33.326  17.008   6.634  0.00  0.00     0.148 C 
HETATM   41  O   UNK N   1      32.269  17.197   6.047  0.00  0.00    -0.649 OA
BRANCH  40  42
HETATM   42  O   UNK N   1      34.358  17.848   6.418  0.00  0.00    -0.776 OA
HETATM   43  H   UNK N   1      34.390  18.751   6.170  0.00  0.00     0.167 HD
ENDBRANCH  40  42
ENDBRANCH  26  40
TORSDOF 8
ENDMDL
MODEL 6
REMARK VINA RESULT:      -8.3      3.963     11.225
REMARK  8 active torsions:
REMARK  status: ('A' for Active; 'I' for Inactive)
REMARK    1  A    between atoms: C_9  and  C_8 
REMARK    2  A    between atoms: C_25  and  C_8 
REMARK    3  A    between atoms: C_26  and  C_9 
REMARK    4  A    between atoms: C_24  and  O_41 
REMARK    5  A    between atoms: O_37  and  C_25 
REMARK    6  A    between atoms: O_41  and  C_26 
REMARK    7  A    between atoms: C_31  and  C_28 
REMARK    8  A    between atoms: O_40  and  C_28 
ROOT
HETATM    1  C   UNK N   1      35.973  11.794   9.282  0.00  0.00     0.018 C 
HETATM    2  C   UNK N   1      36.642  14.007   8.535  0.00  0.00     0.018 C 
HETATM    3  C   UNK N   1      29.291  16.107   2.312  0.00  0.00     0.016 C 
HETATM    4  C   UNK N   1      28.206  18.247   7.195  0.00  0.00     0.026 C 
HETATM    5  C   UNK N   1      34.654  16.021   8.371  0.00  0.00     0.016 C 
HETATM    6  C   UNK N   1      32.022  14.850   4.001  0.00  0.00     0.021 C 
HETATM    7  C   UNK N   1      33.805  15.438   5.905  0.00  0.00     0.017 C 
HETATM    8  C   UNK N   1      34.192  12.930   7.242  0.00  0.00     0.007 C 
HETATM    9  C   UNK N   1      34.883  15.112  11.018  0.00  0.00     0.034 C 
HETATM   10  C   UNK N   1      33.495  15.183  10.332  0.00  0.00     0.013 C 
HETATM   11  C   UNK N   1      32.902  13.187   6.463  0.00  0.00     0.011 C 
HETATM   12  C   UNK N   1      27.618  16.308   4.033  0.00  0.00     0.011 C 
HETATM   13  C   UNK N   1      27.394  16.720   5.467  0.00  0.00     0.021 C 
HETATM   14  C   UNK N   1      29.296  14.498   4.196  0.00  0.00     0.011 C 
HETATM   15  C   UNK N   1      30.150  14.184   5.455  0.00  0.00     0.015 C 
HETATM   16  C   UNK N   1      31.039  17.068   6.829  0.00  0.00     0.054 C 
HETATM   17  C   UNK N   1      29.307  18.337   4.918  0.00  0.00     0.030 C 
HETATM   18  C   UNK N   1      30.899  16.432   5.644  0.00  0.00    -0.062 C 
HETATM   19  C   UNK N   1      30.064  17.040   4.528  0.00  0.00     0.025 C 
HETATM   20  C   UNK N   1      31.697  16.479   8.019  0.00  0.00     0.155 C 
HETATM   21  C   UNK N   1      34.164  13.457   8.694  0.00  0.00     0.005 C 
HETATM   22  C   UNK N   1      35.601  13.762  10.818  0.00  0.00     0.140 C 
HETATM   23  C   UNK N   1      32.309  15.094   7.964  0.00  0.00     0.077 C 
HETATM   24  C   UNK N   1      35.573  13.268   9.341  0.00  0.00    -0.017 C 
HETATM   25  C   UNK N   1      29.095  15.996   3.820  0.00  0.00    -0.036 C 
HETATM   26  C   UNK N   1      27.980  18.119   5.701  0.00  0.00     0.042 C 
HETATM   27  C   UNK N   1      33.647  14.941   8.819  0.00  0.00    -0.028 C 
HETATM   28  C   UNK N   1      31.426  15.023   5.429  0.00  0.00    -0.012 C 
HETATM   29  C   UNK N   1      32.571  14.682   6.460  0.00  0.00    -0.021 C 
HETATM   30  O   UNK N   1      31.585  17.053   9.090  0.00  0.00    -0.293 OA
ENDROOT
BRANCH  22  31
HETATM   31  O   UNK N   1      35.027  12.818  11.656  0.00  0.00    -0.315 OA
BRANCH  31  32
HETATM   32  C   UNK N   1      35.254  12.723  13.000  0.00  0.00     0.259 C 
HETATM   33  O   UNK N   1      34.330  12.401  13.730  0.00  0.00    -0.265 OA
BRANCH  32  34
HETATM   34  C   UNK N   1      36.596  13.009  13.633  0.00  0.00     0.121 C 
BRANCH  34  35
HETATM   35  C   UNK N   1      36.693  14.437  14.169  0.00  0.00     0.119 C 
BRANCH  35  36
HETATM   36  C   UNK N   1      36.784  14.499  15.667  0.00  0.00     0.139 C 
HETATM   37  O   UNK N   1      36.153  13.702  16.342  0.00  0.00    -0.650 OA
BRANCH  36  38
HETATM   38  O   UNK N   1      37.563  15.415  16.275  0.00  0.00    -0.776 OA
HETATM   39  H   UNK N   1      37.797  16.305  16.454  0.00  0.00     0.167 HD
ENDBRANCH  36  38
ENDBRANCH  35  36
ENDBRANCH  34  35
ENDBRANCH  32  34
ENDBRANCH  31  32
ENDBRANCH  22  31
BRANCH  26  40
HETATM   40  C   UNK N   1      27.014  19.200   5.271  0.00  0.00     0.148 C 
HETATM   41  O   UNK N   1      27.219  19.865   4.265  0.00  0.00    -0.649 OA
BRANCH  40  42
HETATM   42  O   UNK N   1      25.911  19.442   6.006  0.00  0.00    -0.776 OA
HETATM   43  H   UNK N   1      25.715  20.099   6.645  0.00  0.00     0.167 HD
ENDBRANCH  40  42
ENDBRANCH  26  40
TORSDOF 8
ENDMDL
MODEL 7
REMARK VINA RESULT:      -8.0      3.180     10.696
REMARK  8 active torsions:
REMARK  status: ('A' for Active; 'I' for Inactive)
REMARK    1  A    between atoms: C_9  and  C_8 
REMARK    2  A    between atoms: C_25  and  C_8 
REMARK    3  A    between atoms: C_26  and  C_9 
REMARK    4  A    between atoms: C_24  and  O_41 
REMARK    5  A    between atoms: O_37  and  C_25 
REMARK    6  A    between atoms: O_41  and  C_26 
REMARK    7  A    between atoms: C_31  and  C_28 
REMARK    8  A    between atoms: O_40  and  C_28 
ROOT
HETATM    1  C   UNK N   1      35.815  12.569   7.617  0.00  0.00     0.018 C 
HETATM    2  C   UNK N   1      36.115  14.587   6.298  0.00  0.00     0.018 C 
HETATM    3  C   UNK N   1      27.312  15.191   1.902  0.00  0.00     0.016 C 
HETATM    4  C   UNK N   1      27.329  18.293   6.372  0.00  0.00     0.026 C 
HETATM    5  C   UNK N   1      34.009  16.485   6.257  0.00  0.00     0.016 C 
HETATM    6  C   UNK N   1      30.461  14.370   3.041  0.00  0.00     0.021 C 
HETATM    7  C   UNK N   1      32.616  15.378   4.262  0.00  0.00     0.017 C 
HETATM    8  C   UNK N   1      33.504  13.217   5.925  0.00  0.00     0.007 C 
HETATM    9  C   UNK N   1      34.956  16.158   8.880  0.00  0.00     0.034 C 
HETATM   10  C   UNK N   1      33.439  16.057   8.577  0.00  0.00     0.013 C 
HETATM   11  C   UNK N   1      32.045  13.279   5.471  0.00  0.00     0.011 C 
HETATM   12  C   UNK N   1      26.111  15.721   3.922  0.00  0.00     0.011 C 
HETATM   13  C   UNK N   1      26.224  16.421   5.253  0.00  0.00     0.021 C 
HETATM   14  C   UNK N   1      27.903  14.016   4.002  0.00  0.00     0.011 C 
HETATM   15  C   UNK N   1      29.065  13.991   5.033  0.00  0.00     0.015 C 
HETATM   16  C   UNK N   1      30.058  17.116   5.528  0.00  0.00     0.054 C 
HETATM   17  C   UNK N   1      27.818  17.921   3.917  0.00  0.00     0.030 C 
HETATM   18  C   UNK N   1      29.673  16.241   4.570  0.00  0.00    -0.062 C 
HETATM   19  C   UNK N   1      28.545  16.586   3.610  0.00  0.00     0.025 C 
HETATM   20  C   UNK N   1      31.033  16.803   6.599  0.00  0.00     0.155 C 
HETATM   21  C   UNK N   1      33.801  14.037   7.199  0.00  0.00     0.005 C 
HETATM   22  C   UNK N   1      35.697  14.809   8.774  0.00  0.00     0.140 C 
HETATM   23  C   UNK N   1      31.710  15.449   6.664  0.00  0.00     0.077 C 
HETATM   24  C   UNK N   1      35.337  14.015   7.483  0.00  0.00    -0.017 C 
HETATM   25  C   UNK N   1      27.507  15.397   3.400  0.00  0.00    -0.036 C 
HETATM   26  C   UNK N   1      26.747  17.848   5.044  0.00  0.00     0.042 C 
HETATM   27  C   UNK N   1      33.226  15.505   7.155  0.00  0.00    -0.028 C 
HETATM   28  C   UNK N   1      30.229  14.828   4.511  0.00  0.00    -0.012 C 
HETATM   29  C   UNK N   1      31.618  14.735   5.257  0.00  0.00    -0.021 C 
HETATM   30  O   UNK N   1      31.151  17.588   7.526  0.00  0.00    -0.293 OA
ENDROOT
BRANCH  22  31
HETATM   31  O   UNK N   1      35.420  14.053   9.902  0.00  0.00    -0.315 OA
BRANCH  31  32
HETATM   32  C   UNK N   1      36.187  14.023  11.032  0.00  0.00     0.259 C 
HETATM   33  O   UNK N   1      37.234  13.395  11.015  0.00  0.00    -0.265 OA
BRANCH  32  34
HETATM   34  C   UNK N   1      35.797  14.723  12.314  0.00  0.00     0.121 C 
BRANCH  34  35
HETATM   35  C   UNK N   1      36.137  13.896  13.554  0.00  0.00     0.119 C 
BRANCH  35  36
HETATM   36  C   UNK N   1      34.976  13.089  14.060  0.00  0.00     0.139 C 
HETATM   37  O   UNK N   1      34.623  13.206  15.222  0.00  0.00    -0.650 OA
BRANCH  36  38
HETATM   38  O   UNK N   1      34.313  12.245  13.245  0.00  0.00    -0.776 OA
HETATM   39  H   UNK N   1      34.158  11.386  12.903  0.00  0.00     0.167 HD
ENDBRANCH  36  38
ENDBRANCH  35  36
ENDBRANCH  34  35
ENDBRANCH  32  34
ENDBRANCH  31  32
ENDBRANCH  22  31
BRANCH  26  40
HETATM   40  C   UNK N   1      25.629  18.797   4.673  0.00  0.00     0.148 C 
HETATM   41  O   UNK N   1      25.765  19.607   3.766  0.00  0.00    -0.649 OA
BRANCH  40  42
HETATM   42  O   UNK N   1      24.465  18.757   5.351  0.00  0.00    -0.776 OA
HETATM   43  H   UNK N   1      24.255  18.930   6.247  0.00  0.00     0.167 HD
ENDBRANCH  40  42
ENDBRANCH  26  40
TORSDOF 8
ENDMDL
MODEL 8
REMARK VINA RESULT:      -8.0      5.850      9.913
REMARK  8 active torsions:
REMARK  status: ('A' for Active; 'I' for Inactive)
REMARK    1  A    between atoms: C_9  and  C_8 
REMARK    2  A    between atoms: C_25  and  C_8 
REMARK    3  A    between atoms: C_26  and  C_9 
REMARK    4  A    between atoms: C_24  and  O_41 
REMARK    5  A    between atoms: O_37  and  C_25 
REMARK    6  A    between atoms: O_41  and  C_26 
REMARK    7  A    between atoms: C_31  and  C_28 
REMARK    8  A    between atoms: O_40  and  C_28 
ROOT
HETATM    1  C   UNK N   1      32.764  18.333   8.082  0.00  0.00     0.018 C 
HETATM    2  C   UNK N   1      34.395  17.088   6.781  0.00  0.00     0.018 C 
HETATM    3  C   UNK N   1      37.954  11.021  13.688  0.00  0.00     0.016 C 
HETATM    4  C   UNK N   1      34.025   8.495  10.899  0.00  0.00     0.026 C 
HETATM    5  C   UNK N   1      34.516  14.276   7.125  0.00  0.00     0.016 C 
HETATM    6  C   UNK N   1      37.016  13.666  11.684  0.00  0.00     0.021 C 
HETATM    7  C   UNK N   1      36.176  14.279   9.220  0.00  0.00     0.017 C 
HETATM    8  C   UNK N   1      34.301  16.401   9.671  0.00  0.00     0.007 C 
HETATM    9  C   UNK N   1      31.978  15.019   6.181  0.00  0.00     0.034 C 
HETATM   10  C   UNK N   1      32.114  14.105   7.425  0.00  0.00     0.013 C 
HETATM   11  C   UNK N   1      34.615  15.411  10.793  0.00  0.00     0.011 C 
HETATM   12  C   UNK N   1      35.930   9.731  13.889  0.00  0.00     0.011 C 
HETATM   13  C   UNK N   1      34.737   9.217  13.123  0.00  0.00     0.021 C 
HETATM   14  C   UNK N   1      35.769  12.188  13.647  0.00  0.00     0.011 C 
HETATM   15  C   UNK N   1      34.863  12.926  12.623  0.00  0.00     0.015 C 
HETATM   16  C   UNK N   1      34.944  11.223   9.778  0.00  0.00     0.054 C 
HETATM   17  C   UNK N   1      36.433   9.216  11.199  0.00  0.00     0.030 C 
HETATM   18  C   UNK N   1      35.717  11.669  10.795  0.00  0.00    -0.062 C 
HETATM   19  C   UNK N   1      36.603  10.712  11.576  0.00  0.00     0.025 C 
HETATM   20  C   UNK N   1      33.938  12.050   9.071  0.00  0.00     0.155 C 
HETATM   21  C   UNK N   1      33.200  15.922   8.700  0.00  0.00     0.005 C 
HETATM   22  C   UNK N   1      31.952  16.523   6.521  0.00  0.00     0.140 C 
HETATM   23  C   UNK N   1      33.736  13.508   9.432  0.00  0.00     0.077 C 
HETATM   24  C   UNK N   1      33.067  16.942   7.525  0.00  0.00    -0.017 C 
HETATM   25  C   UNK N   1      36.530  10.923  13.151  0.00  0.00    -0.036 C 
HETATM   26  C   UNK N   1      35.209   8.507  11.847  0.00  0.00     0.042 C 
HETATM   27  C   UNK N   1      33.408  14.446   8.185  0.00  0.00    -0.028 C 
HETATM   28  C   UNK N   1      35.617  13.097  11.306  0.00  0.00    -0.012 C 
HETATM   29  C   UNK N   1      35.004  14.050  10.206  0.00  0.00    -0.021 C 
HETATM   30  O   UNK N   1      33.156  11.496   8.316  0.00  0.00    -0.293 OA
ENDROOT
BRANCH  22  31
HETATM   31  O   UNK N   1      30.701  16.850   7.021  0.00  0.00    -0.315 OA
BRANCH  31  32
HETATM   32  C   UNK N   1      29.684  17.399   6.291  0.00  0.00     0.259 C 
HETATM   33  O   UNK N   1      29.815  17.495   5.081  0.00  0.00    -0.265 OA
BRANCH  32  34
HETATM   34  C   UNK N   1      28.404  17.906   6.912  0.00  0.00     0.121 C 
BRANCH  34  35
HETATM   35  C   UNK N   1      28.660  18.803   8.123  0.00  0.00     0.119 C 
BRANCH  35  36
HETATM   36  C   UNK N   1      28.696  18.047   9.420  0.00  0.00     0.139 C 
HETATM   37  O   UNK N   1      27.806  17.254   9.679  0.00  0.00    -0.650 OA
BRANCH  36  38
HETATM   38  O   UNK N   1      29.705  18.224  10.296  0.00  0.00    -0.776 OA
HETATM   39  H   UNK N   1      30.058  18.174  11.163  0.00  0.00     0.167 HD
ENDBRANCH  36  38
ENDBRANCH  35  36
ENDBRANCH  34  35
ENDBRANCH  32  34
ENDBRANCH  31  32
ENDBRANCH  22  31
BRANCH  26  40
HETATM   40  C   UNK N   1      35.608   7.075  12.129  0.00  0.00     0.148 C 
HETATM   41  O   UNK N   1      34.764   6.218  12.348  0.00  0.00    -0.649 OA
BRANCH  40  42
HETATM   42  O   UNK N   1      36.912   6.734  12.143  0.00  0.00    -0.776 OA
HETATM   43  H   UNK N   1      37.511   6.579  12.847  0.00  0.00     0.167 HD
ENDBRANCH  40  42
ENDBRANCH  26  40
TORSDOF 8
ENDMDL
MODEL 9
REMARK VINA RESULT:      -7.9      5.296     12.240
REMARK  8 active torsions:
REMARK  status: ('A' for Active; 'I' for Inactive)
REMARK    1  A    between atoms: C_9  and  C_8 
REMARK    2  A    between atoms: C_25  and  C_8 
REMARK    3  A    between atoms: C_26  and  C_9 
REMARK    4  A    between atoms: C_24  and  O_41 
REMARK    5  A    between atoms: O_37  and  C_25 
REMARK    6  A    between atoms: O_41  and  C_26 
REMARK    7  A    between atoms: C_31  and  C_28 
REMARK    8  A    between atoms: O_40  and  C_28 
ROOT
HETATM    1  C   UNK N   1      37.567  10.882  11.705  0.00  0.00     0.018 C 
HETATM    2  C   UNK N   1      38.312  13.063  10.936  0.00  0.00     0.018 C 
HETATM    3  C   UNK N   1      33.040  13.948   2.654  0.00  0.00     0.016 C 
HETATM    4  C   UNK N   1      30.447  16.442   6.734  0.00  0.00     0.026 C 
HETATM    5  C   UNK N   1      36.361  14.880   9.973  0.00  0.00     0.016 C 
HETATM    6  C   UNK N   1      35.207  13.087   5.193  0.00  0.00     0.021 C 
HETATM    7  C   UNK N   1      36.313  13.998   7.451  0.00  0.00     0.017 C 
HETATM    8  C   UNK N   1      36.415  11.669   9.121  0.00  0.00     0.007 C 
HETATM    9  C   UNK N   1      35.841  14.247  12.659  0.00  0.00     0.034 C 
HETATM   10  C   UNK N   1      34.717  14.138  11.597  0.00  0.00     0.013 C 
HETATM   11  C   UNK N   1      35.403  11.742   7.978  0.00  0.00     0.011 C 
HETATM   12  C   UNK N   1      30.923  14.171   3.782  0.00  0.00     0.011 C 
HETATM   13  C   UNK N   1      30.264  14.696   5.032  0.00  0.00     0.021 C 
HETATM   14  C   UNK N   1      32.569  12.530   4.630  0.00  0.00     0.011 C 
HETATM   15  C   UNK N   1      33.026  12.408   6.110  0.00  0.00     0.015 C 
HETATM   16  C   UNK N   1      33.317  15.473   7.342  0.00  0.00     0.054 C 
HETATM   17  C   UNK N   1      32.167  16.408   4.879  0.00  0.00     0.030 C 
HETATM   18  C   UNK N   1      33.568  14.718   6.248  0.00  0.00    -0.062 C 
HETATM   19  C   UNK N   1      33.072  15.147   4.876  0.00  0.00     0.025 C 
HETATM   20  C   UNK N   1      33.622  15.056   8.731  0.00  0.00     0.155 C 
HETATM   21  C   UNK N   1      35.930  12.326  10.432  0.00  0.00     0.005 C 
HETATM   22  C   UNK N   1      36.655  12.948  12.832  0.00  0.00     0.140 C 
HETATM   23  C   UNK N   1      34.294  13.727   9.015  0.00  0.00     0.077 C 
HETATM   24  C   UNK N   1      37.092  12.316  11.476  0.00  0.00    -0.017 C 
HETATM   25  C   UNK N   1      32.412  13.964   4.042  0.00  0.00    -0.036 C 
HETATM   26  C   UNK N   1      30.681  16.155   5.264  0.00  0.00     0.042 C 
HETATM   27  C   UNK N   1      35.324  13.767  10.231  0.00  0.00    -0.028 C 
HETATM   28  C   UNK N   1      34.207  13.343   6.357  0.00  0.00    -0.012 C 
HETATM   29  C   UNK N   1      35.011  13.198   7.708  0.00  0.00    -0.021 C 
HETATM   30  O   UNK N   1      33.168  15.717   9.650  0.00  0.00    -0.293 OA
ENDROOT
BRANCH  22  31
HETATM   31  O   UNK N   1      35.908  12.044  13.570  0.00  0.00    -0.315 OA
BRANCH  31  32
HETATM   32  C   UNK N   1      35.199  12.349  14.698  0.00  0.00     0.259 C 
HETATM   33  O   UNK N   1      34.000  12.119  14.718  0.00  0.00    -0.265 OA
BRANCH  32  34
HETATM   34  C   UNK N   1      35.826  12.970  15.924  0.00  0.00     0.121 C 
BRANCH  34  35
HETATM   35  C   UNK N   1      34.782  13.432  16.940  0.00  0.00     0.119 C 
BRANCH  35  36
HETATM   36  C   UNK N   1      35.387  14.018  18.183  0.00  0.00     0.139 C 
HETATM   37  O   UNK N   1      36.050  15.039  18.105  0.00  0.00    -0.650 OA
BRANCH  36  38
HETATM   38  O   UNK N   1      35.198  13.438  19.384  0.00  0.00    -0.776 OA
HETATM   39  H   UNK N   1      34.939  13.479  20.284  0.00  0.00     0.167 HD
ENDBRANCH  36  38
ENDBRANCH  35  36
ENDBRANCH  34  35
ENDBRANCH  32  34
ENDBRANCH  31  32
ENDBRANCH  22  31
BRANCH  26  40
HETATM   40  C   UNK N   1      29.831  17.107   4.452  0.00  0.00     0.148 C 
HETATM   41  O   UNK N   1      28.971  16.689   3.689  0.00  0.00    -0.649 OA
BRANCH  40  42
HETATM   42  O   UNK N   1      30.023  18.436   4.562  0.00  0.00    -0.776 OA
HETATM   43  H   UNK N   1      29.603  19.089   5.088  0.00  0.00     0.167 HD
ENDBRANCH  40  42
ENDBRANCH  26  40
TORSDOF 8
ENDMDL
