REMARK  19 active torsions:
REMARK  status: ('A' for Active; 'I' for Inactive)
REMARK    1  A    between atoms: O_45  and  C_5 
REMARK    2  A    between atoms: C_11  and  C_10 
REMARK    3  A    between atoms: C_24  and  C_10 
REMARK    4  A    between atoms: C_27  and  C_11 
REMARK    5  A    between atoms: C_20  and  C_15 
REMARK    6  A    between atoms: C_22  and  C_15 
REMARK    7  A    between atoms: C_21  and  C_16 
REMARK    8  A    between atoms: C_24  and  C_16 
REMARK    9  A    between atoms: C_22  and  C_17 
REMARK   10  A    between atoms: C_26  and  C_17 
REMARK   11  A    between atoms: C_28  and  C_18 
REMARK   12  A    between atoms: C_22  and  C_30 
REMARK   13  A    between atoms: C_24  and  N_35 
REMARK   14  A    between atoms: C_31  and  C_25 
REMARK   15  A    between atoms: C_28  and  C_26 
REMARK   16  A    between atoms: O_45  and  C_27 
REMARK   17  A    between atoms: C_28  and  N_37 
REMARK   18  A    between atoms: O_42  and  C_29 
REMARK   19  A    between atoms: C_30  and  O_43 
REMARK       I    between atoms: N_37  and  C_31 
ROOT
HETATM    1  C   UNK N   1       0.035   0.660   0.064  0.00  0.00     0.071 C 
ENDROOT
BRANCH   1   2
HETATM    2  C   UNK N   1      -0.214   2.157   0.321  0.00  0.00     0.051 C 
BRANCH   2   3
HETATM    3  C   UNK N   1      -1.580   2.682   0.015  0.00  0.00    -0.057 A 
HETATM    4  C   UNK N   1      -1.871   3.199  -1.250  0.00  0.00     0.010 A 
HETATM    5  C   UNK N   1      -3.129   3.756  -1.504  0.00  0.00     0.043 A 
HETATM    6  C   UNK N   1      -4.094   3.804  -0.492  0.00  0.00     0.116 A 
HETATM    7  C   UNK N   1      -3.801   3.297   0.777  0.00  0.00     0.043 A 
HETATM    8  F   UNK N   1      -5.309   4.350  -0.738  0.00  0.00    -0.206 F 
HETATM    9  C   UNK N   1      -2.542   2.746   1.033  0.00  0.00     0.010 A 
ENDBRANCH   2   3
ENDBRANCH   1   2
BRANCH   1  10
HETATM   10  C   UNK N   1       0.299   0.322  -1.413  0.00  0.00     0.093 C 
BRANCH  10  11
HETATM   11  C   UNK N   1       1.713   0.708  -1.791  0.00  0.00     0.150 C 
HETATM   12  O   UNK N   1       1.886   1.636  -2.567  0.00  0.00    -0.296 OA
BRANCH  11  13
HETATM   13  C   UNK N   1       2.921   0.077  -1.111  0.00  0.00     0.158 C 
BRANCH  13  14
HETATM   14  C   UNK N   1       2.565  -1.197  -0.311  0.00  0.00     0.007 C 
HETATM   15  C   UNK N   1       3.755  -1.766   0.438  0.00  0.00     0.012 C 
HETATM   16  C   UNK N   1       2.027  -2.280  -1.238  0.00  0.00     0.012 C 
ENDBRANCH  13  14
BRANCH  13  17
HETATM   17  N   UNK N   1       3.446   1.133  -0.271  0.00  0.00    -0.344 N 
HETATM   18  C   UNK N   1       4.752   1.416  -0.084  0.00  0.00     0.270 C 
HETATM   19  O   UNK N   1       5.622   0.599  -0.365  0.00  0.00    -0.266 OA
HETATM   20  H   UNK N   1       2.792   1.694   0.205  0.00  0.00     0.163 HD
BRANCH  18  21
HETATM   21  C   UNK N   1       5.122   2.779   0.318  0.00  0.00     0.124 A 
HETATM   22  C   UNK N   1       4.235   3.839   0.397  0.00  0.00     0.071 A 
HETATM   23  C   UNK N   1       5.060   4.917   0.615  0.00  0.00     0.075 A 
HETATM   24  C   UNK N   1       4.626   6.337   0.711  0.00  0.00     0.079 C 
HETATM   25  O   UNK N   1       6.308   4.513   0.658  0.00  0.00    -0.242 OA
HETATM   26  N   UNK N   1       6.378   3.225   0.475  0.00  0.00    -0.256 N 
ATOM     27  HN  UNK N   1       7.228   2.661   0.456  1.00  0.00     0.195 HD
ENDBRANCH  18  21
ENDBRANCH  13  17
ENDBRANCH  11  13
ENDBRANCH  10  11
ENDBRANCH   1  10
BRANCH   1  28
HETATM   28  C   UNK N   1      -0.989  -0.225   0.719  0.00  0.00     0.116 C 
HETATM   29  N   UNK N   1      -2.222  -0.236   0.325  0.00  0.00    -0.369 N 
ATOM     30  HN  UNK N   1      -2.462   0.207  -0.562  1.00  0.00     0.161 HD
BRANCH  29  31
HETATM   31  C   UNK N   1      -3.275  -0.860   1.110  0.00  0.00     0.084 C 
BRANCH  31  32
HETATM   32  C   UNK N   1      -4.670  -0.556   0.585  0.00  0.00     0.035 C 
BRANCH  32  33
HETATM   33  C   UNK N   1      -4.918  -0.768  -0.895  0.00  0.00     0.113 C 
BRANCH  33  34
HETATM   34  C   UNK N   1      -6.387  -0.972  -1.025  0.00  0.00     0.258 C 
HETATM   35  O   UNK N   1      -7.080  -0.140  -1.595  0.00  0.00    -0.265 OA
BRANCH  34  36
HETATM   36  O   UNK N   1      -6.936  -2.056  -0.432  0.00  0.00    -0.322 OA
BRANCH  36  37
HETATM   37  C   UNK N   1      -8.284  -2.292  -0.367  0.00  0.00     0.174 C 
HETATM   38  C   UNK N   1      -8.506  -3.558   0.434  0.00  0.00     0.034 C 
ENDBRANCH  36  37
ENDBRANCH  34  36
ENDBRANCH  33  34
ENDBRANCH  32  33
ENDBRANCH  31  32
BRANCH  31  39
HETATM   39  C   UNK N   1      -3.002  -2.297   1.613  0.00  0.00     0.038 C 
BRANCH  39  40
HETATM   40  C   UNK N   1      -3.219  -3.615   0.864  0.00  0.00     0.063 C 
HETATM   41  C   UNK N   1      -4.693  -3.929   0.613  0.00  0.00     0.032 C 
HETATM   42  C   UNK N   1      -4.754  -4.435  -0.835  0.00  0.00     0.122 C 
HETATM   43  N   UNK N   1      -3.446  -4.172  -1.364  0.00  0.00    -0.374 N 
HETATM   44  C   UNK N   1      -2.638  -3.735  -0.486  0.00  0.00     0.115 C 
ATOM     45  HN  UNK N   1      -3.193  -4.320  -2.341  1.00  0.00     0.161 HD
BRANCH  44  46
HETATM   46  O   UNK N   1      -1.343  -3.499  -0.767  0.00  0.00    -0.349 OA
HETATM   47  H   UNK N   1      -0.750  -4.197  -0.962  0.00  0.00     0.219 HD
ENDBRANCH  44  46
ENDBRANCH  39  40
ENDBRANCH  31  39
ENDBRANCH  29  31
BRANCH  28  48
HETATM   48  O   UNK N   1      -0.607  -0.946   1.796  0.00  0.00    -0.349 OA
HETATM   49  H   UNK N   1      -0.908  -1.426   2.542  0.00  0.00     0.219 HD
ENDBRANCH  28  48
ENDBRANCH   1  28
TORSDOF 19
