REMARK  7 active torsions:
REMARK  status: ('A' for Active; 'I' for Inactive)
REMARK    1  A    between atoms: C_21  and  C_7 
REMARK    2  A    between atoms: C_22  and  C_8 
REMARK    3  A    between atoms: C_12  and  C_10 
REMARK    4  A    between atoms: C_24  and  C_10 
REMARK    5  A    between atoms: C_34  and  C_12 
REMARK    6  A    between atoms: O_40  and  C_33 
REMARK    7  A    between atoms: O_42  and  C_34 
ROOT
HETATM    1  C   UNK N   1      -1.251   1.751  -0.457  0.00  0.00     0.052 C 
HETATM    2  C   UNK N   1       2.207  -5.241   0.575  0.00  0.00     0.052 C 
HETATM    3  C   UNK N   1       2.526   2.251   2.093  0.00  0.00     0.046 C 
HETATM    4  C   UNK N   1       9.370  -2.115  -0.425  0.00  0.00     0.046 C 
HETATM    5  C   UNK N   1       5.427   1.093   1.802  0.00  0.00     0.051 C 
HETATM    6  C   UNK N   1       4.983  -0.321   1.100  0.00  0.00     0.114 A 
HETATM    7  C   UNK N   1       1.913   2.608  -0.782  0.00  0.00     0.031 C 
HETATM    8  C   UNK N   1       1.607  -2.252   0.304  0.00  0.00     0.064 C 
HETATM    9  C   UNK N   1       6.368  -2.476   0.314  0.00  0.00     0.064 A 
HETATM   10  C   UNK N   1       6.639   2.298  -0.808  0.00  0.00     0.053 C 
HETATM   11  C   UNK N   1      -0.038   0.909  -0.336  0.00  0.00    -0.021 A 
HETATM   12  C   UNK N   1       3.150  -4.098   0.654  0.00  0.00    -0.021 A 
HETATM   13  C   UNK N   1       3.503   2.547   1.006  0.00  0.00    -0.053 C 
HETATM   14  C   UNK N   1       8.419  -0.967  -0.345  0.00  0.00    -0.045 C 
HETATM   15  C   UNK N   1      -0.008  -0.461  -0.072  0.00  0.00     0.000 A 
HETATM   16  C   UNK N   1       4.562  -4.147   0.663  0.00  0.00     0.000 A 
HETATM   17  C   UNK N   1       4.889   2.225   0.997  0.00  0.00    -0.031 C 
HETATM   18  C   UNK N   1       8.657   0.417  -0.353  0.00  0.00     0.069 C 
HETATM   19  C   UNK N   1       1.295   1.317  -0.479  0.00  0.00     0.062 A 
HETATM   20  C   UNK N   1       3.166   2.825  -0.310  0.00  0.00     0.135 C 
HETATM   21  C   UNK N   1       2.782  -2.771   0.510  0.00  0.00     0.066 A 
HETATM   22  C   UNK N   1       7.133  -1.099  -0.074  0.00  0.00     0.062 A 
HETATM   23  C   UNK N   1       1.295  -0.810  -0.008  0.00  0.00     0.070 A 
HETATM   24  C   UNK N   1       4.986  -2.859   0.532  0.00  0.00     0.070 A 
HETATM   25  C   UNK N   1       5.365   2.552  -0.260  0.00  0.00     0.035 C 
HETATM   26  C   UNK N   1       7.379   1.052  -0.513  0.00  0.00     0.045 C 
HETATM   27  C   UNK N   1       4.858  -0.979  -1.253  0.00  0.00     0.139 A 
HETATM   28 Co   UNK N   1       4.029   0.344  -0.322  0.00  0.00     0.000 Co
HETATM   29  N   UNK N   1       2.093   0.285  -0.269  0.00  0.00    -0.248 N 
HETATM   30  N   UNK N   1       3.835  -2.048   0.408  0.00  0.00    -0.248 N 
HETATM   31  N   UNK N   1       4.226   2.326  -0.927  0.00  0.00    -0.197 NA
HETATM   32  N   UNK N   1       6.540   0.151  -0.333  0.00  0.00    -0.253 N 
HETATM   33  O   UNK N   1       3.745  -1.144  -1.757  0.00  0.00    -0.650 OA
ENDROOT
BRANCH  18  34
HETATM   34  C   UNK N   1       9.367   0.645   0.947  0.00  0.00     0.025 C 
BRANCH  34  35
HETATM   35  C   UNK N   1      10.119   1.887   1.161  0.00  0.00     0.111 C 
BRANCH  35  36
HETATM   36  C   UNK N   1      11.059   1.990   0.038  0.00  0.00     0.139 C 
HETATM   37  O   UNK N   1      11.652   1.004  -0.381  0.00  0.00    -0.650 OA
BRANCH  36  38
HETATM   38  O   UNK N   1      11.166   3.163  -0.592  0.00  0.00    -0.776 OA
HETATM   39  H   UNK N   1      11.916   3.509  -1.035  0.00  0.00     0.167 HD
ENDBRANCH  36  38
ENDBRANCH  35  36
ENDBRANCH  34  35
ENDBRANCH  18  34
BRANCH  27  40
HETATM   40  O   UNK N   1       5.856  -1.042  -2.185  0.00  0.00    -0.776 OA
HETATM   41  H   UNK N   1       6.161  -1.656  -2.824  0.00  0.00     0.167 HD
ENDBRANCH  27  40
BRANCH  16  42
HETATM   42  C   UNK N   1       5.472  -5.295   0.547  0.00  0.00     0.004 C 
HETATM   43  C   UNK N   1       5.056  -6.461   0.068  0.00  0.00     0.012 C 
ENDBRANCH  16  42
BRANCH  15  44
HETATM   44  C   UNK N   1      -1.034  -1.520   0.116  0.00  0.00     0.004 C 
HETATM   45  C   UNK N   1      -2.186  -1.397   0.743  0.00  0.00     0.012 C 
ENDBRANCH  15  44
TORSDOF 7
