REMARK  13 active torsions:
REMARK  status: ('A' for Active; 'I' for Inactive)
REMARK    1  A    between atoms: N_1  and  C_2 
REMARK    2  A    between atoms: C_14  and  N_13 
REMARK    3  A    between atoms: C_17  and  C_18 
REMARK    4  A    between atoms: C_18  and  O_19 
REMARK    5  A    between atoms: P_20  and  O_19 
REMARK    6  A    between atoms: P_20  and  O_21 
REMARK    7  A    between atoms: P_20  and  O_23 
REMARK    8  A    between atoms: P_24  and  O_23 
REMARK    9  A    between atoms: P_24  and  O_25 
REMARK   10  A    between atoms: P_24  and  O_27 
REMARK   11  A    between atoms: O_27  and  P_28 
REMARK   12  A    between atoms: P_28  and  O_29 
REMARK   13  A    between atoms: P_28  and  O_30 
ROOT
HETATM    1  C   UNK N   1       2.215   2.304   0.005  0.00  0.00     0.231 C 
HETATM    2  C   UNK N   1       1.469   3.070  -1.076  0.00  0.00     0.057 C 
HETATM    3  C   UNK N   1       0.981   4.303  -0.370  0.00  0.00     0.038 C 
HETATM    4  C   UNK N   1       1.742   4.278   0.935  0.00  0.00     0.148 C 
HETATM    5  O   UNK N   1       2.013   2.935   1.245  0.00  0.00    -0.359 OA
ENDROOT
BRANCH   4   6
HETATM    6  C   UNK N   1       3.025   5.121   0.868  0.00  0.00     0.212 C 
BRANCH   6   7
HETATM    7  O   UNK N   1       3.794   4.814  -0.266  0.00  0.00    -0.294 OA
BRANCH   7   8
HETATM    8  P   UNK N   1       5.353   4.342   0.342  0.00  0.00     0.401 P 
HETATM    9  O   UNK N   1       5.719   5.631  -0.444  0.00  0.00    -0.631 OA
BRANCH   8  10
HETATM   10  O   UNK N   1       4.782   3.158  -0.791  0.00  0.00    -0.307 OA
HETATM   11  H   UNK N   1       4.049   3.103  -1.424  0.00  0.00     0.222 HD
ENDBRANCH   8  10
BRANCH   8  12
HETATM   12  O   UNK N   1       6.607   3.758  -0.712  0.00  0.00    -0.195 OA
BRANCH  12  13
HETATM   13  P   UNK N   1       7.965   3.415   0.321  0.00  0.00     0.410 P 
HETATM   14  O   UNK N   1       8.432   4.784   0.888  0.00  0.00    -0.631 OA
BRANCH  13  15
HETATM   15  O   UNK N   1       7.495   2.399   1.650  0.00  0.00    -0.307 OA
HETATM   16  H   UNK N   1       6.873   2.343   2.392  0.00  0.00     0.222 HD
ENDBRANCH  13  15
BRANCH  13  17
HETATM   17  O   UNK N   1       9.235   2.651  -0.618  0.00  0.00    -0.195 OA
BRANCH  17  18
HETATM   18  P   UNK N   1      10.808   3.314  -0.217  0.00  0.00     0.399 P 
HETATM   19  O   UNK N   1      10.827   3.914   1.215  0.00  0.00    -0.631 OA
BRANCH  18  20
HETATM   20  O   UNK N   1      11.276   4.561  -1.331  0.00  0.00    -0.307 OA
HETATM   21  H   UNK N   1      12.010   4.683  -1.953  0.00  0.00     0.222 HD
ENDBRANCH  18  20
BRANCH  18  22
HETATM   22  O   UNK N   1      11.998   2.052  -0.213  0.00  0.00    -0.307 OA
HETATM   23  H   UNK N   1      11.719   1.123  -0.210  0.00  0.00     0.222 HD
ENDBRANCH  18  22
ENDBRANCH  17  18
ENDBRANCH  13  17
ENDBRANCH  12  13
ENDBRANCH   8  12
ENDBRANCH   7   8
ENDBRANCH   6   7
ENDBRANCH   4   6
BRANCH   1  24
HETATM   24  N   UNK N   1       1.783   0.915   0.040  0.00  0.00    -0.300 N 
HETATM   25  C   UNK N   1       2.584  -0.173  -0.084  0.00  0.00     0.188 A 
HETATM   26  N   UNK N   1       1.859  -1.327  -0.048  0.00  0.00    -0.346 N 
HETATM   27  C   UNK N   1       0.585  -0.914   0.094  0.00  0.00     0.122 A 
ATOM     28  HN  UNK N   1       2.203  -2.285  -0.114  1.00  0.00     0.167 HD
HETATM   29  C   UNK N   1       0.544   0.429   0.155  0.00  0.00     0.142 A 
HETATM   30  C   UNK N   1      -0.587  -1.648   0.159  0.00  0.00     0.131 A 
HETATM   31  N   UNK N   1      -0.614   1.122   0.279  0.00  0.00    -0.336 N 
HETATM   32  C   UNK N   1      -1.781   0.409   0.346  0.00  0.00     0.183 A 
ATOM     33  HN  UNK N   1      -0.617   2.141   0.321  1.00  0.00     0.168 HD
HETATM   34  N   UNK N   1      -1.764  -0.964   0.284  0.00  0.00    -0.337 N 
ATOM     35  HN  UNK N   1      -2.643  -1.480   0.333  1.00  0.00     0.168 HD
BRANCH  30  36
HETATM   36  N   UNK N   1      -0.577  -3.055   0.082  0.00  0.00    -0.383 N 
HETATM   37  H   UNK N   1      -1.424  -3.553   0.029  0.00  0.00     0.157 HD
HETATM   38  H   UNK N   1       0.280  -3.541   0.082  0.00  0.00     0.157 HD
ENDBRANCH  30  36
ENDBRANCH   1  24
TORSDOF 13
