MODEL 1
REMARK VINA RESULT:      -4.3      0.000      0.000
REMARK  7 active torsions:
REMARK  status: ('A' for Active; 'I' for Inactive)
REMARK    1  A    between atoms: C_4  and  C_3 
REMARK    2  A    between atoms: C_5  and  C_4 
REMARK    3  A    between atoms: C_6  and  C_5 
REMARK    4  A    between atoms: C_7  and  C_6 
REMARK    5  A    between atoms: C_9  and  C_7 
REMARK    6  A    between atoms: C_8  and  O_12 
REMARK    7  A    between atoms: N_10  and  C_9 
ROOT
HETATM    1  C   UNK N   1      24.877  13.131   9.753  0.00  0.00     0.032 C 
HETATM    2  C   UNK N   1      23.956  12.205  10.540  0.00  0.00     0.078 C 
ENDROOT
BRANCH   2   3
HETATM    3  C   UNK N   1      22.499  12.580  10.294  0.00  0.00     0.024 C 
BRANCH   3   4
HETATM    4  C   UNK N   1      22.058  12.259   8.877  0.00  0.00     0.002 C 
BRANCH   4   5
HETATM    5  C   UNK N   1      21.122  13.341   8.379  0.00  0.00     0.000 C 
BRANCH   5   6
HETATM    6  C   UNK N   1      21.103  14.471   9.385  0.00  0.00    -0.000 C 
BRANCH   6   7
HETATM    7  C   UNK N   1      19.901  15.358   9.150  0.00  0.00    -0.005 C 
HETATM    8  C   UNK N   1      20.351  16.631   8.465  0.00  0.00     0.005 C 
ENDBRANCH   6   7
ENDBRANCH   5   6
ENDBRANCH   4   5
ENDBRANCH   3   4
ENDBRANCH   2   3
BRANCH   2   9
HETATM    9  N   UNK N   1      24.215  12.323  11.954  0.00  0.00    -0.377 N 
HETATM   10  C   UNK N   1      23.367  11.917  12.835  0.00  0.00     0.219 C 
ATOM     11  HN  UNK N   1      25.093  12.739  12.265  1.00  0.00     0.161 HD
BRANCH  10  12
HETATM   12  O   UNK N   1      23.645  12.049  14.143  0.00  0.00    -0.357 OA
HETATM   13  H   UNK N   1      22.982  11.884  14.783  0.00  0.00     0.218 HD
ENDBRANCH  10  12
ENDBRANCH   2   9
TORSDOF 7
ENDMDL
MODEL 2
REMARK VINA RESULT:      -4.2      1.090      1.430
REMARK  7 active torsions:
REMARK  status: ('A' for Active; 'I' for Inactive)
REMARK    1  A    between atoms: C_4  and  C_3 
REMARK    2  A    between atoms: C_5  and  C_4 
REMARK    3  A    between atoms: C_6  and  C_5 
REMARK    4  A    between atoms: C_7  and  C_6 
REMARK    5  A    between atoms: C_9  and  C_7 
REMARK    6  A    between atoms: C_8  and  O_12 
REMARK    7  A    between atoms: N_10  and  C_9 
ROOT
HETATM    1  C   UNK N   1      24.272  12.811   9.664  0.00  0.00     0.032 C 
HETATM    2  C   UNK N   1      23.423  12.011  10.646  0.00  0.00     0.078 C 
ENDROOT
BRANCH   2   3
HETATM    3  C   UNK N   1      21.977  12.494  10.605  0.00  0.00     0.024 C 
BRANCH   3   4
HETATM    4  C   UNK N   1      21.840  13.828   9.893  0.00  0.00     0.002 C 
BRANCH   4   5
HETATM    5  C   UNK N   1      20.679  13.769   8.922  0.00  0.00     0.000 C 
BRANCH   5   6
HETATM    6  C   UNK N   1      21.224  13.758   7.510  0.00  0.00    -0.000 C 
BRANCH   6   7
HETATM    7  C   UNK N   1      22.230  14.873   7.330  0.00  0.00    -0.005 C 
HETATM    8  C   UNK N   1      21.500  16.142   6.941  0.00  0.00     0.005 C 
ENDBRANCH   6   7
ENDBRANCH   5   6
ENDBRANCH   4   5
ENDBRANCH   3   4
ENDBRANCH   2   3
BRANCH   2   9
HETATM    9  N   UNK N   1      23.913  12.185  11.992  0.00  0.00    -0.377 N 
HETATM   10  C   UNK N   1      23.166  11.972  13.018  0.00  0.00     0.219 C 
ATOM     11  HN  UNK N   1      24.879  12.485  12.133  1.00  0.00     0.161 HD
BRANCH  10  12
HETATM   12  O   UNK N   1      23.661  12.150  14.255  0.00  0.00    -0.357 OA
HETATM   13  H   UNK N   1      23.119  12.505  14.932  0.00  0.00     0.218 HD
ENDBRANCH  10  12
ENDBRANCH   2   9
TORSDOF 7
ENDMDL
MODEL 3
REMARK VINA RESULT:      -4.1     12.539     13.945
REMARK  7 active torsions:
REMARK  status: ('A' for Active; 'I' for Inactive)
REMARK    1  A    between atoms: C_4  and  C_3 
REMARK    2  A    between atoms: C_5  and  C_4 
REMARK    3  A    between atoms: C_6  and  C_5 
REMARK    4  A    between atoms: C_7  and  C_6 
REMARK    5  A    between atoms: C_9  and  C_7 
REMARK    6  A    between atoms: C_8  and  O_12 
REMARK    7  A    between atoms: N_10  and  C_9 
ROOT
HETATM    1  C   UNK N   1      37.066  12.221  13.009  0.00  0.00     0.032 C 
HETATM    2  C   UNK N   1      36.602  13.499  13.701  0.00  0.00     0.078 C 
ENDROOT
BRANCH   2   3
HETATM    3  C   UNK N   1      36.496  13.274  15.205  0.00  0.00     0.024 C 
BRANCH   3   4
HETATM    4  C   UNK N   1      35.097  12.850  15.621  0.00  0.00     0.002 C 
BRANCH   4   5
HETATM    5  C   UNK N   1      35.171  11.556  16.404  0.00  0.00     0.000 C 
BRANCH   5   6
HETATM    6  C   UNK N   1      34.692  10.424  15.520  0.00  0.00    -0.000 C 
BRANCH   6   7
HETATM    7  C   UNK N   1      33.628  10.921  14.567  0.00  0.00    -0.005 C 
HETATM    8  C   UNK N   1      33.882  10.337  13.193  0.00  0.00     0.005 C 
ENDBRANCH   6   7
ENDBRANCH   5   6
ENDBRANCH   4   5
ENDBRANCH   3   4
ENDBRANCH   2   3
BRANCH   2   9
HETATM    9  N   UNK N   1      35.302  13.891  13.214  0.00  0.00    -0.377 N 
HETATM   10  C   UNK N   1      35.062  14.029  11.957  0.00  0.00     0.219 C 
ATOM     11  HN  UNK N   1      34.552  14.063  13.885  1.00  0.00     0.161 HD
BRANCH  10  12
HETATM   12  O   UNK N   1      33.837  14.399  11.546  0.00  0.00    -0.357 OA
HETATM   13  H   UNK N   1      33.567  15.293  11.619  0.00  0.00     0.218 HD
ENDBRANCH  10  12
ENDBRANCH   2   9
TORSDOF 7
ENDMDL
MODEL 4
REMARK VINA RESULT:      -4.1      1.456      2.323
REMARK  7 active torsions:
REMARK  status: ('A' for Active; 'I' for Inactive)
REMARK    1  A    between atoms: C_4  and  C_3 
REMARK    2  A    between atoms: C_5  and  C_4 
REMARK    3  A    between atoms: C_6  and  C_5 
REMARK    4  A    between atoms: C_7  and  C_6 
REMARK    5  A    between atoms: C_9  and  C_7 
REMARK    6  A    between atoms: C_8  and  O_12 
REMARK    7  A    between atoms: N_10  and  C_9 
ROOT
HETATM    1  C   UNK N   1      21.235  12.340  11.031  0.00  0.00     0.032 C 
HETATM    2  C   UNK N   1      22.711  12.500  10.684  0.00  0.00     0.078 C 
ENDROOT
BRANCH   2   3
HETATM    3  C   UNK N   1      23.150  11.394   9.731  0.00  0.00     0.024 C 
BRANCH   3   4
HETATM    4  C   UNK N   1      23.643  11.945   8.404  0.00  0.00     0.002 C 
BRANCH   4   5
HETATM    5  C   UNK N   1      22.849  11.328   7.271  0.00  0.00     0.000 C 
BRANCH   5   6
HETATM    6  C   UNK N   1      21.525  12.051   7.153  0.00  0.00    -0.000 C 
BRANCH   6   7
HETATM    7  C   UNK N   1      21.752  13.542   7.045  0.00  0.00    -0.005 C 
HETATM    8  C   UNK N   1      20.705  14.265   7.867  0.00  0.00     0.005 C 
ENDBRANCH   6   7
ENDBRANCH   5   6
ENDBRANCH   4   5
ENDBRANCH   3   4
ENDBRANCH   2   3
BRANCH   2   9
HETATM    9  N   UNK N   1      23.520  12.410  11.875  0.00  0.00    -0.377 N 
HETATM   10  C   UNK N   1      23.041  11.976  12.988  0.00  0.00     0.219 C 
ATOM     11  HN  UNK N   1      24.498  12.699  11.833  1.00  0.00     0.161 HD
BRANCH  10  12
HETATM   12  O   UNK N   1      23.827  11.911  14.076  0.00  0.00    -0.357 OA
HETATM   13  H   UNK N   1      23.615  11.325  14.775  0.00  0.00     0.218 HD
ENDBRANCH  10  12
ENDBRANCH   2   9
TORSDOF 7
ENDMDL
MODEL 5
REMARK VINA RESULT:      -4.1      9.604     10.628
REMARK  7 active torsions:
REMARK  status: ('A' for Active; 'I' for Inactive)
REMARK    1  A    between atoms: C_4  and  C_3 
REMARK    2  A    between atoms: C_5  and  C_4 
REMARK    3  A    between atoms: C_6  and  C_5 
REMARK    4  A    between atoms: C_7  and  C_6 
REMARK    5  A    between atoms: C_9  and  C_7 
REMARK    6  A    between atoms: C_8  and  O_12 
REMARK    7  A    between atoms: N_10  and  C_9 
ROOT
HETATM    1  C   UNK N   1      32.987  15.765   7.700  0.00  0.00     0.032 C 
HETATM    2  C   UNK N   1      32.511  16.847   8.664  0.00  0.00     0.078 C 
ENDROOT
BRANCH   2   3
HETATM    3  C   UNK N   1      31.432  17.699   8.007  0.00  0.00     0.024 C 
BRANCH   3   4
HETATM    4  C   UNK N   1      30.560  18.406   9.031  0.00  0.00     0.002 C 
BRANCH   4   5
HETATM    5  C   UNK N   1      29.126  18.430   8.546  0.00  0.00     0.000 C 
BRANCH   5   6
HETATM    6  C   UNK N   1      29.056  17.755   7.193  0.00  0.00    -0.000 C 
BRANCH   6   7
HETATM    7  C   UNK N   1      28.052  18.462   6.309  0.00  0.00    -0.005 C 
HETATM    8  C   UNK N   1      27.724  19.812   6.912  0.00  0.00     0.005 C 
ENDBRANCH   6   7
ENDBRANCH   5   6
ENDBRANCH   4   5
ENDBRANCH   3   4
ENDBRANCH   2   3
BRANCH   2   9
HETATM    9  N   UNK N   1      33.606  17.713   9.027  0.00  0.00    -0.377 N 
HETATM   10  C   UNK N   1      34.276  18.366   8.141  0.00  0.00     0.219 C 
ATOM     11  HN  UNK N   1      33.856  17.812  10.012  1.00  0.00     0.161 HD
BRANCH  10  12
HETATM   12  O   UNK N   1      35.291  19.160   8.521  0.00  0.00    -0.357 OA
HETATM   13  H   UNK N   1      36.151  19.020   8.176  0.00  0.00     0.218 HD
ENDBRANCH  10  12
ENDBRANCH   2   9
TORSDOF 7
ENDMDL
MODEL 6
REMARK VINA RESULT:      -4.0     12.585     14.305
REMARK  7 active torsions:
REMARK  status: ('A' for Active; 'I' for Inactive)
REMARK    1  A    between atoms: C_4  and  C_3 
REMARK    2  A    between atoms: C_5  and  C_4 
REMARK    3  A    between atoms: C_6  and  C_5 
REMARK    4  A    between atoms: C_7  and  C_6 
REMARK    5  A    between atoms: C_9  and  C_7 
REMARK    6  A    between atoms: C_8  and  O_12 
REMARK    7  A    between atoms: N_10  and  C_9 
ROOT
HETATM    1  C   UNK N   1      37.181  12.979  11.842  0.00  0.00     0.032 C 
HETATM    2  C   UNK N   1      36.383  13.890  12.770  0.00  0.00     0.078 C 
ENDROOT
BRANCH   2   3
HETATM    3  C   UNK N   1      36.369  13.318  14.183  0.00  0.00     0.024 C 
BRANCH   3   4
HETATM    4  C   UNK N   1      35.091  12.551  14.476  0.00  0.00     0.002 C 
BRANCH   4   5
HETATM    5  C   UNK N   1      34.593  12.905  15.862  0.00  0.00     0.000 C 
BRANCH   5   6
HETATM    6  C   UNK N   1      35.431  12.169  16.884  0.00  0.00    -0.000 C 
BRANCH   6   7
HETATM    7  C   UNK N   1      35.189  12.739  18.264  0.00  0.00    -0.005 C 
HETATM    8  C   UNK N   1      35.337  14.245  18.212  0.00  0.00     0.005 C 
ENDBRANCH   6   7
ENDBRANCH   5   6
ENDBRANCH   4   5
ENDBRANCH   3   4
ENDBRANCH   2   3
BRANCH   2   9
HETATM    9  N   UNK N   1      35.018  13.996  12.317  0.00  0.00    -0.377 N 
HETATM   10  C   UNK N   1      34.653  14.895  11.470  0.00  0.00     0.219 C 
ATOM     11  HN  UNK N   1      34.322  13.342  12.678  1.00  0.00     0.161 HD
BRANCH  10  12
HETATM   12  O   UNK N   1      33.370  14.963  11.077  0.00  0.00    -0.357 OA
HETATM   13  H   UNK N   1      32.682  14.756  11.680  0.00  0.00     0.218 HD
ENDBRANCH  10  12
ENDBRANCH   2   9
TORSDOF 7
ENDMDL
MODEL 7
REMARK VINA RESULT:      -4.0     18.317     19.604
REMARK  7 active torsions:
REMARK  status: ('A' for Active; 'I' for Inactive)
REMARK    1  A    between atoms: C_4  and  C_3 
REMARK    2  A    between atoms: C_5  and  C_4 
REMARK    3  A    between atoms: C_6  and  C_5 
REMARK    4  A    between atoms: C_7  and  C_6 
REMARK    5  A    between atoms: C_9  and  C_7 
REMARK    6  A    between atoms: C_8  and  O_12 
REMARK    7  A    between atoms: N_10  and  C_9 
ROOT
HETATM    1  C   UNK N   1      29.033  25.708  -4.250  0.00  0.00     0.032 C 
HETATM    2  C   UNK N   1      28.250  24.412  -4.064  0.00  0.00     0.078 C 
ENDROOT
BRANCH   2   3
HETATM    3  C   UNK N   1      26.783  24.720  -3.786  0.00  0.00     0.024 C 
BRANCH   3   4
HETATM    4  C   UNK N   1      25.876  24.233  -4.903  0.00  0.00     0.002 C 
BRANCH   4   5
HETATM    5  C   UNK N   1      25.687  25.336  -5.922  0.00  0.00     0.000 C 
BRANCH   5   6
HETATM    6  C   UNK N   1      25.343  26.618  -5.195  0.00  0.00    -0.000 C 
BRANCH   6   7
HETATM    7  C   UNK N   1      26.170  27.763  -5.737  0.00  0.00    -0.005 C 
HETATM    8  C   UNK N   1      26.976  27.275  -6.922  0.00  0.00     0.005 C 
ENDBRANCH   6   7
ENDBRANCH   5   6
ENDBRANCH   4   5
ENDBRANCH   3   4
ENDBRANCH   2   3
BRANCH   2   9
HETATM    9  N   UNK N   1      28.770  23.667  -2.944  0.00  0.00    -0.377 N 
HETATM   10  C   UNK N   1      30.028  23.646  -2.669  0.00  0.00     0.219 C 
ATOM     11  HN  UNK N   1      28.124  23.142  -2.353  1.00  0.00     0.161 HD
BRANCH  10  12
HETATM   12  O   UNK N   1      30.472  22.936  -1.618  0.00  0.00    -0.357 OA
HETATM   13  H   UNK N   1      30.401  23.285  -0.752  0.00  0.00     0.218 HD
ENDBRANCH  10  12
ENDBRANCH   2   9
TORSDOF 7
ENDMDL
MODEL 8
REMARK VINA RESULT:      -3.9     13.425     15.106
REMARK  7 active torsions:
REMARK  status: ('A' for Active; 'I' for Inactive)
REMARK    1  A    between atoms: C_4  and  C_3 
REMARK    2  A    between atoms: C_5  and  C_4 
REMARK    3  A    between atoms: C_6  and  C_5 
REMARK    4  A    between atoms: C_7  and  C_6 
REMARK    5  A    between atoms: C_9  and  C_7 
REMARK    6  A    between atoms: C_8  and  O_12 
REMARK    7  A    between atoms: N_10  and  C_9 
ROOT
HETATM    1  C   UNK N   1      34.993  12.711  12.370  0.00  0.00     0.032 C 
HETATM    2  C   UNK N   1      36.480  12.874  12.668  0.00  0.00     0.078 C 
ENDROOT
BRANCH   2   3
HETATM    3  C   UNK N   1      36.740  12.688  14.159  0.00  0.00     0.024 C 
BRANCH   3   4
HETATM    4  C   UNK N   1      36.715  14.007  14.912  0.00  0.00     0.002 C 
BRANCH   4   5
HETATM    5  C   UNK N   1      36.104  13.798  16.282  0.00  0.00     0.000 C 
BRANCH   5   6
HETATM    6  C   UNK N   1      35.166  12.611  16.222  0.00  0.00    -0.000 C 
BRANCH   6   7
HETATM    7  C   UNK N   1      35.268  11.802  17.496  0.00  0.00    -0.005 C 
HETATM    8  C   UNK N   1      36.144  10.592  17.246  0.00  0.00     0.005 C 
ENDBRANCH   6   7
ENDBRANCH   5   6
ENDBRANCH   4   5
ENDBRANCH   3   4
ENDBRANCH   2   3
BRANCH   2   9
HETATM    9  N   UNK N   1      36.925  14.195  12.299  0.00  0.00    -0.377 N 
HETATM   10  C   UNK N   1      36.482  14.790  11.245  0.00  0.00     0.219 C 
ATOM     11  HN  UNK N   1      37.609  14.672  12.887  1.00  0.00     0.161 HD
BRANCH  10  12
HETATM   12  O   UNK N   1      36.925  16.019  10.934  0.00  0.00    -0.357 OA
HETATM   13  H   UNK N   1      36.324  16.676  10.644  0.00  0.00     0.218 HD
ENDBRANCH  10  12
ENDBRANCH   2   9
TORSDOF 7
ENDMDL
MODEL 9
REMARK VINA RESULT:      -3.8     13.125     14.308
REMARK  7 active torsions:
REMARK  status: ('A' for Active; 'I' for Inactive)
REMARK    1  A    between atoms: C_4  and  C_3 
REMARK    2  A    between atoms: C_5  and  C_4 
REMARK    3  A    between atoms: C_6  and  C_5 
REMARK    4  A    between atoms: C_7  and  C_6 
REMARK    5  A    between atoms: C_9  and  C_7 
REMARK    6  A    between atoms: C_8  and  O_12 
REMARK    7  A    between atoms: N_10  and  C_9 
ROOT
HETATM    1  C   UNK N   1      36.671  13.856  14.712  0.00  0.00     0.032 C 
HETATM    2  C   UNK N   1      35.946  13.954  13.374  0.00  0.00     0.078 C 
ENDROOT
BRANCH   2   3
HETATM    3  C   UNK N   1      35.960  12.603  12.668  0.00  0.00     0.024 C 
BRANCH   3   4
HETATM    4  C   UNK N   1      35.708  11.454  13.629  0.00  0.00     0.002 C 
BRANCH   4   5
HETATM    5  C   UNK N   1      34.314  10.905  13.411  0.00  0.00     0.000 C 
BRANCH   5   6
HETATM    6  C   UNK N   1      33.610  10.814  14.748  0.00  0.00    -0.000 C 
BRANCH   6   7
HETATM    7  C   UNK N   1      34.605  10.992  15.873  0.00  0.00    -0.005 C 
HETATM    8  C   UNK N   1      34.656   9.722  16.696  0.00  0.00     0.005 C 
ENDBRANCH   6   7
ENDBRANCH   5   6
ENDBRANCH   4   5
ENDBRANCH   3   4
ENDBRANCH   2   3
BRANCH   2   9
HETATM    9  N   UNK N   1      36.600  14.913  12.517  0.00  0.00    -0.377 N 
HETATM   10  C   UNK N   1      35.960  15.547  11.596  0.00  0.00     0.219 C 
ATOM     11  HN  UNK N   1      37.597  15.093  12.643  1.00  0.00     0.161 HD
BRANCH  10  12
HETATM   12  O   UNK N   1      36.608  16.429  10.817  0.00  0.00    -0.357 OA
HETATM   13  H   UNK N   1      37.539  16.378  10.723  0.00  0.00     0.218 HD
ENDBRANCH  10  12
ENDBRANCH   2   9
TORSDOF 7
ENDMDL
