MODEL 1
REMARK VINA RESULT:      -4.5      0.000      0.000
REMARK  6 active torsions:
REMARK  status: ('A' for Active; 'I' for Inactive)
REMARK    1  A    between atoms: O_1  and  C_9 
REMARK    2  A    between atoms: C_6  and  N_4 
REMARK       I    between atoms: N_5  and  C_10 
REMARK    3  A    between atoms: C_6  and  C_7 
REMARK    4  A    between atoms: C_6  and  C_9 
REMARK    5  A    between atoms: C_7  and  C_8 
REMARK    6  A    between atoms: C_8  and  C_10 
ROOT
HETATM    1  C   UNK N   1      23.713  12.177  11.255  0.00  0.00     0.173 C 
ENDROOT
BRANCH   1   2
HETATM    2  N   UNK N   1      25.134  12.463  11.115  0.00  0.00    -0.418 N 
HETATM    3  H   UNK N   1      25.631  12.177  10.271  0.00  0.00     0.150 HD
HETATM    4  H   UNK N   1      25.633  12.949  11.861  0.00  0.00     0.150 HD
ENDBRANCH   1   2
BRANCH   1   5
HETATM    5  C   UNK N   1      22.805  12.149  10.032  0.00  0.00     0.044 C 
BRANCH   5   6
HETATM    6  C   UNK N   1      22.247  13.507   9.629  0.00  0.00     0.105 C 
BRANCH   6   7
HETATM    7  C   UNK N   1      20.783  13.613   9.959  0.00  0.00     0.215 C 
HETATM    8  O   UNK N   1      20.237  12.779  10.667  0.00  0.00    -0.274 OA
HETATM    9  N   UNK N   1      20.064  14.639   9.469  0.00  0.00    -0.370 N 
HETATM   10  H   UNK N   1      20.497  15.315   8.898  0.00  0.00     0.159 HD
HETATM   11  H   UNK N   1      19.105  14.715   9.681  0.00  0.00     0.159 HD
ENDBRANCH   6   7
ENDBRANCH   5   6
ENDBRANCH   1   5
BRANCH   1  12
HETATM   12  C   UNK N   1      23.158  11.910  12.619  0.00  0.00     0.163 C 
HETATM   13  O   UNK N   1      23.836  12.118  13.613  0.00  0.00    -0.648 OA
BRANCH  12  14
HETATM   14  O   UNK N   1      21.904  11.438  12.752  0.00  0.00    -0.775 OA
HETATM   15  H   UNK N   1      21.299  11.510  12.040  0.00  0.00     0.167 HD
ENDBRANCH  12  14
ENDBRANCH   1  12
TORSDOF 6
ENDMDL
MODEL 2
REMARK VINA RESULT:      -4.4     10.814     11.770
REMARK  6 active torsions:
REMARK  status: ('A' for Active; 'I' for Inactive)
REMARK    1  A    between atoms: O_1  and  C_9 
REMARK    2  A    between atoms: C_6  and  N_4 
REMARK       I    between atoms: N_5  and  C_10 
REMARK    3  A    between atoms: C_6  and  C_7 
REMARK    4  A    between atoms: C_6  and  C_9 
REMARK    5  A    between atoms: C_7  and  C_8 
REMARK    6  A    between atoms: C_8  and  C_10 
ROOT
HETATM    1  C   UNK N   1      20.330  19.711   1.987  0.00  0.00     0.173 C 
ENDROOT
BRANCH   1   2
HETATM    2  N   UNK N   1      20.525  20.133   0.607  0.00  0.00    -0.418 N 
HETATM    3  H   UNK N   1      19.953  19.730  -0.135  0.00  0.00     0.150 HD
HETATM    4  H   UNK N   1      21.234  20.832   0.381  0.00  0.00     0.150 HD
ENDBRANCH   1   2
BRANCH   1   5
HETATM    5  C   UNK N   1      19.530  18.454   2.306  0.00  0.00     0.044 C 
BRANCH   5   6
HETATM    6  C   UNK N   1      20.258  17.150   2.013  0.00  0.00     0.105 C 
BRANCH   6   7
HETATM    7  C   UNK N   1      19.914  16.631   0.644  0.00  0.00     0.215 C 
HETATM    8  O   UNK N   1      20.364  17.162  -0.361  0.00  0.00    -0.274 OA
HETATM    9  N   UNK N   1      19.099  15.567   0.523  0.00  0.00    -0.370 N 
HETATM   10  H   UNK N   1      18.732  15.134   1.328  0.00  0.00     0.159 HD
HETATM   11  H   UNK N   1      18.869  15.222  -0.370  0.00  0.00     0.159 HD
ENDBRANCH   6   7
ENDBRANCH   5   6
ENDBRANCH   1   5
BRANCH   1  12
HETATM   12  C   UNK N   1      20.927  20.531   3.086  0.00  0.00     0.163 C 
HETATM   13  O   UNK N   1      20.708  20.251   4.254  0.00  0.00    -0.648 OA
BRANCH  12  14
HETATM   14  O   UNK N   1      21.712  21.584   2.788  0.00  0.00    -0.775 OA
HETATM   15  H   UNK N   1      21.396  22.456   2.921  0.00  0.00     0.167 HD
ENDBRANCH  12  14
ENDBRANCH   1  12
TORSDOF 6
ENDMDL
MODEL 3
REMARK VINA RESULT:      -4.4     11.470     12.436
REMARK  6 active torsions:
REMARK  status: ('A' for Active; 'I' for Inactive)
REMARK    1  A    between atoms: O_1  and  C_9 
REMARK    2  A    between atoms: C_6  and  N_4 
REMARK       I    between atoms: N_5  and  C_10 
REMARK    3  A    between atoms: C_6  and  C_7 
REMARK    4  A    between atoms: C_6  and  C_9 
REMARK    5  A    between atoms: C_7  and  C_8 
REMARK    6  A    between atoms: C_8  and  C_10 
ROOT
HETATM    1  C   UNK N   1      34.495  17.081   9.082  0.00  0.00     0.173 C 
ENDROOT
BRANCH   1   2
HETATM    2  N   UNK N   1      34.928  17.172  10.469  0.00  0.00    -0.418 N 
HETATM    3  H   UNK N   1      34.238  17.268  11.214  0.00  0.00     0.150 HD
HETATM    4  H   UNK N   1      35.923  17.139  10.697  0.00  0.00     0.150 HD
ENDBRANCH   1   2
BRANCH   1   5
HETATM    5  C   UNK N   1      33.811  15.820   8.566  0.00  0.00     0.044 C 
BRANCH   5   6
HETATM    6  C   UNK N   1      32.370  15.650   9.025  0.00  0.00     0.105 C 
BRANCH   6   7
HETATM    7  C   UNK N   1      31.492  16.739   8.473  0.00  0.00     0.215 C 
HETATM    8  O   UNK N   1      31.500  17.009   7.281  0.00  0.00    -0.274 OA
HETATM    9  N   UNK N   1      30.685  17.427   9.303  0.00  0.00    -0.370 N 
HETATM   10  H   UNK N   1      30.672  17.215  10.265  0.00  0.00     0.159 HD
HETATM   11  H   UNK N   1      30.107  18.141   8.948  0.00  0.00     0.159 HD
ENDBRANCH   6   7
ENDBRANCH   5   6
ENDBRANCH   1   5
BRANCH   1  12
HETATM   12  C   UNK N   1      34.731  18.243   8.171  0.00  0.00     0.163 C 
HETATM   13  O   UNK N   1      35.294  19.246   8.582  0.00  0.00    -0.648 OA
BRANCH  12  14
HETATM   14  O   UNK N   1      34.321  18.185   6.890  0.00  0.00    -0.775 OA
HETATM   15  H   UNK N   1      34.065  18.969   6.444  0.00  0.00     0.167 HD
ENDBRANCH  12  14
ENDBRANCH   1  12
TORSDOF 6
ENDMDL
MODEL 4
REMARK VINA RESULT:      -4.3      1.755      1.977
REMARK  6 active torsions:
REMARK  status: ('A' for Active; 'I' for Inactive)
REMARK    1  A    between atoms: O_1  and  C_9 
REMARK    2  A    between atoms: C_6  and  N_4 
REMARK       I    between atoms: N_5  and  C_10 
REMARK    3  A    between atoms: C_6  and  C_7 
REMARK    4  A    between atoms: C_6  and  C_9 
REMARK    5  A    between atoms: C_7  and  C_8 
REMARK    6  A    between atoms: C_8  and  C_10 
ROOT
HETATM    1  C   UNK N   1      22.197  12.347  11.366  0.00  0.00     0.173 C 
ENDROOT
BRANCH   1   2
HETATM    2  N   UNK N   1      20.848  11.876  11.646  0.00  0.00    -0.418 N 
HETATM    3  H   UNK N   1      20.692  10.904  11.914  0.00  0.00     0.150 HD
HETATM    4  H   UNK N   1      20.057  12.517  11.572  0.00  0.00     0.150 HD
ENDBRANCH   1   2
BRANCH   1   5
HETATM    5  C   UNK N   1      22.487  13.168  10.116  0.00  0.00     0.044 C 
BRANCH   5   6
HETATM    6  C   UNK N   1      21.359  13.182   9.094  0.00  0.00     0.105 C 
BRANCH   6   7
HETATM    7  C   UNK N   1      20.426  14.338   9.330  0.00  0.00     0.215 C 
HETATM    8  O   UNK N   1      19.349  14.172   9.884  0.00  0.00    -0.274 OA
HETATM    9  N   UNK N   1      20.781  15.572   8.927  0.00  0.00    -0.370 N 
HETATM   10  H   UNK N   1      21.648  15.713   8.480  0.00  0.00     0.159 HD
HETATM   11  H   UNK N   1      20.175  16.333   9.079  0.00  0.00     0.159 HD
ENDBRANCH   6   7
ENDBRANCH   5   6
ENDBRANCH   1   5
BRANCH   1  12
HETATM   12  C   UNK N   1      23.294  12.013  12.326  0.00  0.00     0.163 C 
HETATM   13  O   UNK N   1      23.033  11.608  13.448  0.00  0.00    -0.648 OA
BRANCH  12  14
HETATM   14  O   UNK N   1      24.580  12.158  11.952  0.00  0.00    -0.775 OA
HETATM   15  H   UNK N   1      25.034  12.956  12.138  0.00  0.00     0.167 HD
ENDBRANCH  12  14
ENDBRANCH   1  12
TORSDOF 6
ENDMDL
MODEL 5
REMARK VINA RESULT:      -4.3     11.505     12.319
REMARK  6 active torsions:
REMARK  status: ('A' for Active; 'I' for Inactive)
REMARK    1  A    between atoms: O_1  and  C_9 
REMARK    2  A    between atoms: C_6  and  N_4 
REMARK       I    between atoms: N_5  and  C_10 
REMARK    3  A    between atoms: C_6  and  C_7 
REMARK    4  A    between atoms: C_6  and  C_9 
REMARK    5  A    between atoms: C_7  and  C_8 
REMARK    6  A    between atoms: C_8  and  C_10 
ROOT
HETATM    1  C   UNK N   1      34.115  17.223   9.030  0.00  0.00     0.173 C 
ENDROOT
BRANCH   1   2
HETATM    2  N   UNK N   1      34.742  17.053  10.333  0.00  0.00    -0.418 N 
HETATM    3  H   UNK N   1      35.754  17.139  10.428  0.00  0.00     0.150 HD
HETATM    4  H   UNK N   1      34.169  16.848  11.153  0.00  0.00     0.150 HD
ENDBRANCH   1   2
BRANCH   1   5
HETATM    5  C   UNK N   1      32.935  16.350   8.619  0.00  0.00     0.044 C 
BRANCH   5   6
HETATM    6  C   UNK N   1      31.592  17.065   8.615  0.00  0.00     0.105 C 
BRANCH   6   7
HETATM    7  C   UNK N   1      31.046  17.187   7.219  0.00  0.00     0.215 C 
HETATM    8  O   UNK N   1      31.779  17.083   6.246  0.00  0.00    -0.274 OA
HETATM    9  N   UNK N   1      29.731  17.412   7.037  0.00  0.00    -0.370 N 
HETATM   10  H   UNK N   1      29.134  17.497   7.815  0.00  0.00     0.159 HD
HETATM   11  H   UNK N   1      29.367  17.493   6.125  0.00  0.00     0.159 HD
ENDBRANCH   6   7
ENDBRANCH   5   6
ENDBRANCH   1   5
BRANCH   1  12
HETATM   12  C   UNK N   1      34.647  18.267   8.101  0.00  0.00     0.163 C 
HETATM   13  O   UNK N   1      35.260  19.228   8.536  0.00  0.00    -0.648 OA
BRANCH  12  14
HETATM   14  O   UNK N   1      34.449  18.147   6.774  0.00  0.00    -0.775 OA
HETATM   15  H   UNK N   1      34.444  18.911   6.231  0.00  0.00     0.167 HD
ENDBRANCH  12  14
ENDBRANCH   1  12
TORSDOF 6
ENDMDL
MODEL 6
REMARK VINA RESULT:      -4.3     12.569     13.661
REMARK  6 active torsions:
REMARK  status: ('A' for Active; 'I' for Inactive)
REMARK    1  A    between atoms: O_1  and  C_9 
REMARK    2  A    between atoms: C_6  and  N_4 
REMARK       I    between atoms: N_5  and  C_10 
REMARK    3  A    between atoms: C_6  and  C_7 
REMARK    4  A    between atoms: C_6  and  C_9 
REMARK    5  A    between atoms: C_7  and  C_8 
REMARK    6  A    between atoms: C_8  and  C_10 
ROOT
HETATM    1  C   UNK N   1      33.180  17.403   8.510  0.00  0.00     0.173 C 
ENDROOT
BRANCH   1   2
HETATM    2  N   UNK N   1      31.877  18.005   8.752  0.00  0.00    -0.418 N 
HETATM    3  H   UNK N   1      31.560  18.784   8.176  0.00  0.00     0.150 HD
HETATM    4  H   UNK N   1      31.279  17.647   9.498  0.00  0.00     0.150 HD
ENDBRANCH   1   2
BRANCH   1   5
HETATM    5  C   UNK N   1      33.500  16.011   9.040  0.00  0.00     0.044 C 
BRANCH   5   6
HETATM    6  C   UNK N   1      34.985  15.727   9.214  0.00  0.00     0.105 C 
BRANCH   6   7
HETATM    7  C   UNK N   1      35.492  16.267  10.523  0.00  0.00     0.215 C 
HETATM    8  O   UNK N   1      35.932  17.405  10.605  0.00  0.00    -0.274 OA
HETATM    9  N   UNK N   1      35.462  15.487  11.620  0.00  0.00    -0.370 N 
HETATM   10  H   UNK N   1      35.109  14.570  11.562  0.00  0.00     0.159 HD
HETATM   11  H   UNK N   1      35.792  15.835  12.480  0.00  0.00     0.159 HD
ENDBRANCH   6   7
ENDBRANCH   5   6
ENDBRANCH   1   5
BRANCH   1  12
HETATM   12  C   UNK N   1      34.201  18.173   7.734  0.00  0.00     0.163 C 
HETATM   13  O   UNK N   1      34.356  17.965   6.541  0.00  0.00    -0.648 OA
BRANCH  12  14
HETATM   14  O   UNK N   1      34.954  19.102   8.353  0.00  0.00    -0.775 OA
HETATM   15  H   UNK N   1      34.888  19.215   9.281  0.00  0.00     0.167 HD
ENDBRANCH  12  14
ENDBRANCH   1  12
TORSDOF 6
ENDMDL
MODEL 7
REMARK VINA RESULT:      -4.2     12.542     13.781
REMARK  6 active torsions:
REMARK  status: ('A' for Active; 'I' for Inactive)
REMARK    1  A    between atoms: O_1  and  C_9 
REMARK    2  A    between atoms: C_6  and  N_4 
REMARK       I    between atoms: N_5  and  C_10 
REMARK    3  A    between atoms: C_6  and  C_7 
REMARK    4  A    between atoms: C_6  and  C_9 
REMARK    5  A    between atoms: C_7  and  C_8 
REMARK    6  A    between atoms: C_8  and  C_10 
ROOT
HETATM    1  C   UNK N   1      34.810  15.036  10.691  0.00  0.00     0.173 C 
ENDROOT
BRANCH   1   2
HETATM    2  N   UNK N   1      33.374  15.260  10.777  0.00  0.00    -0.418 N 
HETATM    3  H   UNK N   1      32.865  14.988  11.618  0.00  0.00     0.150 HD
HETATM    4  H   UNK N   1      32.876  15.690   9.996  0.00  0.00     0.150 HD
ENDBRANCH   1   2
BRANCH   1   5
HETATM    5  C   UNK N   1      35.371  13.619  10.650  0.00  0.00     0.044 C 
BRANCH   5   6
HETATM    6  C   UNK N   1      35.056  12.780  11.880  0.00  0.00     0.105 C 
BRANCH   6   7
HETATM    7  C   UNK N   1      35.638  13.396  13.122  0.00  0.00     0.215 C 
HETATM    8  O   UNK N   1      34.960  13.540  14.129  0.00  0.00    -0.274 OA
HETATM    9  N   UNK N   1      36.924  13.796  13.126  0.00  0.00    -0.370 N 
HETATM   10  H   UNK N   1      37.476  13.684  12.318  0.00  0.00     0.159 HD
HETATM   11  H   UNK N   1      37.311  14.200  13.936  0.00  0.00     0.159 HD
ENDBRANCH   6   7
ENDBRANCH   5   6
ENDBRANCH   1   5
BRANCH   1  12
HETATM   12  C   UNK N   1      35.726  16.217  10.643  0.00  0.00     0.163 C 
HETATM   13  O   UNK N   1      35.302  17.316  10.323  0.00  0.00    -0.648 OA
BRANCH  12  14
HETATM   14  O   UNK N   1      37.028  16.069  10.954  0.00  0.00    -0.775 OA
HETATM   15  H   UNK N   1      37.504  15.328  10.634  0.00  0.00     0.167 HD
ENDBRANCH  12  14
ENDBRANCH   1  12
TORSDOF 6
ENDMDL
MODEL 8
REMARK VINA RESULT:      -4.2     12.737     13.169
REMARK  6 active torsions:
REMARK  status: ('A' for Active; 'I' for Inactive)
REMARK    1  A    between atoms: O_1  and  C_9 
REMARK    2  A    between atoms: C_6  and  N_4 
REMARK       I    between atoms: N_5  and  C_10 
REMARK    3  A    between atoms: C_6  and  C_7 
REMARK    4  A    between atoms: C_6  and  C_9 
REMARK    5  A    between atoms: C_7  and  C_8 
REMARK    6  A    between atoms: C_8  and  C_10 
ROOT
HETATM    1  C   UNK N   1      34.591  15.598   9.921  0.00  0.00     0.173 C 
ENDROOT
BRANCH   1   2
HETATM    2  N   UNK N   1      33.658  15.028  10.882  0.00  0.00    -0.418 N 
HETATM    3  H   UNK N   1      32.752  15.471  11.038  0.00  0.00     0.150 HD
HETATM    4  H   UNK N   1      33.909  14.185  11.399  0.00  0.00     0.150 HD
ENDBRANCH   1   2
BRANCH   1   5
HETATM    5  C   UNK N   1      34.469  15.274   8.437  0.00  0.00     0.044 C 
BRANCH   5   6
HETATM    6  C   UNK N   1      33.360  16.026   7.715  0.00  0.00     0.105 C 
BRANCH   6   7
HETATM    7  C   UNK N   1      33.822  17.391   7.283  0.00  0.00     0.215 C 
HETATM    8  O   UNK N   1      34.453  17.542   6.246  0.00  0.00    -0.274 OA
HETATM    9  N   UNK N   1      33.537  18.461   8.047  0.00  0.00    -0.370 N 
HETATM   10  H   UNK N   1      33.030  18.348   8.884  0.00  0.00     0.159 HD
HETATM   11  H   UNK N   1      33.836  19.358   7.770  0.00  0.00     0.159 HD
ENDBRANCH   6   7
ENDBRANCH   5   6
ENDBRANCH   1   5
BRANCH   1  12
HETATM   12  C   UNK N   1      35.672  16.508  10.412  0.00  0.00     0.163 C 
HETATM   13  O   UNK N   1      35.562  17.718  10.295  0.00  0.00    -0.648 OA
BRANCH  12  14
HETATM   14  O   UNK N   1      36.774  15.990  10.988  0.00  0.00    -0.775 OA
HETATM   15  H   UNK N   1      37.593  16.440  10.918  0.00  0.00     0.167 HD
ENDBRANCH  12  14
ENDBRANCH   1  12
TORSDOF 6
ENDMDL
MODEL 9
REMARK VINA RESULT:      -4.2     12.667     14.018
REMARK  6 active torsions:
REMARK  status: ('A' for Active; 'I' for Inactive)
REMARK    1  A    between atoms: O_1  and  C_9 
REMARK    2  A    between atoms: C_6  and  N_4 
REMARK       I    between atoms: N_5  and  C_10 
REMARK    3  A    between atoms: C_6  and  C_7 
REMARK    4  A    between atoms: C_6  and  C_9 
REMARK    5  A    between atoms: C_7  and  C_8 
REMARK    6  A    between atoms: C_8  and  C_10 
ROOT
HETATM    1  C   UNK N   1      34.518  17.135   9.359  0.00  0.00     0.173 C 
ENDROOT
BRANCH   1   2
HETATM    2  N   UNK N   1      33.308  16.328   9.298  0.00  0.00    -0.418 N 
HETATM    3  H   UNK N   1      32.966  15.990   8.398  0.00  0.00     0.150 HD
HETATM    4  H   UNK N   1      32.801  16.101  10.154  0.00  0.00     0.150 HD
ENDBRANCH   1   2
BRANCH   1   5
HETATM    5  C   UNK N   1      35.516  16.949  10.497  0.00  0.00     0.044 C 
BRANCH   5   6
HETATM    6  C   UNK N   1      36.167  15.574  10.547  0.00  0.00     0.105 C 
BRANCH   6   7
HETATM    7  C   UNK N   1      35.712  14.801  11.754  0.00  0.00     0.215 C 
HETATM    8  O   UNK N   1      34.535  14.504  11.903  0.00  0.00    -0.274 OA
HETATM    9  N   UNK N   1      36.612  14.432  12.684  0.00  0.00    -0.370 N 
HETATM   10  H   UNK N   1      37.561  14.668  12.572  0.00  0.00     0.159 HD
HETATM   11  H   UNK N   1      36.321  13.925  13.477  0.00  0.00     0.159 HD
ENDBRANCH   6   7
ENDBRANCH   5   6
ENDBRANCH   1   5
BRANCH   1  12
HETATM   12  C   UNK N   1      34.768  18.150   8.290  0.00  0.00     0.163 C 
HETATM   13  O   UNK N   1      35.274  19.227   8.565  0.00  0.00    -0.648 OA
BRANCH  12  14
HETATM   14  O   UNK N   1      34.433  17.876   7.014  0.00  0.00    -0.775 OA
HETATM   15  H   UNK N   1      33.668  18.265   6.638  0.00  0.00     0.167 HD
ENDBRANCH  12  14
ENDBRANCH   1  12
TORSDOF 6
ENDMDL
