REMARK  9 active torsions:
REMARK  status: ('A' for Active; 'I' for Inactive)
REMARK    1  A    between atoms: C_9  and  C_6 
REMARK    2  A    between atoms: C_14  and  C_6 
REMARK    3  A    between atoms: C_16  and  C_7 
REMARK    4  A    between atoms: C_9  and  C_8 
REMARK    5  A    between atoms: C_9  and  C_18 
REMARK    6  A    between atoms: C_17  and  C_10 
REMARK    7  A    between atoms: O_28  and  C_15 
REMARK    8  A    between atoms: N_22  and  C_16 
REMARK    9  A    between atoms: O_31  and  C_18 
ROOT
HETATM    1  C   UNK N   1       4.128  -0.797  -0.042  0.00  0.00     0.026 A 
HETATM    2  C   UNK N   1       5.490   1.177   0.030  0.00  0.00     0.030 A 
HETATM    3  C   UNK N   1       5.391  -0.222  -0.005  0.00  0.00    -0.041 A 
HETATM    4  C   UNK N   1       2.964  -0.039  -0.046  0.00  0.00     0.043 A 
HETATM    5  C   UNK N   1       4.334   1.972  -0.011  0.00  0.00     0.045 A 
HETATM    6  C   UNK N   1       3.060   1.367  -0.040  0.00  0.00     0.097 A 
HETATM    7 Br   UNK N   1       4.518   3.875   0.004  0.00  0.00    -0.048 Br
ENDROOT
BRANCH   4   8
HETATM    8  C   UNK N   1       1.701  -0.796  -0.019  0.00  0.00     0.119 A 
HETATM    9  N   UNK N   1       1.698  -2.154   0.057  0.00  0.00    -0.340 N 
HETATM   10  C   UNK N   1       0.407  -2.476   0.074  0.00  0.00     0.060 A 
ATOM     11  HN  UNK N   1       2.501  -2.781   0.094  1.00  0.00     0.167 HD
HETATM   12  C   UNK N   1      -0.140  -3.749   0.140  0.00  0.00     0.033 A 
HETATM   13  C   UNK N   1      -0.352  -1.351   0.009  0.00  0.00     0.061 A 
HETATM   14  C   UNK N   1      -1.539  -3.848   0.127  0.00  0.00     0.017 A 
HETATM   15  C   UNK N   1      -2.348  -2.685   0.050  0.00  0.00     0.009 A 
HETATM   16  C   UNK N   1      -1.741  -1.405  -0.006  0.00  0.00     0.047 A 
HETATM   17  N   UNK N   1       0.449  -0.268  -0.046  0.00  0.00    -0.340 N 
HETATM   18  H   UNK N   1       0.189   0.681  -0.093  0.00  0.00     0.167 HD
BRANCH  15  19
HETATM   19  C   UNK N   1      -3.818  -2.816   0.015  0.00  0.00     0.102 C 
HETATM   20  N   UNK N   1      -4.367  -3.975   0.055  0.00  0.00    -0.385 N 
HETATM   21  H   UNK N   1      -5.348  -4.055   0.086  0.00  0.00     0.157 HD
ATOM     22  HN  UNK N   1      -3.787  -4.814   0.055  1.00  0.00     0.157 HD
BRANCH  19  23
HETATM   23  N   UNK N   1      -4.633  -1.666  -0.089  0.00  0.00    -0.385 N 
HETATM   24  H   UNK N   1      -4.223  -0.774  -0.162  0.00  0.00     0.157 HD
HETATM   25  H   UNK N   1      -5.613  -1.757  -0.089  0.00  0.00     0.157 HD
ENDBRANCH  19  23
ENDBRANCH  15  19
ENDBRANCH   4   8
BRANCH   6  26
HETATM   26  O   UNK N   1       1.953   2.132  -0.043  0.00  0.00    -0.358 OA
ATOM     27  HO  UNK N   1       2.017   3.079  -0.039  1.00  0.00     0.217 HD
ENDBRANCH   6  26
BRANCH   3  28
HETATM   28  C   UNK N   1       6.613  -1.111   0.139  0.00  0.00     0.126 C 
BRANCH  28  29
HETATM   29  C   UNK N   1       7.771  -0.600  -0.726  0.00  0.00     0.133 C 
BRANCH  29  30
HETATM   30  C   UNK N   1       9.093  -1.004  -0.136  0.00  0.00     0.173 C 
HETATM   31  O   UNK N   1       9.881  -0.146   0.221  0.00  0.00    -0.648 OA
HETATM   32  O   UNK N   1       9.393  -2.305   0.048  0.00  0.00    -0.648 OA
ENDBRANCH  29  30
ENDBRANCH  28  29
BRANCH  28  33
HETATM   33  C   UNK N   1       6.312  -2.581  -0.151  0.00  0.00     0.148 C 
HETATM   34  O   UNK N   1       6.880  -3.169  -1.059  0.00  0.00    -0.649 OA
BRANCH  33  35
HETATM   35  O   UNK N   1       5.398  -3.242   0.588  0.00  0.00    -0.776 OA
HETATM   36  H   UNK N   1       4.683  -2.922   1.101  0.00  0.00     0.167 HD
ENDBRANCH  33  35
ENDBRANCH  28  33
ENDBRANCH   3  28
TORSDOF 9
