MODEL 1
REMARK VINA RESULT:      -5.9      0.000      0.000
REMARK  1 active torsions:
REMARK  status: ('A' for Active; 'I' for Inactive)
REMARK    1  A    between atoms: N_1  and  C_2 
ROOT
HETATM    1  C   UNK N   1      24.285  13.526   8.321  0.00  0.00     0.026 A 
HETATM    2  C   UNK N   1      22.988  13.820   7.887  0.00  0.00     0.030 A 
HETATM    3  C   UNK N   1      21.890  13.503   8.694  0.00  0.00     0.020 A 
HETATM    4  C   UNK N   1      22.088  12.890   9.942  0.00  0.00     0.049 A 
HETATM    5  C   UNK N   1      21.013  12.559  10.776  0.00  0.00     0.271 A 
HETATM    6  O   UNK N   1      19.864  12.795  10.440  0.00  0.00    -0.266 OA
HETATM    7  N   UNK N   1      21.256  11.962  11.985  0.00  0.00    -0.263 N 
HETATM    8  N   UNK N   1      22.499  11.686  12.390  0.00  0.00    -0.263 N 
HETATM    9  C   UNK N   1      23.585  11.988  11.615  0.00  0.00     0.271 A 
HETATM   10  O   UNK N   1      24.707  11.722  12.016  0.00  0.00    -0.266 OA
HETATM   11  C   UNK N   1      23.398  12.597  10.373  0.00  0.00     0.051 A 
HETATM   12  C   UNK N   1      24.488  12.918   9.558  0.00  0.00     0.047 A 
HETATM   13  H   UNK N   1      20.497  11.730  12.569  0.00  0.00     0.190 HD
HETATM   14  H   UNK N   1      22.636  11.256  13.266  0.00  0.00     0.190 HD
ENDROOT
BRANCH   1  15
HETATM   15  N   UNK N   1      25.392  13.843   7.513  0.00  0.00    -0.399 N 
HETATM   16  H   UNK N   1      25.389  14.667   6.974  0.00  0.00     0.156 HD
HETATM   17  H   UNK N   1      26.171  13.240   7.486  0.00  0.00     0.156 HD
ENDBRANCH   1  15
TORSDOF 1
ENDMDL
MODEL 2
REMARK VINA RESULT:      -5.9      0.797      2.840
REMARK  1 active torsions:
REMARK  status: ('A' for Active; 'I' for Inactive)
REMARK    1  A    between atoms: N_1  and  C_2 
ROOT
HETATM    1  C   UNK N   1      23.008  13.875   7.829  0.00  0.00     0.026 A 
HETATM    2  C   UNK N   1      24.315  13.589   8.239  0.00  0.00     0.030 A 
HETATM    3  C   UNK N   1      24.543  12.970   9.472  0.00  0.00     0.020 A 
HETATM    4  C   UNK N   1      23.461  12.633  10.301  0.00  0.00     0.049 A 
HETATM    5  C   UNK N   1      23.651  12.013  11.541  0.00  0.00     0.271 A 
HETATM    6  O   UNK N   1      24.773  11.744  11.941  0.00  0.00    -0.266 OA
HETATM    7  N   UNK N   1      22.564  11.703  12.315  0.00  0.00    -0.263 N 
HETATM    8  N   UNK N   1      21.320  11.980  11.914  0.00  0.00    -0.263 N 
HETATM    9  C   UNK N   1      21.077  12.586  10.711  0.00  0.00     0.271 A 
HETATM   10  O   UNK N   1      19.928  12.825  10.376  0.00  0.00    -0.266 OA
HETATM   11  C   UNK N   1      22.147  12.924   9.881  0.00  0.00     0.051 A 
HETATM   12  C   UNK N   1      21.930  13.544   8.646  0.00  0.00     0.047 A 
HETATM   13  H   UNK N   1      22.702  11.266  13.187  0.00  0.00     0.190 HD
HETATM   14  H   UNK N   1      20.562  11.743  12.497  0.00  0.00     0.190 HD
ENDROOT
BRANCH   1  15
HETATM   15  N   UNK N   1      22.774  14.498   6.589  0.00  0.00    -0.399 N 
HETATM   16  H   UNK N   1      22.373  13.987   5.849  0.00  0.00     0.156 HD
HETATM   17  H   UNK N   1      23.011  15.445   6.461  0.00  0.00     0.156 HD
ENDBRANCH   1  15
TORSDOF 1
ENDMDL
MODEL 3
REMARK VINA RESULT:      -5.7      9.616     11.219
REMARK  1 active torsions:
REMARK  status: ('A' for Active; 'I' for Inactive)
REMARK    1  A    between atoms: N_1  and  C_2 
ROOT
HETATM    1  C   UNK N   1      30.985  17.089   4.188  0.00  0.00     0.026 A 
HETATM    2  C   UNK N   1      32.340  17.357   3.969  0.00  0.00     0.030 A 
HETATM    3  C   UNK N   1      33.196  17.574   5.055  0.00  0.00     0.020 A 
HETATM    4  C   UNK N   1      32.695  17.524   6.366  0.00  0.00     0.049 A 
HETATM    5  C   UNK N   1      33.521  17.737   7.476  0.00  0.00     0.271 A 
HETATM    6  O   UNK N   1      34.710  17.973   7.335  0.00  0.00    -0.266 OA
HETATM    7  N   UNK N   1      32.986  17.678   8.736  0.00  0.00    -0.263 N 
HETATM    8  N   UNK N   1      31.690  17.422   8.934  0.00  0.00    -0.263 N 
HETATM    9  C   UNK N   1      30.838  17.206   7.884  0.00  0.00     0.271 A 
HETATM   10  O   UNK N   1      29.659  16.975   8.100  0.00  0.00    -0.266 OA
HETATM   11  C   UNK N   1      31.327  17.254   6.578  0.00  0.00     0.051 A 
HETATM   12  C   UNK N   1      30.481  17.038   5.485  0.00  0.00     0.047 A 
HETATM   13  H   UNK N   1      33.571  17.828   9.515  0.00  0.00     0.190 HD
HETATM   14  H   UNK N   1      31.340  17.387   9.854  0.00  0.00     0.190 HD
ENDROOT
BRANCH   1  15
HETATM   15  N   UNK N   1      30.121  16.870   3.099  0.00  0.00    -0.399 N 
HETATM   16  H   UNK N   1      29.495  16.110   3.112  0.00  0.00     0.156 HD
HETATM   17  H   UNK N   1      30.143  17.476   2.323  0.00  0.00     0.156 HD
ENDBRANCH   1  15
TORSDOF 1
ENDMDL
MODEL 4
REMARK VINA RESULT:      -5.6     13.444     14.722
REMARK  1 active torsions:
REMARK  status: ('A' for Active; 'I' for Inactive)
REMARK    1  A    between atoms: N_1  and  C_2 
ROOT
HETATM    1  C   UNK N   1      34.790  11.888  15.411  0.00  0.00     0.026 A 
HETATM    2  C   UNK N   1      34.799  10.526  15.732  0.00  0.00     0.030 A 
HETATM    3  C   UNK N   1      34.972  10.121  17.060  0.00  0.00     0.020 A 
HETATM    4  C   UNK N   1      35.137  11.079  18.072  0.00  0.00     0.049 A 
HETATM    5  C   UNK N   1      35.312  10.711  19.411  0.00  0.00     0.271 A 
HETATM    6  O   UNK N   1      35.328   9.535  19.740  0.00  0.00    -0.266 OA
HETATM    7  N   UNK N   1      35.469  11.682  20.364  0.00  0.00    -0.263 N 
HETATM    8  N   UNK N   1      35.458  12.980  20.047  0.00  0.00    -0.263 N 
HETATM    9  C   UNK N   1      35.290  13.396  18.754  0.00  0.00     0.271 A 
HETATM   10  O   UNK N   1      35.285  14.590  18.498  0.00  0.00    -0.266 OA
HETATM   11  C   UNK N   1      35.126  12.450  17.741  0.00  0.00     0.051 A 
HETATM   12  C   UNK N   1      34.952  12.844  16.410  0.00  0.00     0.047 A 
HETATM   13  H   UNK N   1      35.592  11.418  21.305  0.00  0.00     0.190 HD
HETATM   14  H   UNK N   1      35.573  13.651  20.759  0.00  0.00     0.190 HD
ENDROOT
BRANCH   1  15
HETATM   15  N   UNK N   1      34.616  12.301  14.077  0.00  0.00    -0.399 N 
HETATM   16  H   UNK N   1      33.815  12.024  13.576  0.00  0.00     0.156 HD
HETATM   17  H   UNK N   1      35.296  12.866  13.643  0.00  0.00     0.156 HD
ENDBRANCH   1  15
TORSDOF 1
ENDMDL
MODEL 5
REMARK VINA RESULT:      -5.6      9.630     10.935
REMARK  1 active torsions:
REMARK  status: ('A' for Active; 'I' for Inactive)
REMARK    1  A    between atoms: N_1  and  C_2 
ROOT
HETATM    1  C   UNK N   1      31.587  17.241   4.037  0.00  0.00     0.026 A 
HETATM    2  C   UNK N   1      30.304  17.024   4.551  0.00  0.00     0.030 A 
HETATM    3  C   UNK N   1      30.096  17.013   5.935  0.00  0.00     0.020 A 
HETATM    4  C   UNK N   1      31.175  17.218   6.810  0.00  0.00     0.049 A 
HETATM    5  C   UNK N   1      31.004  17.213   8.199  0.00  0.00     0.271 A 
HETATM    6  O   UNK N   1      29.904  17.028   8.694  0.00  0.00    -0.266 OA
HETATM    7  N   UNK N   1      32.087  17.418   9.013  0.00  0.00    -0.263 N 
HETATM    8  N   UNK N   1      33.308  17.624   8.512  0.00  0.00    -0.263 N 
HETATM    9  C   UNK N   1      33.532  17.639   7.162  0.00  0.00     0.271 A 
HETATM   10  O   UNK N   1      34.660  17.830   6.737  0.00  0.00    -0.266 OA
HETATM   11  C   UNK N   1      32.465  17.435   6.284  0.00  0.00     0.051 A 
HETATM   12  C   UNK N   1      32.662  17.445   4.900  0.00  0.00     0.047 A 
HETATM   13  H   UNK N   1      31.963  17.413   9.991  0.00  0.00     0.190 HD
HETATM   14  H   UNK N   1      34.064  17.768   9.128  0.00  0.00     0.190 HD
ENDROOT
BRANCH   1  15
HETATM   15  N   UNK N   1      31.801  17.254   2.647  0.00  0.00    -0.399 N 
HETATM   16  H   UNK N   1      31.034  17.221   2.030  0.00  0.00     0.156 HD
HETATM   17  H   UNK N   1      32.718  17.295   2.289  0.00  0.00     0.156 HD
ENDBRANCH   1  15
TORSDOF 1
ENDMDL
MODEL 6
REMARK VINA RESULT:      -5.5     18.985     20.749
REMARK  1 active torsions:
REMARK  status: ('A' for Active; 'I' for Inactive)
REMARK    1  A    between atoms: N_1  and  C_2 
ROOT
HETATM    1  C   UNK N   1      26.778  28.074  -3.532  0.00  0.00     0.026 A 
HETATM    2  C   UNK N   1      26.662  28.673  -4.792  0.00  0.00     0.030 A 
HETATM    3  C   UNK N   1      26.323  27.898  -5.907  0.00  0.00     0.020 A 
HETATM    4  C   UNK N   1      26.100  26.520  -5.764  0.00  0.00     0.049 A 
HETATM    5  C   UNK N   1      25.760  25.714  -6.857  0.00  0.00     0.271 A 
HETATM    6  O   UNK N   1      25.646  26.190  -7.975  0.00  0.00    -0.266 OA
HETATM    7  N   UNK N   1      25.551  24.373  -6.668  0.00  0.00    -0.263 N 
HETATM    8  N   UNK N   1      25.665  23.812  -5.461  0.00  0.00    -0.263 N 
HETATM    9  C   UNK N   1      25.995  24.552  -4.359  0.00  0.00     0.271 A 
HETATM   10  O   UNK N   1      26.091  24.008  -3.270  0.00  0.00    -0.266 OA
HETATM   11  C   UNK N   1      26.219  25.924  -4.491  0.00  0.00     0.051 A 
HETATM   12  C   UNK N   1      26.558  26.707  -3.383  0.00  0.00     0.047 A 
HETATM   13  H   UNK N   1      25.312  23.809  -7.440  0.00  0.00     0.190 HD
HETATM   14  H   UNK N   1      25.508  22.844  -5.363  0.00  0.00     0.190 HD
ENDROOT
BRANCH   1  15
HETATM   15  N   UNK N   1      27.118  28.849  -2.408  0.00  0.00    -0.399 N 
HETATM   16  H   UNK N   1      27.491  29.753  -2.527  0.00  0.00     0.156 HD
HETATM   17  H   UNK N   1      26.983  28.488  -1.502  0.00  0.00     0.156 HD
ENDBRANCH   1  15
TORSDOF 1
ENDMDL
MODEL 7
REMARK VINA RESULT:      -5.5      2.387      4.381
REMARK  1 active torsions:
REMARK  status: ('A' for Active; 'I' for Inactive)
REMARK    1  A    between atoms: N_1  and  C_2 
ROOT
HETATM    1  C   UNK N   1      22.763  12.066  11.529  0.00  0.00     0.026 A 
HETATM    2  C   UNK N   1      23.971  12.095  10.824  0.00  0.00     0.030 A 
HETATM    3  C   UNK N   1      24.049  12.757   9.593  0.00  0.00     0.020 A 
HETATM    4  C   UNK N   1      22.914  13.394   9.065  0.00  0.00     0.049 A 
HETATM    5  C   UNK N   1      22.955  14.065   7.837  0.00  0.00     0.271 A 
HETATM    6  O   UNK N   1      23.985  14.118   7.186  0.00  0.00    -0.266 OA
HETATM    7  N   UNK N   1      21.822  14.672   7.362  0.00  0.00    -0.263 N 
HETATM    8  N   UNK N   1      20.673  14.638   8.043  0.00  0.00    -0.263 N 
HETATM    9  C   UNK N   1      20.578  13.996   9.248  0.00  0.00     0.271 A 
HETATM   10  O   UNK N   1      19.513  13.984   9.845  0.00  0.00    -0.266 OA
HETATM   11  C   UNK N   1      21.701  13.360   9.782  0.00  0.00     0.051 A 
HETATM   12  C   UNK N   1      21.634  12.696  11.010  0.00  0.00     0.047 A 
HETATM   13  H   UNK N   1      21.855  15.143   6.497  0.00  0.00     0.190 HD
HETATM   14  H   UNK N   1      19.878  15.085   7.671  0.00  0.00     0.190 HD
ENDROOT
BRANCH   1  15
HETATM   15  N   UNK N   1      22.681  11.402  12.766  0.00  0.00    -0.399 N 
HETATM   16  H   UNK N   1      23.495  11.252  13.300  0.00  0.00     0.156 HD
HETATM   17  H   UNK N   1      21.809  11.086  13.099  0.00  0.00     0.156 HD
ENDBRANCH   1  15
TORSDOF 1
ENDMDL
MODEL 8
REMARK VINA RESULT:      -5.4     10.587     11.789
REMARK  1 active torsions:
REMARK  status: ('A' for Active; 'I' for Inactive)
REMARK    1  A    between atoms: N_1  and  C_2 
ROOT
HETATM    1  C   UNK N   1      32.268  16.062   5.525  0.00  0.00     0.026 A 
HETATM    2  C   UNK N   1      32.970  17.237   5.231  0.00  0.00     0.030 A 
HETATM    3  C   UNK N   1      33.726  17.868   6.226  0.00  0.00     0.020 A 
HETATM    4  C   UNK N   1      33.780  17.325   7.519  0.00  0.00     0.049 A 
HETATM    5  C   UNK N   1      34.525  17.930   8.539  0.00  0.00     0.271 A 
HETATM    6  O   UNK N   1      35.154  18.955   8.331  0.00  0.00    -0.266 OA
HETATM    7  N   UNK N   1      34.548  17.363   9.785  0.00  0.00    -0.263 N 
HETATM    8  N   UNK N   1      33.874  16.241  10.055  0.00  0.00    -0.263 N 
HETATM    9  C   UNK N   1      33.130  15.608   9.096  0.00  0.00     0.271 A 
HETATM   10  O   UNK N   1      32.526  14.585   9.376  0.00  0.00    -0.266 OA
HETATM   11  C   UNK N   1      33.070  16.142   7.807  0.00  0.00     0.051 A 
HETATM   12  C   UNK N   1      32.318  15.518   6.806  0.00  0.00     0.047 A 
HETATM   13  H   UNK N   1      35.074  17.791  10.500  0.00  0.00     0.190 HD
HETATM   14  H   UNK N   1      33.913  15.861  10.963  0.00  0.00     0.190 HD
ENDROOT
BRANCH   1  15
HETATM   15  N   UNK N   1      31.508  15.424   4.528  0.00  0.00    -0.399 N 
HETATM   16  H   UNK N   1      31.933  15.152   3.682  0.00  0.00     0.156 HD
HETATM   17  H   UNK N   1      30.550  15.248   4.676  0.00  0.00     0.156 HD
ENDBRANCH   1  15
TORSDOF 1
ENDMDL
MODEL 9
REMARK VINA RESULT:      -5.4     12.911     14.335
REMARK  1 active torsions:
REMARK  status: ('A' for Active; 'I' for Inactive)
REMARK    1  A    between atoms: N_1  and  C_2 
ROOT
HETATM    1  C   UNK N   1      35.341  12.523  18.954  0.00  0.00     0.026 A 
HETATM    2  C   UNK N   1      35.164  13.657  18.153  0.00  0.00     0.030 A 
HETATM    3  C   UNK N   1      34.958  13.517  16.776  0.00  0.00     0.020 A 
HETATM    4  C   UNK N   1      34.928  12.238  16.196  0.00  0.00     0.049 A 
HETATM    5  C   UNK N   1      34.724  12.060  14.823  0.00  0.00     0.271 A 
HETATM    6  O   UNK N   1      34.565  13.018  14.084  0.00  0.00    -0.266 OA
HETATM    7  N   UNK N   1      34.703  10.793  14.302  0.00  0.00    -0.263 N 
HETATM    8  N   UNK N   1      34.873   9.717  15.076  0.00  0.00    -0.263 N 
HETATM    9  C   UNK N   1      35.076   9.834  16.425  0.00  0.00     0.271 A 
HETATM   10  O   UNK N   1      35.227   8.830  17.103  0.00  0.00    -0.266 OA
HETATM   11  C   UNK N   1      35.107  11.101  17.010  0.00  0.00     0.051 A 
HETATM   12  C   UNK N   1      35.312  11.252  18.385  0.00  0.00     0.047 A 
HETATM   13  H   UNK N   1      34.559  10.672  13.335  0.00  0.00     0.190 HD
HETATM   14  H   UNK N   1      34.852   8.821  14.667  0.00  0.00     0.190 HD
ENDROOT
BRANCH   1  15
HETATM   15  N   UNK N   1      35.548  12.659  20.339  0.00  0.00    -0.399 N 
HETATM   16  H   UNK N   1      36.232  12.114  20.790  0.00  0.00     0.156 HD
HETATM   17  H   UNK N   1      35.009  13.301  20.857  0.00  0.00     0.156 HD
ENDBRANCH   1  15
TORSDOF 1
ENDMDL
