MODEL 1
REMARK VINA RESULT:      -6.4      0.000      0.000
REMARK  21 active torsions:
REMARK  status: ('A' for Active; 'I' for Inactive)
REMARK    1  A    between atoms: C_2  and  O_18 
REMARK    2  A    between atoms: C_17  and  C_20 
REMARK    3  A    between atoms: C_29  and  O_18 
REMARK    4  A    between atoms: C_20  and  C_22 
REMARK    5  A    between atoms: C_22  and  C_23 
REMARK    6  A    between atoms: C_23  and  C_24 
REMARK    7  A    between atoms: C_24  and  C_25 
REMARK    8  A    between atoms: C_30  and  C_29 
REMARK    9  A    between atoms: C_32  and  C_30 
REMARK   10  A    between atoms: C_33  and  C_32 
REMARK   11  A    between atoms: C_34  and  C_33 
REMARK   12  A    between atoms: C_35  and  C_34 
REMARK   13  A    between atoms: C_36  and  C_35 
REMARK   14  A    between atoms: C_37  and  C_36 
REMARK   15  A    between atoms: C_38  and  C_37 
REMARK   16  A    between atoms: C_40  and  C_39 
REMARK   17  A    between atoms: C_41  and  C_40 
REMARK   18  A    between atoms: C_43  and  C_42 
REMARK   19  A    between atoms: C_44  and  C_43 
REMARK   20  A    between atoms: C_45  and  C_44 
REMARK   21  A    between atoms: C_46  and  C_45 
ROOT
HETATM    1  C   UNK N   1      22.719  18.540   3.889  0.00  0.00     0.034 C 
HETATM    2  C   UNK N   1      21.677  17.491   3.446  0.00  0.00     0.136 C 
HETATM    3  C   UNK N   1      22.158  16.036   3.407  0.00  0.00     0.067 C 
HETATM    4  C   UNK N   1      23.635  15.966   3.390  0.00  0.00    -0.072 C 
HETATM    5  C   UNK N   1      24.419  16.706   4.473  0.00  0.00    -0.017 C 
HETATM    6  C   UNK N   1      23.685  17.983   4.929  0.00  0.00     0.016 C 
HETATM    7  C   UNK N   1      24.226  15.291   2.390  0.00  0.00    -0.023 C 
HETATM    8  C   UNK N   1      25.718  15.168   2.247  0.00  0.00     0.033 C 
HETATM    9  C   UNK N   1      26.475  15.664   3.481  0.00  0.00    -0.001 C 
HETATM   10  C   UNK N   1      25.855  17.010   3.962  0.00  0.00     0.003 C 
HETATM   11  C   UNK N   1      27.957  15.837   3.161  0.00  0.00    -0.001 C 
HETATM   12  C   UNK N   1      28.717  16.420   4.348  0.00  0.00    -0.036 C 
HETATM   13  C   UNK N   1      28.188  17.824   4.639  0.00  0.00     0.010 C 
HETATM   14  C   UNK N   1      26.707  17.712   5.047  0.00  0.00     0.007 C 
HETATM   15  C   UNK N   1      28.741  14.561   2.834  0.00  0.00     0.006 C 
HETATM   16  C   UNK N   1      30.178  14.850   3.318  0.00  0.00     0.006 C 
HETATM   17  C   UNK N   1      30.144  16.303   3.798  0.00  0.00    -0.002 C 
HETATM   18  C   UNK N   1      28.537  15.544   5.614  0.00  0.00     0.016 C 
HETATM   19  C   UNK N   1      24.459  15.815   5.714  0.00  0.00     0.020 C 
ENDROOT
BRANCH   2  20
HETATM   20  O   UNK N   1      20.488  17.552   4.142  0.00  0.00    -0.316 OA
BRANCH  20  21
HETATM   21  C   UNK N   1      20.103  16.671   5.106  0.00  0.00     0.259 C 
HETATM   22  O   UNK N   1      19.274  15.800   4.870  0.00  0.00    -0.265 OA
BRANCH  21  23
HETATM   23  C   UNK N   1      20.597  16.846   6.503  0.00  0.00     0.111 C 
BRANCH  23  24
HETATM   24  C   UNK N   1      21.041  15.503   7.062  0.00  0.00     0.010 C 
BRANCH  24  25
HETATM   25  C   UNK N   1      20.272  15.099   8.319  0.00  0.00     0.000 C 
BRANCH  25  26
HETATM   26  C   UNK N   1      21.136  14.585   9.463  0.00  0.00     0.000 C 
BRANCH  26  27
HETATM   27  C   UNK N   1      20.381  13.497  10.215  0.00  0.00     0.000 C 
BRANCH  27  28
HETATM   28  C   UNK N   1      21.345  12.450  10.743  0.00  0.00     0.004 C 
BRANCH  28  29
HETATM   29  C   UNK N   1      22.778  12.847  10.422  0.00  0.00     0.027 C 
BRANCH  29  30
HETATM   30  C   UNK N   1      23.556  11.664   9.932  0.00  0.00    -0.030 C 
HETATM   31  C   UNK N   1      23.742  11.412   8.631  0.00  0.00    -0.027 C 
BRANCH  31  32
HETATM   32  C   UNK N   1      23.214  12.308   7.553  0.00  0.00     0.053 C 
BRANCH  32  33
HETATM   33  C   UNK N   1      21.890  11.799   7.078  0.00  0.00    -0.027 C 
HETATM   34  C   UNK N   1      21.470  11.928   5.812  0.00  0.00    -0.030 C 
BRANCH  34  35
HETATM   35  C   UNK N   1      22.277  12.600   4.746  0.00  0.00     0.027 C 
BRANCH  35  36
HETATM   36  C   UNK N   1      22.876  11.566   3.810  0.00  0.00     0.004 C 
BRANCH  36  37
HETATM   37  C   UNK N   1      22.798  12.078   2.381  0.00  0.00    -0.000 C 
BRANCH  37  38
HETATM   38  C   UNK N   1      21.398  12.567   2.050  0.00  0.00    -0.005 C 
HETATM   39  C   UNK N   1      21.384  13.276   0.708  0.00  0.00     0.005 C 
ENDBRANCH  37  38
ENDBRANCH  36  37
ENDBRANCH  35  36
ENDBRANCH  34  35
ENDBRANCH  32  33
ENDBRANCH  31  32
ENDBRANCH  29  30
ENDBRANCH  28  29
ENDBRANCH  27  28
ENDBRANCH  26  27
ENDBRANCH  25  26
ENDBRANCH  24  25
ENDBRANCH  23  24
ENDBRANCH  21  23
ENDBRANCH  20  21
ENDBRANCH   2  20
BRANCH  17  40
HETATM   40  C   UNK N   1      31.332  16.697   4.701  0.00  0.00    -0.014 C 
HETATM   41  C   UNK N   1      32.240  17.812   4.204  0.00  0.00     0.010 C 
BRANCH  40  42
HETATM   42  C   UNK N   1      32.145  15.494   5.147  0.00  0.00     0.005 C 
BRANCH  42  43
HETATM   43  C   UNK N   1      32.508  15.704   6.615  0.00  0.00     0.001 C 
BRANCH  43  44
HETATM   44  C   UNK N   1      31.399  16.352   7.460  0.00  0.00     0.004 C 
BRANCH  44  45
HETATM   45  C   UNK N   1      31.872  17.375   8.490  0.00  0.00    -0.023 C 
HETATM   46  C   UNK N   1      33.052  18.146   7.940  0.00  0.00     0.009 C 
HETATM   47  C   UNK N   1      30.753  18.359   8.786  0.00  0.00     0.009 C 
ENDBRANCH  44  45
ENDBRANCH  43  44
ENDBRANCH  42  43
ENDBRANCH  40  42
ENDBRANCH  17  40
TORSDOF 21
ENDMDL
MODEL 2
REMARK VINA RESULT:      -6.4      2.760      5.372
REMARK  21 active torsions:
REMARK  status: ('A' for Active; 'I' for Inactive)
REMARK    1  A    between atoms: C_2  and  O_18 
REMARK    2  A    between atoms: C_17  and  C_20 
REMARK    3  A    between atoms: C_29  and  O_18 
REMARK    4  A    between atoms: C_20  and  C_22 
REMARK    5  A    between atoms: C_22  and  C_23 
REMARK    6  A    between atoms: C_23  and  C_24 
REMARK    7  A    between atoms: C_24  and  C_25 
REMARK    8  A    between atoms: C_30  and  C_29 
REMARK    9  A    between atoms: C_32  and  C_30 
REMARK   10  A    between atoms: C_33  and  C_32 
REMARK   11  A    between atoms: C_34  and  C_33 
REMARK   12  A    between atoms: C_35  and  C_34 
REMARK   13  A    between atoms: C_36  and  C_35 
REMARK   14  A    between atoms: C_37  and  C_36 
REMARK   15  A    between atoms: C_38  and  C_37 
REMARK   16  A    between atoms: C_40  and  C_39 
REMARK   17  A    between atoms: C_41  and  C_40 
REMARK   18  A    between atoms: C_43  and  C_42 
REMARK   19  A    between atoms: C_44  and  C_43 
REMARK   20  A    between atoms: C_45  and  C_44 
REMARK   21  A    between atoms: C_46  and  C_45 
ROOT
HETATM    1  C   UNK N   1      25.376  17.960   4.116  0.00  0.00     0.034 C 
HETATM    2  C   UNK N   1      24.874  19.389   4.410  0.00  0.00     0.136 C 
HETATM    3  C   UNK N   1      25.876  20.331   5.087  0.00  0.00     0.067 C 
HETATM    4  C   UNK N   1      26.981  19.572   5.710  0.00  0.00    -0.072 C 
HETATM    5  C   UNK N   1      27.758  18.569   4.856  0.00  0.00    -0.017 C 
HETATM    6  C   UNK N   1      26.862  17.934   3.774  0.00  0.00     0.016 C 
HETATM    7  C   UNK N   1      27.222  19.761   7.018  0.00  0.00    -0.023 C 
HETATM    8  C   UNK N   1      28.299  19.032   7.772  0.00  0.00     0.033 C 
HETATM    9  C   UNK N   1      29.245  18.255   6.853  0.00  0.00    -0.001 C 
HETATM   10  C   UNK N   1      28.412  17.500   5.774  0.00  0.00     0.003 C 
HETATM   11  C   UNK N   1      30.089  17.277   7.665  0.00  0.00    -0.001 C 
HETATM   12  C   UNK N   1      30.973  16.424   6.760  0.00  0.00    -0.036 C 
HETATM   13  C   UNK N   1      30.086  15.561   5.864  0.00  0.00     0.010 C 
HETATM   14  C   UNK N   1      29.258  16.492   4.958  0.00  0.00     0.007 C 
HETATM   15  C   UNK N   1      31.086  17.890   8.655  0.00  0.00     0.006 C 
HETATM   16  C   UNK N   1      32.248  16.875   8.718  0.00  0.00     0.006 C 
HETATM   17  C   UNK N   1      31.795  15.707   7.839  0.00  0.00    -0.002 C 
HETATM   18  C   UNK N   1      31.880  17.308   5.867  0.00  0.00     0.016 C 
HETATM   19  C   UNK N   1      28.820  19.344   4.077  0.00  0.00     0.020 C 
ENDROOT
BRANCH   2  20
HETATM   20  O   UNK N   1      24.324  20.027   3.318  0.00  0.00    -0.316 OA
BRANCH  20  21
HETATM   21  C   UNK N   1      22.994  20.258   3.139  0.00  0.00     0.259 C 
HETATM   22  O   UNK N   1      22.591  21.340   2.728  0.00  0.00    -0.265 OA
BRANCH  21  23
HETATM   23  C   UNK N   1      22.004  19.229   3.571  0.00  0.00     0.111 C 
BRANCH  23  24
HETATM   24  C   UNK N   1      20.643  19.543   2.970  0.00  0.00     0.010 C 
BRANCH  24  25
HETATM   25  C   UNK N   1      19.730  18.320   2.894  0.00  0.00     0.000 C 
BRANCH  25  26
HETATM   26  C   UNK N   1      20.273  17.163   2.067  0.00  0.00     0.000 C 
BRANCH  26  27
HETATM   27  C   UNK N   1      20.525  15.968   2.976  0.00  0.00     0.000 C 
BRANCH  27  28
HETATM   28  C   UNK N   1      21.881  15.353   2.682  0.00  0.00     0.004 C 
BRANCH  28  29
HETATM   29  C   UNK N   1      22.577  14.976   3.982  0.00  0.00     0.027 C 
BRANCH  29  30
HETATM   30  C   UNK N   1      22.345  16.023   5.027  0.00  0.00    -0.030 C 
HETATM   31  C   UNK N   1      22.901  15.963   6.244  0.00  0.00    -0.027 C 
BRANCH  31  32
HETATM   32  C   UNK N   1      23.827  14.859   6.653  0.00  0.00     0.053 C 
BRANCH  32  33
HETATM   33  C   UNK N   1      25.240  15.350   6.627  0.00  0.00    -0.027 C 
HETATM   34  C   UNK N   1      26.246  14.652   6.083  0.00  0.00    -0.030 C 
BRANCH  34  35
HETATM   35  C   UNK N   1      26.062  13.307   5.454  0.00  0.00     0.027 C 
BRANCH  35  36
HETATM   36  C   UNK N   1      25.973  13.441   3.944  0.00  0.00     0.004 C 
BRANCH  36  37
HETATM   37  C   UNK N   1      27.206  14.166   3.431  0.00  0.00    -0.000 C 
BRANCH  37  38
HETATM   38  C   UNK N   1      27.001  14.656   2.008  0.00  0.00    -0.005 C 
HETATM   39  C   UNK N   1      25.558  15.069   1.788  0.00  0.00     0.005 C 
ENDBRANCH  37  38
ENDBRANCH  36  37
ENDBRANCH  35  36
ENDBRANCH  34  35
ENDBRANCH  32  33
ENDBRANCH  31  32
ENDBRANCH  29  30
ENDBRANCH  28  29
ENDBRANCH  27  28
ENDBRANCH  26  27
ENDBRANCH  25  26
ENDBRANCH  24  25
ENDBRANCH  23  24
ENDBRANCH  21  23
ENDBRANCH  20  21
ENDBRANCH   2  20
BRANCH  17  40
HETATM   40  C   UNK N   1      32.937  14.761   7.409  0.00  0.00    -0.014 C 
HETATM   41  C   UNK N   1      32.999  13.399   8.083  0.00  0.00     0.010 C 
BRANCH  40  42
HETATM   42  C   UNK N   1      34.295  15.443   7.435  0.00  0.00     0.005 C 
BRANCH  42  43
HETATM   43  C   UNK N   1      35.116  14.873   6.281  0.00  0.00     0.001 C 
BRANCH  43  44
HETATM   44  C   UNK N   1      34.605  15.258   4.884  0.00  0.00     0.004 C 
BRANCH  44  45
HETATM   45  C   UNK N   1      33.989  14.119   4.074  0.00  0.00    -0.023 C 
HETATM   46  C   UNK N   1      32.749  14.613   3.360  0.00  0.00     0.009 C 
HETATM   47  C   UNK N   1      34.981  13.638   3.030  0.00  0.00     0.009 C 
ENDBRANCH  44  45
ENDBRANCH  43  44
ENDBRANCH  42  43
ENDBRANCH  40  42
ENDBRANCH  17  40
TORSDOF 21
ENDMDL
MODEL 3
REMARK VINA RESULT:      -6.4      1.533      2.753
REMARK  21 active torsions:
REMARK  status: ('A' for Active; 'I' for Inactive)
REMARK    1  A    between atoms: C_2  and  O_18 
REMARK    2  A    between atoms: C_17  and  C_20 
REMARK    3  A    between atoms: C_29  and  O_18 
REMARK    4  A    between atoms: C_20  and  C_22 
REMARK    5  A    between atoms: C_22  and  C_23 
REMARK    6  A    between atoms: C_23  and  C_24 
REMARK    7  A    between atoms: C_24  and  C_25 
REMARK    8  A    between atoms: C_30  and  C_29 
REMARK    9  A    between atoms: C_32  and  C_30 
REMARK   10  A    between atoms: C_33  and  C_32 
REMARK   11  A    between atoms: C_34  and  C_33 
REMARK   12  A    between atoms: C_35  and  C_34 
REMARK   13  A    between atoms: C_36  and  C_35 
REMARK   14  A    between atoms: C_37  and  C_36 
REMARK   15  A    between atoms: C_38  and  C_37 
REMARK   16  A    between atoms: C_40  and  C_39 
REMARK   17  A    between atoms: C_41  and  C_40 
REMARK   18  A    between atoms: C_43  and  C_42 
REMARK   19  A    between atoms: C_44  and  C_43 
REMARK   20  A    between atoms: C_45  and  C_44 
REMARK   21  A    between atoms: C_46  and  C_45 
ROOT
HETATM    1  C   UNK N   1      25.106  19.246   4.145  0.00  0.00     0.034 C 
HETATM    2  C   UNK N   1      23.875  18.362   3.851  0.00  0.00     0.136 C 
HETATM    3  C   UNK N   1      24.116  16.848   3.847  0.00  0.00     0.067 C 
HETATM    4  C   UNK N   1      25.555  16.540   3.705  0.00  0.00    -0.072 C 
HETATM    5  C   UNK N   1      26.545  17.186   4.674  0.00  0.00    -0.017 C 
HETATM    6  C   UNK N   1      26.067  18.581   5.125  0.00  0.00     0.016 C 
HETATM    7  C   UNK N   1      25.935  15.741   2.694  0.00  0.00    -0.023 C 
HETATM    8  C   UNK N   1      27.368  15.373   2.429  0.00  0.00     0.033 C 
HETATM    9  C   UNK N   1      28.308  15.788   3.563  0.00  0.00    -0.001 C 
HETATM   10  C   UNK N   1      27.955  17.234   4.024  0.00  0.00     0.003 C 
HETATM   11  C   UNK N   1      29.762  15.707   3.106  0.00  0.00    -0.001 C 
HETATM   12  C   UNK N   1      30.712  16.205   4.190  0.00  0.00    -0.036 C 
HETATM   13  C   UNK N   1      30.441  17.687   4.450  0.00  0.00     0.010 C 
HETATM   14  C   UNK N   1      29.006  17.831   4.991  0.00  0.00     0.007 C 
HETATM   15  C   UNK N   1      30.301  14.310   2.780  0.00  0.00     0.006 C 
HETATM   16  C   UNK N   1      31.805  14.381   3.120  0.00  0.00     0.006 C 
HETATM   17  C   UNK N   1      32.045  15.838   3.523  0.00  0.00    -0.002 C 
HETATM   18  C   UNK N   1      30.518  15.420   5.511  0.00  0.00     0.016 C 
HETATM   19  C   UNK N   1      26.561  16.348   5.953  0.00  0.00     0.020 C 
ENDROOT
BRANCH   2  20
HETATM   20  O   UNK N   1      22.782  18.641   4.644  0.00  0.00    -0.316 OA
BRANCH  20  21
HETATM   21  C   UNK N   1      21.502  18.756   4.193  0.00  0.00     0.259 C 
HETATM   22  O   UNK N   1      20.788  19.685   4.549  0.00  0.00    -0.265 OA
BRANCH  21  23
HETATM   23  C   UNK N   1      20.916  17.666   3.358  0.00  0.00     0.111 C 
BRANCH  23  24
HETATM   24  C   UNK N   1      19.789  16.986   4.120  0.00  0.00     0.010 C 
BRANCH  24  25
HETATM   25  C   UNK N   1      20.289  15.934   5.108  0.00  0.00     0.000 C 
BRANCH  25  26
HETATM   26  C   UNK N   1      20.310  16.378   6.564  0.00  0.00     0.000 C 
BRANCH  26  27
HETATM   27  C   UNK N   1      21.305  15.524   7.338  0.00  0.00     0.000 C 
BRANCH  27  28
HETATM   28  C   UNK N   1      20.663  14.970   8.597  0.00  0.00     0.004 C 
BRANCH  28  29
HETATM   29  C   UNK N   1      21.072  13.518   8.798  0.00  0.00     0.027 C 
BRANCH  29  30
HETATM   30  C   UNK N   1      21.352  13.244  10.243  0.00  0.00    -0.030 C 
HETATM   31  C   UNK N   1      22.414  12.540  10.652  0.00  0.00    -0.027 C 
BRANCH  31  32
HETATM   32  C   UNK N   1      23.432  11.991   9.699  0.00  0.00     0.053 C 
BRANCH  32  33
HETATM   33  C   UNK N   1      24.659  12.846   9.724  0.00  0.00    -0.027 C 
HETATM   34  C   UNK N   1      25.119  13.495   8.646  0.00  0.00    -0.030 C 
BRANCH  34  35
HETATM   35  C   UNK N   1      24.457  13.427   7.306  0.00  0.00     0.027 C 
BRANCH  35  36
HETATM   36  C   UNK N   1      25.466  13.036   6.241  0.00  0.00     0.004 C 
BRANCH  36  37
HETATM   37  C   UNK N   1      24.767  12.954   4.894  0.00  0.00    -0.000 C 
BRANCH  37  38
HETATM   38  C   UNK N   1      23.308  13.359   5.008  0.00  0.00    -0.005 C 
HETATM   39  C   UNK N   1      22.676  13.472   3.633  0.00  0.00     0.005 C 
ENDBRANCH  37  38
ENDBRANCH  36  37
ENDBRANCH  35  36
ENDBRANCH  34  35
ENDBRANCH  32  33
ENDBRANCH  31  32
ENDBRANCH  29  30
ENDBRANCH  28  29
ENDBRANCH  27  28
ENDBRANCH  26  27
ENDBRANCH  25  26
ENDBRANCH  24  25
ENDBRANCH  23  24
ENDBRANCH  21  23
ENDBRANCH  20  21
ENDBRANCH   2  20
BRANCH  17  40
HETATM   40  C   UNK N   1      33.361  16.071   4.297  0.00  0.00    -0.014 C 
HETATM   41  C   UNK N   1      33.864  14.929   5.166  0.00  0.00     0.010 C 
BRANCH  40  42
HETATM   42  C   UNK N   1      33.355  17.380   5.068  0.00  0.00     0.005 C 
BRANCH  42  43
HETATM   43  C   UNK N   1      33.894  17.090   6.467  0.00  0.00     0.001 C 
BRANCH  43  44
HETATM   44  C   UNK N   1      33.357  18.023   7.564  0.00  0.00     0.004 C 
BRANCH  44  45
HETATM   45  C   UNK N   1      32.421  17.372   8.579  0.00  0.00    -0.023 C 
HETATM   46  C   UNK N   1      30.986  17.717   8.244  0.00  0.00     0.009 C 
HETATM   47  C   UNK N   1      32.575  15.862   8.524  0.00  0.00     0.009 C 
ENDBRANCH  44  45
ENDBRANCH  43  44
ENDBRANCH  42  43
ENDBRANCH  40  42
ENDBRANCH  17  40
TORSDOF 21
ENDMDL
MODEL 4
REMARK VINA RESULT:      -6.4     10.052     15.356
REMARK  21 active torsions:
REMARK  status: ('A' for Active; 'I' for Inactive)
REMARK    1  A    between atoms: C_2  and  O_18 
REMARK    2  A    between atoms: C_17  and  C_20 
REMARK    3  A    between atoms: C_29  and  O_18 
REMARK    4  A    between atoms: C_20  and  C_22 
REMARK    5  A    between atoms: C_22  and  C_23 
REMARK    6  A    between atoms: C_23  and  C_24 
REMARK    7  A    between atoms: C_24  and  C_25 
REMARK    8  A    between atoms: C_30  and  C_29 
REMARK    9  A    between atoms: C_32  and  C_30 
REMARK   10  A    between atoms: C_33  and  C_32 
REMARK   11  A    between atoms: C_34  and  C_33 
REMARK   12  A    between atoms: C_35  and  C_34 
REMARK   13  A    between atoms: C_36  and  C_35 
REMARK   14  A    between atoms: C_37  and  C_36 
REMARK   15  A    between atoms: C_38  and  C_37 
REMARK   16  A    between atoms: C_40  and  C_39 
REMARK   17  A    between atoms: C_41  and  C_40 
REMARK   18  A    between atoms: C_43  and  C_42 
REMARK   19  A    between atoms: C_44  and  C_43 
REMARK   20  A    between atoms: C_45  and  C_44 
REMARK   21  A    between atoms: C_46  and  C_45 
ROOT
HETATM    1  C   UNK N   1      34.946  12.578  12.330  0.00  0.00     0.034 C 
HETATM    2  C   UNK N   1      35.555  13.996  12.310  0.00  0.00     0.136 C 
HETATM    3  C   UNK N   1      36.405  14.384  13.524  0.00  0.00     0.067 C 
HETATM    4  C   UNK N   1      36.132  13.489  14.670  0.00  0.00    -0.072 C 
HETATM    5  C   UNK N   1      36.239  11.979  14.466  0.00  0.00    -0.017 C 
HETATM    6  C   UNK N   1      35.857  11.574  13.028  0.00  0.00     0.016 C 
HETATM    7  C   UNK N   1      35.752  14.046  15.832  0.00  0.00    -0.023 C 
HETATM    8  C   UNK N   1      35.423  13.246  17.061  0.00  0.00     0.033 C 
HETATM    9  C   UNK N   1      35.807  11.770  16.929  0.00  0.00    -0.001 C 
HETATM   10  C   UNK N   1      35.372  11.246  15.527  0.00  0.00     0.003 C 
HETATM   11  C   UNK N   1      35.154  10.950  18.038  0.00  0.00    -0.001 C 
HETATM   12  C   UNK N   1      35.446   9.462  17.872  0.00  0.00    -0.036 C 
HETATM   13  C   UNK N   1      34.818   8.971  16.568  0.00  0.00     0.010 C 
HETATM   14  C   UNK N   1      35.492   9.709  15.396  0.00  0.00     0.007 C 
HETATM   15  C   UNK N   1      35.616  11.242  19.470  0.00  0.00     0.006 C 
HETATM   16  C   UNK N   1      35.465   9.897  20.212  0.00  0.00     0.006 C 
HETATM   17  C   UNK N   1      34.836   8.953  19.185  0.00  0.00    -0.002 C 
HETATM   18  C   UNK N   1      36.971   9.191  17.827  0.00  0.00     0.016 C 
HETATM   19  C   UNK N   1      37.711  11.591  14.602  0.00  0.00     0.020 C 
ENDROOT
BRANCH   2  20
HETATM   20  O   UNK N   1      36.256  14.290  11.159  0.00  0.00    -0.316 OA
BRANCH  20  21
HETATM   21  C   UNK N   1      36.056  15.393  10.385  0.00  0.00     0.259 C 
HETATM   22  O   UNK N   1      36.425  16.500  10.758  0.00  0.00    -0.265 OA
BRANCH  21  23
HETATM   23  C   UNK N   1      35.263  15.276   9.127  0.00  0.00     0.111 C 
BRANCH  23  24
HETATM   24  C   UNK N   1      33.830  15.714   9.381  0.00  0.00     0.010 C 
BRANCH  24  25
HETATM   25  C   UNK N   1      33.524  17.102   8.819  0.00  0.00     0.000 C 
BRANCH  25  26
HETATM   26  C   UNK N   1      32.825  17.107   7.466  0.00  0.00     0.000 C 
BRANCH  26  27
HETATM   27  C   UNK N   1      33.844  17.402   6.374  0.00  0.00     0.000 C 
BRANCH  27  28
HETATM   28  C   UNK N   1      34.278  16.117   5.692  0.00  0.00     0.004 C 
BRANCH  28  29
HETATM   29  C   UNK N   1      33.147  15.573   4.832  0.00  0.00     0.027 C 
BRANCH  29  30
HETATM   30  C   UNK N   1      33.159  16.212   3.478  0.00  0.00    -0.030 C 
HETATM   31  C   UNK N   1      32.204  17.058   3.071  0.00  0.00    -0.027 C 
BRANCH  31  32
HETATM   32  C   UNK N   1      31.057  17.460   3.947  0.00  0.00     0.053 C 
BRANCH  32  33
HETATM   33  C   UNK N   1      29.871  16.598   3.653  0.00  0.00    -0.027 C 
HETATM   34  C   UNK N   1      29.193  15.939   4.602  0.00  0.00    -0.030 C 
BRANCH  34  35
HETATM   35  C   UNK N   1      29.556  15.992   6.053  0.00  0.00     0.027 C 
BRANCH  35  36
HETATM   36  C   UNK N   1      28.513  16.775   6.828  0.00  0.00     0.004 C 
BRANCH  36  37
HETATM   37  C   UNK N   1      29.073  18.144   7.181  0.00  0.00    -0.000 C 
BRANCH  37  38
HETATM   38  C   UNK N   1      28.548  18.621   8.524  0.00  0.00    -0.005 C 
HETATM   39  C   UNK N   1      29.568  18.363   9.618  0.00  0.00     0.005 C 
ENDBRANCH  37  38
ENDBRANCH  36  37
ENDBRANCH  35  36
ENDBRANCH  34  35
ENDBRANCH  32  33
ENDBRANCH  31  32
ENDBRANCH  29  30
ENDBRANCH  28  29
ENDBRANCH  27  28
ENDBRANCH  26  27
ENDBRANCH  25  26
ENDBRANCH  24  25
ENDBRANCH  23  24
ENDBRANCH  21  23
ENDBRANCH  20  21
ENDBRANCH   2  20
BRANCH  17  40
HETATM   40  C   UNK N   1      34.963   7.456  19.542  0.00  0.00    -0.014 C 
HETATM   41  C   UNK N   1      34.033   6.491  18.824  0.00  0.00     0.010 C 
BRANCH  40  42
HETATM   42  C   UNK N   1      34.943   7.215  21.042  0.00  0.00     0.005 C 
BRANCH  42  43
HETATM   43  C   UNK N   1      33.501   6.910  21.438  0.00  0.00     0.001 C 
BRANCH  43  44
HETATM   44  C   UNK N   1      32.917   7.858  22.498  0.00  0.00     0.004 C 
BRANCH  44  45
HETATM   45  C   UNK N   1      31.876   8.851  21.988  0.00  0.00    -0.023 C 
HETATM   46  C   UNK N   1      32.463  10.246  21.978  0.00  0.00     0.009 C 
HETATM   47  C   UNK N   1      31.475   8.490  20.569  0.00  0.00     0.009 C 
ENDBRANCH  44  45
ENDBRANCH  43  44
ENDBRANCH  42  43
ENDBRANCH  40  42
ENDBRANCH  17  40
TORSDOF 21
ENDMDL
MODEL 5
REMARK VINA RESULT:      -6.3     12.989     16.407
REMARK  21 active torsions:
REMARK  status: ('A' for Active; 'I' for Inactive)
REMARK    1  A    between atoms: C_2  and  O_18 
REMARK    2  A    between atoms: C_17  and  C_20 
REMARK    3  A    between atoms: C_29  and  O_18 
REMARK    4  A    between atoms: C_20  and  C_22 
REMARK    5  A    between atoms: C_22  and  C_23 
REMARK    6  A    between atoms: C_23  and  C_24 
REMARK    7  A    between atoms: C_24  and  C_25 
REMARK    8  A    between atoms: C_30  and  C_29 
REMARK    9  A    between atoms: C_32  and  C_30 
REMARK   10  A    between atoms: C_33  and  C_32 
REMARK   11  A    between atoms: C_34  and  C_33 
REMARK   12  A    between atoms: C_35  and  C_34 
REMARK   13  A    between atoms: C_36  and  C_35 
REMARK   14  A    between atoms: C_37  and  C_36 
REMARK   15  A    between atoms: C_38  and  C_37 
REMARK   16  A    between atoms: C_40  and  C_39 
REMARK   17  A    between atoms: C_41  and  C_40 
REMARK   18  A    between atoms: C_43  and  C_42 
REMARK   19  A    between atoms: C_44  and  C_43 
REMARK   20  A    between atoms: C_45  and  C_44 
REMARK   21  A    between atoms: C_46  and  C_45 
ROOT
HETATM    1  C   UNK N   1      26.090  23.147  -6.048  0.00  0.00     0.034 C 
HETATM    2  C   UNK N   1      25.590  24.232  -5.073  0.00  0.00     0.136 C 
HETATM    3  C   UNK N   1      26.656  24.892  -4.191  0.00  0.00     0.067 C 
HETATM    4  C   UNK N   1      27.885  24.071  -4.140  0.00  0.00    -0.072 C 
HETATM    5  C   UNK N   1      28.539  23.643  -5.454  0.00  0.00    -0.017 C 
HETATM    6  C   UNK N   1      27.492  23.447  -6.569  0.00  0.00     0.016 C 
HETATM    7  C   UNK N   1      28.347  23.694  -2.936  0.00  0.00    -0.023 C 
HETATM    8  C   UNK N   1      29.570  22.839  -2.752  0.00  0.00     0.033 C 
HETATM    9  C   UNK N   1      30.368  22.660  -4.046  0.00  0.00    -0.001 C 
HETATM   10  C   UNK N   1      29.389  22.364  -5.221  0.00  0.00     0.003 C 
HETATM   11  C   UNK N   1      31.383  21.531  -3.891  0.00  0.00    -0.001 C 
HETATM   12  C   UNK N   1      32.127  21.272  -5.197  0.00  0.00    -0.036 C 
HETATM   13  C   UNK N   1      31.131  20.792  -6.253  0.00  0.00     0.010 C 
HETATM   14  C   UNK N   1      30.118  21.923  -6.514  0.00  0.00     0.007 C 
HETATM   15  C   UNK N   1      32.514  21.760  -2.881  0.00  0.00     0.006 C 
HETATM   16  C   UNK N   1      33.710  20.963  -3.447  0.00  0.00     0.006 C 
HETATM   17  C   UNK N   1      33.157  20.255  -4.686  0.00  0.00    -0.002 C 
HETATM   18  C   UNK N   1      32.824  22.557  -5.711  0.00  0.00     0.016 C 
HETATM   19  C   UNK N   1      29.413  24.799  -5.940  0.00  0.00     0.020 C 
ENDROOT
BRANCH   2  20
HETATM   20  O   UNK N   1      24.829  25.216  -5.669  0.00  0.00    -0.316 OA
BRANCH  20  21
HETATM   21  C   UNK N   1      25.268  26.472  -5.958  0.00  0.00     0.259 C 
HETATM   22  O   UNK N   1      24.874  27.440  -5.318  0.00  0.00    -0.265 OA
BRANCH  21  23
HETATM   23  C   UNK N   1      26.138  26.693  -7.150  0.00  0.00     0.111 C 
BRANCH  23  24
HETATM   24  C   UNK N   1      27.265  27.649  -6.792  0.00  0.00     0.010 C 
BRANCH  24  25
HETATM   25  C   UNK N   1      28.292  27.803  -7.913  0.00  0.00     0.000 C 
BRANCH  25  26
HETATM   26  C   UNK N   1      29.067  29.114  -7.899  0.00  0.00     0.000 C 
BRANCH  26  27
HETATM   27  C   UNK N   1      28.761  29.866  -6.610  0.00  0.00     0.000 C 
BRANCH  27  28
HETATM   28  C   UNK N   1      30.047  30.289  -5.924  0.00  0.00     0.004 C 
BRANCH  28  29
HETATM   29  C   UNK N   1      29.958  30.016  -4.430  0.00  0.00     0.027 C 
BRANCH  29  30
HETATM   30  C   UNK N   1      29.021  28.880  -4.157  0.00  0.00    -0.030 C 
HETATM   31  C   UNK N   1      29.417  27.745  -3.568  0.00  0.00    -0.027 C 
BRANCH  31  32
HETATM   32  C   UNK N   1      30.824  27.525  -3.106  0.00  0.00     0.053 C 
BRANCH  32  33
HETATM   33  C   UNK N   1      31.303  26.184  -3.563  0.00  0.00    -0.027 C 
HETATM   34  C   UNK N   1      32.195  26.024  -4.549  0.00  0.00    -0.030 C 
BRANCH  34  35
HETATM   35  C   UNK N   1      32.800  27.169  -5.299  0.00  0.00     0.027 C 
BRANCH  35  36
HETATM   36  C   UNK N   1      32.108  27.346  -6.638  0.00  0.00     0.004 C 
BRANCH  36  37
HETATM   37  C   UNK N   1      32.935  26.676  -7.723  0.00  0.00    -0.000 C 
BRANCH  37  38
HETATM   38  C   UNK N   1      32.346  25.331  -8.110  0.00  0.00    -0.005 C 
HETATM   39  C   UNK N   1      31.228  25.509  -9.121  0.00  0.00     0.005 C 
ENDBRANCH  37  38
ENDBRANCH  36  37
ENDBRANCH  35  36
ENDBRANCH  34  35
ENDBRANCH  32  33
ENDBRANCH  31  32
ENDBRANCH  29  30
ENDBRANCH  28  29
ENDBRANCH  27  28
ENDBRANCH  26  27
ENDBRANCH  25  26
ENDBRANCH  24  25
ENDBRANCH  23  24
ENDBRANCH  21  23
ENDBRANCH  20  21
ENDBRANCH   2  20
BRANCH  17  40
HETATM   40  C   UNK N   1      34.242  19.735  -5.652  0.00  0.00    -0.014 C 
HETATM   41  C   UNK N   1      34.179  18.265  -6.038  0.00  0.00     0.010 C 
BRANCH  40  42
HETATM   42  C   UNK N   1      35.644  20.121  -5.211  0.00  0.00     0.005 C 
BRANCH  42  43
HETATM   43  C   UNK N   1      36.369  20.686  -6.430  0.00  0.00     0.001 C 
BRANCH  43  44
HETATM   44  C   UNK N   1      36.959  22.091  -6.227  0.00  0.00     0.004 C 
BRANCH  44  45
HETATM   45  C   UNK N   1      36.514  22.812  -4.957  0.00  0.00    -0.023 C 
HETATM   46  C   UNK N   1      37.684  22.944  -4.007  0.00  0.00     0.009 C 
HETATM   47  C   UNK N   1      36.022  24.206  -5.305  0.00  0.00     0.009 C 
ENDBRANCH  44  45
ENDBRANCH  43  44
ENDBRANCH  42  43
ENDBRANCH  40  42
ENDBRANCH  17  40
TORSDOF 21
ENDMDL
MODEL 6
REMARK VINA RESULT:      -6.3      4.465      8.750
REMARK  21 active torsions:
REMARK  status: ('A' for Active; 'I' for Inactive)
REMARK    1  A    between atoms: C_2  and  O_18 
REMARK    2  A    between atoms: C_17  and  C_20 
REMARK    3  A    between atoms: C_29  and  O_18 
REMARK    4  A    between atoms: C_20  and  C_22 
REMARK    5  A    between atoms: C_22  and  C_23 
REMARK    6  A    between atoms: C_23  and  C_24 
REMARK    7  A    between atoms: C_24  and  C_25 
REMARK    8  A    between atoms: C_30  and  C_29 
REMARK    9  A    between atoms: C_32  and  C_30 
REMARK   10  A    between atoms: C_33  and  C_32 
REMARK   11  A    between atoms: C_34  and  C_33 
REMARK   12  A    between atoms: C_35  and  C_34 
REMARK   13  A    between atoms: C_36  and  C_35 
REMARK   14  A    between atoms: C_37  and  C_36 
REMARK   15  A    between atoms: C_38  and  C_37 
REMARK   16  A    between atoms: C_40  and  C_39 
REMARK   17  A    between atoms: C_41  and  C_40 
REMARK   18  A    between atoms: C_43  and  C_42 
REMARK   19  A    between atoms: C_44  and  C_43 
REMARK   20  A    between atoms: C_45  and  C_44 
REMARK   21  A    between atoms: C_46  and  C_45 
ROOT
HETATM    1  C   UNK N   1      30.057  14.430   4.941  0.00  0.00     0.034 C 
HETATM    2  C   UNK N   1      30.055  15.630   3.971  0.00  0.00     0.136 C 
HETATM    3  C   UNK N   1      31.245  16.591   4.082  0.00  0.00     0.067 C 
HETATM    4  C   UNK N   1      31.945  16.422   5.374  0.00  0.00    -0.072 C 
HETATM    5  C   UNK N   1      32.410  15.024   5.781  0.00  0.00    -0.017 C 
HETATM    6  C   UNK N   1      31.469  13.933   5.233  0.00  0.00     0.016 C 
HETATM    7  C   UNK N   1      32.096  17.502   6.158  0.00  0.00    -0.023 C 
HETATM    8  C   UNK N   1      32.766  17.457   7.503  0.00  0.00     0.033 C 
HETATM    9  C   UNK N   1      33.475  16.126   7.768  0.00  0.00    -0.001 C 
HETATM   10  C   UNK N   1      32.551  14.952   7.326  0.00  0.00     0.003 C 
HETATM   11  C   UNK N   1      33.836  16.002   9.246  0.00  0.00    -0.001 C 
HETATM   12  C   UNK N   1      34.459  14.644   9.552  0.00  0.00    -0.036 C 
HETATM   13  C   UNK N   1      33.427  13.549   9.284  0.00  0.00     0.010 C 
HETATM   14  C   UNK N   1      33.075  13.569   7.784  0.00  0.00     0.007 C 
HETATM   15  C   UNK N   1      34.872  16.995   9.784  0.00  0.00     0.006 C 
HETATM   16  C   UNK N   1      35.596  16.231  10.914  0.00  0.00     0.006 C 
HETATM   17  C   UNK N   1      34.861  14.892  11.012  0.00  0.00    -0.002 C 
HETATM   18  C   UNK N   1      35.705  14.386   8.669  0.00  0.00     0.016 C 
HETATM   19  C   UNK N   1      33.752  14.761   5.097  0.00  0.00     0.020 C 
ENDROOT
BRANCH   2  20
HETATM   20  O   UNK N   1      29.881  15.282   2.648  0.00  0.00    -0.316 OA
BRANCH  20  21
HETATM   21  C   UNK N   1      28.975  14.372   2.195  0.00  0.00     0.259 C 
HETATM   22  O   UNK N   1      29.300  13.210   1.983  0.00  0.00    -0.265 OA
BRANCH  21  23
HETATM   23  C   UNK N   1      27.601  14.823   1.825  0.00  0.00     0.111 C 
BRANCH  23  24
HETATM   24  C   UNK N   1      26.662  14.623   3.004  0.00  0.00     0.010 C 
BRANCH  24  25
HETATM   25  C   UNK N   1      25.483  15.595   2.997  0.00  0.00     0.000 C 
BRANCH  25  26
HETATM   26  C   UNK N   1      25.850  17.052   3.251  0.00  0.00     0.000 C 
BRANCH  26  27
HETATM   27  C   UNK N   1      24.785  17.693   4.129  0.00  0.00     0.000 C 
BRANCH  27  28
HETATM   28  C   UNK N   1      24.838  19.206   4.010  0.00  0.00     0.004 C 
BRANCH  28  29
HETATM   29  C   UNK N   1      26.234  19.649   3.599  0.00  0.00     0.027 C 
BRANCH  29  30
HETATM   30  C   UNK N   1      26.837  20.532   4.648  0.00  0.00    -0.030 C 
HETATM   31  C   UNK N   1      27.797  20.110   5.480  0.00  0.00    -0.027 C 
BRANCH  31  32
HETATM   32  C   UNK N   1      28.371  18.728   5.415  0.00  0.00     0.053 C 
BRANCH  32  33
HETATM   33  C   UNK N   1      28.581  18.203   6.800  0.00  0.00    -0.027 C 
HETATM   34  C   UNK N   1      28.127  17.010   7.205  0.00  0.00    -0.030 C 
BRANCH  34  35
HETATM   35  C   UNK N   1      27.358  16.083   6.318  0.00  0.00     0.027 C 
BRANCH  35  36
HETATM   36  C   UNK N   1      26.075  15.645   7.001  0.00  0.00     0.004 C 
BRANCH  36  37
HETATM   37  C   UNK N   1      25.782  14.199   6.637  0.00  0.00    -0.000 C 
BRANCH  37  38
HETATM   38  C   UNK N   1      24.340  14.027   6.190  0.00  0.00    -0.005 C 
HETATM   39  C   UNK N   1      23.507  15.227   6.599  0.00  0.00     0.005 C 
ENDBRANCH  37  38
ENDBRANCH  36  37
ENDBRANCH  35  36
ENDBRANCH  34  35
ENDBRANCH  32  33
ENDBRANCH  31  32
ENDBRANCH  29  30
ENDBRANCH  28  29
ENDBRANCH  27  28
ENDBRANCH  26  27
ENDBRANCH  25  26
ENDBRANCH  24  25
ENDBRANCH  23  24
ENDBRANCH  21  23
ENDBRANCH  20  21
ENDBRANCH   2  20
BRANCH  17  40
HETATM   40  C   UNK N   1      35.642  13.798  11.772  0.00  0.00    -0.014 C 
HETATM   41  C   UNK N   1      35.002  12.421  11.855  0.00  0.00     0.010 C 
BRANCH  40  42
HETATM   42  C   UNK N   1      36.106  14.264  13.142  0.00  0.00     0.005 C 
BRANCH  42  43
HETATM   43  C   UNK N   1      36.786  13.079  13.823  0.00  0.00     0.001 C 
BRANCH  43  44
HETATM   44  C   UNK N   1      36.478  12.942  15.323  0.00  0.00     0.004 C 
BRANCH  44  45
HETATM   45  C   UNK N   1      34.999  13.003  15.697  0.00  0.00    -0.023 C 
HETATM   46  C   UNK N   1      34.344  11.670  15.411  0.00  0.00     0.009 C 
HETATM   47  C   UNK N   1      34.858  13.298  17.180  0.00  0.00     0.009 C 
ENDBRANCH  44  45
ENDBRANCH  43  44
ENDBRANCH  42  43
ENDBRANCH  40  42
ENDBRANCH  17  40
TORSDOF 21
ENDMDL
MODEL 7
REMARK VINA RESULT:      -6.3      8.793     13.792
REMARK  21 active torsions:
REMARK  status: ('A' for Active; 'I' for Inactive)
REMARK    1  A    between atoms: C_2  and  O_18 
REMARK    2  A    between atoms: C_17  and  C_20 
REMARK    3  A    between atoms: C_29  and  O_18 
REMARK    4  A    between atoms: C_20  and  C_22 
REMARK    5  A    between atoms: C_22  and  C_23 
REMARK    6  A    between atoms: C_23  and  C_24 
REMARK    7  A    between atoms: C_24  and  C_25 
REMARK    8  A    between atoms: C_30  and  C_29 
REMARK    9  A    between atoms: C_32  and  C_30 
REMARK   10  A    between atoms: C_33  and  C_32 
REMARK   11  A    between atoms: C_34  and  C_33 
REMARK   12  A    between atoms: C_35  and  C_34 
REMARK   13  A    between atoms: C_36  and  C_35 
REMARK   14  A    between atoms: C_37  and  C_36 
REMARK   15  A    between atoms: C_38  and  C_37 
REMARK   16  A    between atoms: C_40  and  C_39 
REMARK   17  A    between atoms: C_41  and  C_40 
REMARK   18  A    between atoms: C_43  and  C_42 
REMARK   19  A    between atoms: C_44  and  C_43 
REMARK   20  A    between atoms: C_45  and  C_44 
REMARK   21  A    between atoms: C_46  and  C_45 
ROOT
HETATM    1  C   UNK N   1      35.863  15.500  11.577  0.00  0.00     0.034 C 
HETATM    2  C   UNK N   1      36.480  15.085  10.225  0.00  0.00     0.136 C 
HETATM    3  C   UNK N   1      36.764  13.590  10.043  0.00  0.00     0.067 C 
HETATM    4  C   UNK N   1      36.788  12.891  11.347  0.00  0.00    -0.072 C 
HETATM    5  C   UNK N   1      35.594  13.047  12.287  0.00  0.00    -0.017 C 
HETATM    6  C   UNK N   1      34.930  14.430  12.134  0.00  0.00     0.016 C 
HETATM    7  C   UNK N   1      37.887  12.188  11.668  0.00  0.00    -0.023 C 
HETATM    8  C   UNK N   1      38.045  11.456  12.971  0.00  0.00     0.033 C 
HETATM    9  C   UNK N   1      36.743  11.383  13.773  0.00  0.00    -0.001 C 
HETATM   10  C   UNK N   1      36.043  12.775  13.749  0.00  0.00     0.003 C 
HETATM   11  C   UNK N   1      37.026  10.945  15.207  0.00  0.00    -0.001 C 
HETATM   12  C   UNK N   1      35.755  10.955  16.050  0.00  0.00    -0.036 C 
HETATM   13  C   UNK N   1      35.232  12.387  16.149  0.00  0.00     0.010 C 
HETATM   14  C   UNK N   1      34.853  12.866  14.735  0.00  0.00     0.007 C 
HETATM   15  C   UNK N   1      37.562   9.521  15.395  0.00  0.00     0.006 C 
HETATM   16  C   UNK N   1      37.033   9.084  16.778  0.00  0.00     0.006 C 
HETATM   17  C   UNK N   1      36.314  10.317  17.329  0.00  0.00    -0.002 C 
HETATM   18  C   UNK N   1      34.656  10.062  15.420  0.00  0.00     0.016 C 
HETATM   19  C   UNK N   1      34.521  12.050  11.850  0.00  0.00     0.020 C 
ENDROOT
BRANCH   2  20
HETATM   20  O   UNK N   1      35.787  15.548   9.126  0.00  0.00    -0.316 OA
BRANCH  20  21
HETATM   21  C   UNK N   1      34.869  16.554   9.151  0.00  0.00     0.259 C 
HETATM   22  O   UNK N   1      35.178  17.681   9.517  0.00  0.00    -0.265 OA
BRANCH  21  23
HETATM   23  C   UNK N   1      33.438  16.252   8.853  0.00  0.00     0.111 C 
BRANCH  23  24
HETATM   24  C   UNK N   1      33.317  15.673   7.452  0.00  0.00     0.010 C 
BRANCH  24  25
HETATM   25  C   UNK N   1      33.829  16.622   6.370  0.00  0.00     0.000 C 
BRANCH  25  26
HETATM   26  C   UNK N   1      32.744  17.372   5.607  0.00  0.00     0.000 C 
BRANCH  26  27
HETATM   27  C   UNK N   1      31.549  16.452   5.396  0.00  0.00     0.000 C 
BRANCH  27  28
HETATM   28  C   UNK N   1      30.258  17.249   5.391  0.00  0.00     0.004 C 
BRANCH  28  29
HETATM   29  C   UNK N   1      29.402  16.866   6.589  0.00  0.00     0.027 C 
BRANCH  29  30
HETATM   30  C   UNK N   1      29.683  17.770   7.750  0.00  0.00    -0.030 C 
HETATM   31  C   UNK N   1      28.877  18.784   8.086  0.00  0.00    -0.027 C 
BRANCH  31  32
HETATM   32  C   UNK N   1      27.608  19.084   7.347  0.00  0.00     0.053 C 
BRANCH  32  33
HETATM   33  C   UNK N   1      27.653  20.481   6.813  0.00  0.00    -0.027 C 
HETATM   34  C   UNK N   1      27.653  20.762   5.504  0.00  0.00    -0.030 C 
BRANCH  34  35
HETATM   35  C   UNK N   1      27.616  19.710   4.441  0.00  0.00     0.027 C 
BRANCH  35  36
HETATM   36  C   UNK N   1      26.396  19.899   3.557  0.00  0.00     0.004 C 
BRANCH  36  37
HETATM   37  C   UNK N   1      25.638  18.585   3.461  0.00  0.00    -0.000 C 
BRANCH  37  38
HETATM   38  C   UNK N   1      26.522  17.412   3.850  0.00  0.00    -0.005 C 
HETATM   39  C   UNK N   1      25.987  16.731   5.096  0.00  0.00     0.005 C 
ENDBRANCH  37  38
ENDBRANCH  36  37
ENDBRANCH  35  36
ENDBRANCH  34  35
ENDBRANCH  32  33
ENDBRANCH  31  32
ENDBRANCH  29  30
ENDBRANCH  28  29
ENDBRANCH  27  28
ENDBRANCH  26  27
ENDBRANCH  25  26
ENDBRANCH  24  25
ENDBRANCH  23  24
ENDBRANCH  21  23
ENDBRANCH  20  21
ENDBRANCH   2  20
BRANCH  17  40
HETATM   40  C   UNK N   1      35.354  10.018  18.501  0.00  0.00    -0.014 C 
HETATM   41  C   UNK N   1      35.478  10.893  19.739  0.00  0.00     0.010 C 
BRANCH  40  42
HETATM   42  C   UNK N   1      35.340   8.546  18.876  0.00  0.00     0.005 C 
BRANCH  42  43
HETATM   43  C   UNK N   1      34.361   8.377  20.035  0.00  0.00     0.001 C 
BRANCH  43  44
HETATM   44  C   UNK N   1      32.973   7.857  19.628  0.00  0.00     0.004 C 
BRANCH  44  45
HETATM   45  C   UNK N   1      31.871   8.042  20.669  0.00  0.00    -0.023 C 
HETATM   46  C   UNK N   1      31.947   9.437  21.250  0.00  0.00     0.009 C 
HETATM   47  C   UNK N   1      30.513   7.869  20.014  0.00  0.00     0.009 C 
ENDBRANCH  44  45
ENDBRANCH  43  44
ENDBRANCH  42  43
ENDBRANCH  40  42
ENDBRANCH  17  40
TORSDOF 21
ENDMDL
MODEL 8
REMARK VINA RESULT:      -6.3      1.043      3.085
REMARK  21 active torsions:
REMARK  status: ('A' for Active; 'I' for Inactive)
REMARK    1  A    between atoms: C_2  and  O_18 
REMARK    2  A    between atoms: C_17  and  C_20 
REMARK    3  A    between atoms: C_29  and  O_18 
REMARK    4  A    between atoms: C_20  and  C_22 
REMARK    5  A    between atoms: C_22  and  C_23 
REMARK    6  A    between atoms: C_23  and  C_24 
REMARK    7  A    between atoms: C_24  and  C_25 
REMARK    8  A    between atoms: C_30  and  C_29 
REMARK    9  A    between atoms: C_32  and  C_30 
REMARK   10  A    between atoms: C_33  and  C_32 
REMARK   11  A    between atoms: C_34  and  C_33 
REMARK   12  A    between atoms: C_35  and  C_34 
REMARK   13  A    between atoms: C_36  and  C_35 
REMARK   14  A    between atoms: C_37  and  C_36 
REMARK   15  A    between atoms: C_38  and  C_37 
REMARK   16  A    between atoms: C_40  and  C_39 
REMARK   17  A    between atoms: C_41  and  C_40 
REMARK   18  A    between atoms: C_43  and  C_42 
REMARK   19  A    between atoms: C_44  and  C_43 
REMARK   20  A    between atoms: C_45  and  C_44 
REMARK   21  A    between atoms: C_46  and  C_45 
ROOT
HETATM    1  C   UNK N   1      22.804  18.784   3.730  0.00  0.00     0.034 C 
HETATM    2  C   UNK N   1      21.706  17.747   3.415  0.00  0.00     0.136 C 
HETATM    3  C   UNK N   1      22.114  16.274   3.531  0.00  0.00     0.067 C 
HETATM    4  C   UNK N   1      23.586  16.128   3.509  0.00  0.00    -0.072 C 
HETATM    5  C   UNK N   1      24.421  16.942   4.497  0.00  0.00    -0.017 C 
HETATM    6  C   UNK N   1      23.757  18.297   4.816  0.00  0.00     0.016 C 
HETATM    7  C   UNK N   1      24.128  15.319   2.584  0.00  0.00    -0.023 C 
HETATM    8  C   UNK N   1      25.609  15.105   2.442  0.00  0.00     0.033 C 
HETATM    9  C   UNK N   1      26.408  15.695   3.607  0.00  0.00    -0.001 C 
HETATM   10  C   UNK N   1      25.862  17.115   3.942  0.00  0.00     0.003 C 
HETATM   11  C   UNK N   1      27.892  15.756   3.256  0.00  0.00    -0.001 C 
HETATM   12  C   UNK N   1      28.697  16.426   4.365  0.00  0.00    -0.036 C 
HETATM   13  C   UNK N   1      28.243  17.879   4.505  0.00  0.00     0.010 C 
HETATM   14  C   UNK N   1      26.764  17.888   4.935  0.00  0.00     0.007 C 
HETATM   15  C   UNK N   1      28.607  14.414   3.064  0.00  0.00     0.006 C 
HETATM   16  C   UNK N   1      30.064  14.681   3.500  0.00  0.00     0.006 C 
HETATM   17  C   UNK N   1      30.108  16.178   3.818  0.00  0.00    -0.002 C 
HETATM   18  C   UNK N   1      28.492  15.705   5.721  0.00  0.00     0.016 C 
HETATM   19  C   UNK N   1      24.435  16.191   5.828  0.00  0.00     0.020 C 
ENDROOT
BRANCH   2  20
HETATM   20  O   UNK N   1      20.531  17.944   4.110  0.00  0.00    -0.316 OA
BRANCH  20  21
HETATM   21  C   UNK N   1      20.063  17.129   5.096  0.00  0.00     0.259 C 
HETATM   22  O   UNK N   1      19.131  16.361   4.890  0.00  0.00    -0.265 OA
BRANCH  21  23
HETATM   23  C   UNK N   1      20.604  17.263   6.480  0.00  0.00     0.111 C 
BRANCH  23  24
HETATM   24  C   UNK N   1      19.716  16.504   7.453  0.00  0.00     0.010 C 
BRANCH  24  25
HETATM   25  C   UNK N   1      20.418  15.303   8.086  0.00  0.00     0.000 C 
BRANCH  25  26
HETATM   26  C   UNK N   1      21.546  14.706   7.254  0.00  0.00     0.000 C 
BRANCH  26  27
HETATM   27  C   UNK N   1      20.974  13.659   6.308  0.00  0.00     0.000 C 
BRANCH  27  28
HETATM   28  C   UNK N   1      21.092  12.273   6.917  0.00  0.00     0.004 C 
BRANCH  28  29
HETATM   29  C   UNK N   1      21.874  11.358   5.986  0.00  0.00     0.027 C 
BRANCH  29  30
HETATM   30  C   UNK N   1      22.481  12.142   4.863  0.00  0.00    -0.030 C 
HETATM   31  C   UNK N   1      23.798  12.365   4.769  0.00  0.00    -0.027 C 
BRANCH  31  32
HETATM   32  C   UNK N   1      24.779  11.824   5.763  0.00  0.00     0.053 C 
BRANCH  32  33
HETATM   33  C   UNK N   1      25.652  12.931   6.264  0.00  0.00    -0.027 C 
HETATM   34  C   UNK N   1      25.437  13.560   7.428  0.00  0.00    -0.030 C 
BRANCH  34  35
HETATM   35  C   UNK N   1      24.301  13.225   8.341  0.00  0.00     0.027 C 
BRANCH  35  36
HETATM   36  C   UNK N   1      24.821  12.592   9.619  0.00  0.00     0.004 C 
BRANCH  36  37
HETATM   37  C   UNK N   1      23.649  12.068  10.432  0.00  0.00    -0.000 C 
BRANCH  37  38
HETATM   38  C   UNK N   1      22.473  13.027  10.380  0.00  0.00    -0.005 C 
HETATM   39  C   UNK N   1      21.205  12.343  10.855  0.00  0.00     0.005 C 
ENDBRANCH  37  38
ENDBRANCH  36  37
ENDBRANCH  35  36
ENDBRANCH  34  35
ENDBRANCH  32  33
ENDBRANCH  31  32
ENDBRANCH  29  30
ENDBRANCH  28  29
ENDBRANCH  27  28
ENDBRANCH  26  27
ENDBRANCH  25  26
ENDBRANCH  24  25
ENDBRANCH  23  24
ENDBRANCH  21  23
ENDBRANCH  20  21
ENDBRANCH   2  20
BRANCH  17  40
HETATM   40  C   UNK N   1      31.328  16.608   4.661  0.00  0.00    -0.014 C 
HETATM   41  C   UNK N   1      32.235  17.678   4.072  0.00  0.00     0.010 C 
BRANCH  40  42
HETATM   42  C   UNK N   1      32.138  15.422   5.156  0.00  0.00     0.005 C 
BRANCH  42  43
HETATM   43  C   UNK N   1      32.795  15.832   6.471  0.00  0.00     0.001 C 
BRANCH  43  44
HETATM   44  C   UNK N   1      31.868  15.765   7.696  0.00  0.00     0.004 C 
BRANCH  44  45
HETATM   45  C   UNK N   1      31.699  17.074   8.464  0.00  0.00    -0.023 C 
HETATM   46  C   UNK N   1      32.818  18.026   8.103  0.00  0.00     0.009 C 
HETATM   47  C   UNK N   1      30.379  17.723   8.085  0.00  0.00     0.009 C 
ENDBRANCH  44  45
ENDBRANCH  43  44
ENDBRANCH  42  43
ENDBRANCH  40  42
ENDBRANCH  17  40
TORSDOF 21
ENDMDL
MODEL 9
REMARK VINA RESULT:      -6.2      8.593     13.726
REMARK  21 active torsions:
REMARK  status: ('A' for Active; 'I' for Inactive)
REMARK    1  A    between atoms: C_2  and  O_18 
REMARK    2  A    between atoms: C_17  and  C_20 
REMARK    3  A    between atoms: C_29  and  O_18 
REMARK    4  A    between atoms: C_20  and  C_22 
REMARK    5  A    between atoms: C_22  and  C_23 
REMARK    6  A    between atoms: C_23  and  C_24 
REMARK    7  A    between atoms: C_24  and  C_25 
REMARK    8  A    between atoms: C_30  and  C_29 
REMARK    9  A    between atoms: C_32  and  C_30 
REMARK   10  A    between atoms: C_33  and  C_32 
REMARK   11  A    between atoms: C_34  and  C_33 
REMARK   12  A    between atoms: C_35  and  C_34 
REMARK   13  A    between atoms: C_36  and  C_35 
REMARK   14  A    between atoms: C_37  and  C_36 
REMARK   15  A    between atoms: C_38  and  C_37 
REMARK   16  A    between atoms: C_40  and  C_39 
REMARK   17  A    between atoms: C_41  and  C_40 
REMARK   18  A    between atoms: C_43  and  C_42 
REMARK   19  A    between atoms: C_44  and  C_43 
REMARK   20  A    between atoms: C_45  and  C_44 
REMARK   21  A    between atoms: C_46  and  C_45 
ROOT
HETATM    1  C   UNK N   1      35.094  12.947  11.541  0.00  0.00     0.034 C 
HETATM    2  C   UNK N   1      36.628  12.931  11.380  0.00  0.00     0.136 C 
HETATM    3  C   UNK N   1      37.215  13.946  10.393  0.00  0.00     0.067 C 
HETATM    4  C   UNK N   1      36.175  14.454   9.473  0.00  0.00    -0.072 C 
HETATM    5  C   UNK N   1      34.892  15.039  10.064  0.00  0.00    -0.017 C 
HETATM    6  C   UNK N   1      34.518  14.352  11.393  0.00  0.00     0.016 C 
HETATM    7  C   UNK N   1      36.384  14.334   8.151  0.00  0.00    -0.023 C 
HETATM    8  C   UNK N   1      35.394  14.788   7.115  0.00  0.00     0.033 C 
HETATM    9  C   UNK N   1      34.255  15.622   7.708  0.00  0.00    -0.001 C 
HETATM   10  C   UNK N   1      33.747  14.948   9.018  0.00  0.00     0.003 C 
HETATM   11  C   UNK N   1      33.120  15.764   6.699  0.00  0.00    -0.001 C 
HETATM   12  C   UNK N   1      31.934  16.513   7.300  0.00  0.00    -0.036 C 
HETATM   13  C   UNK N   1      31.361  15.695   8.457  0.00  0.00     0.010 C 
HETATM   14  C   UNK N   1      32.439  15.579   9.552  0.00  0.00     0.007 C 
HETATM   15  C   UNK N   1      33.430  16.560   5.426  0.00  0.00     0.006 C 
HETATM   16  C   UNK N   1      32.082  17.198   5.026  0.00  0.00     0.006 C 
HETATM   17  C   UNK N   1      31.073  16.648   6.037  0.00  0.00    -0.002 C 
HETATM   18  C   UNK N   1      32.360  17.904   7.832  0.00  0.00     0.016 C 
HETATM   19  C   UNK N   1      35.172  16.493  10.443  0.00  0.00     0.020 C 
ENDROOT
BRANCH   2  20
HETATM   20  O   UNK N   1      37.319  13.012  12.571  0.00  0.00    -0.316 OA
BRANCH  20  21
HETATM   21  C   UNK N   1      36.767  13.347  13.770  0.00  0.00     0.259 C 
HETATM   22  O   UNK N   1      36.489  14.511  14.034  0.00  0.00    -0.265 OA
BRANCH  21  23
HETATM   23  C   UNK N   1      36.618  12.306  14.829  0.00  0.00     0.111 C 
BRANCH  23  24
HETATM   24  C   UNK N   1      35.392  12.607  15.676  0.00  0.00     0.010 C 
BRANCH  24  25
HETATM   25  C   UNK N   1      34.095  12.105  15.044  0.00  0.00     0.000 C 
BRANCH  25  26
HETATM   26  C   UNK N   1      33.996  10.592  14.895  0.00  0.00     0.000 C 
BRANCH  26  27
HETATM   27  C   UNK N   1      33.968  10.233  13.416  0.00  0.00     0.000 C 
BRANCH  27  28
HETATM   28  C   UNK N   1      35.177   9.390  13.051  0.00  0.00     0.004 C 
BRANCH  28  29
HETATM   29  C   UNK N   1      35.620   8.565  14.250  0.00  0.00     0.027 C 
BRANCH  29  30
HETATM   30  C   UNK N   1      37.080   8.768  14.519  0.00  0.00    -0.030 C 
HETATM   31  C   UNK N   1      37.589   8.787  15.757  0.00  0.00    -0.027 C 
BRANCH  31  32
HETATM   32  C   UNK N   1      36.747   8.576  16.978  0.00  0.00     0.053 C 
BRANCH  32  33
HETATM   33  C   UNK N   1      36.640   9.857  17.744  0.00  0.00    -0.027 C 
HETATM   34  C   UNK N   1      35.514  10.252  18.352  0.00  0.00    -0.030 C 
BRANCH  34  35
HETATM   35  C   UNK N   1      34.246   9.458  18.323  0.00  0.00     0.027 C 
BRANCH  35  36
HETATM   36  C   UNK N   1      34.019   8.780  19.662  0.00  0.00     0.004 C 
BRANCH  36  37
HETATM   37  C   UNK N   1      32.998   7.667  19.493  0.00  0.00    -0.000 C 
BRANCH  37  38
HETATM   38  C   UNK N   1      31.679   8.029  20.154  0.00  0.00    -0.005 C 
HETATM   39  C   UNK N   1      31.872   9.157  21.150  0.00  0.00     0.005 C 
ENDBRANCH  37  38
ENDBRANCH  36  37
ENDBRANCH  35  36
ENDBRANCH  34  35
ENDBRANCH  32  33
ENDBRANCH  31  32
ENDBRANCH  29  30
ENDBRANCH  28  29
ENDBRANCH  27  28
ENDBRANCH  26  27
ENDBRANCH  25  26
ENDBRANCH  24  25
ENDBRANCH  23  24
ENDBRANCH  21  23
ENDBRANCH  20  21
ENDBRANCH   2  20
BRANCH  17  40
HETATM   40  C   UNK N   1      29.753  17.444   6.109  0.00  0.00    -0.014 C 
HETATM   41  C   UNK N   1      28.524  16.703   6.613  0.00  0.00     0.010 C 
BRANCH  40  42
HETATM   42  C   UNK N   1      29.450  18.182   4.815  0.00  0.00     0.005 C 
BRANCH  42  43
HETATM   43  C   UNK N   1      27.997  18.644   4.881  0.00  0.00     0.001 C 
BRANCH  43  44
HETATM   44  C   UNK N   1      27.612  19.691   3.823  0.00  0.00     0.004 C 
BRANCH  44  45
HETATM   45  C   UNK N   1      26.431  20.588   4.187  0.00  0.00    -0.023 C 
HETATM   46  C   UNK N   1      25.134  19.887   3.848  0.00  0.00     0.009 C 
HETATM   47  C   UNK N   1      26.445  20.874   5.678  0.00  0.00     0.009 C 
ENDBRANCH  44  45
ENDBRANCH  43  44
ENDBRANCH  42  43
ENDBRANCH  40  42
ENDBRANCH  17  40
TORSDOF 21
ENDMDL
