MODEL 1
REMARK VINA RESULT:      -5.1      0.000      0.000
REMARK  0 active torsions:
REMARK  status: ('A' for Active; 'I' for Inactive)
ROOT
HETATM    1  C   UNK N   1      20.305  18.329   3.070  0.00  0.00     0.146 A 
HETATM    2  C   UNK N   1      20.166  17.930   1.792  0.00  0.00     0.143 A 
HETATM    3  C   UNK N   1      20.689  19.624   3.367  0.00  0.00     0.280 A 
HETATM    4  N   UNK N   1      20.021  17.309   3.891  0.00  0.00    -0.345 N 
HETATM    5  N   UNK N   1      20.388  18.752   0.741  0.00  0.00    -0.292 N 
HETATM    6  N   UNK N   1      19.790  16.650   1.744  0.00  0.00    -0.336 N 
ATOM      7  HN  UNK N   1      19.609  16.078   0.918  1.00  0.00     0.168 HD
HETATM    8  N   UNK N   1      20.921  20.482   2.314  0.00  0.00    -0.273 N 
HETATM    9  O   UNK N   1      20.819  20.000   4.518  0.00  0.00    -0.265 OA
HETATM   10  C   UNK N   1      19.707  16.285   3.052  0.00  0.00     0.182 A 
HETATM   11  C   UNK N   1      20.772  20.050   1.006  0.00  0.00     0.328 A 
HETATM   12  O   UNK N   1      20.980  20.817   0.085  0.00  0.00    -0.247 OA
HETATM   13  H   UNK N   1      20.036  17.303   4.876  0.00  0.00     0.167 HD
HETATM   14  H   UNK N   1      20.278  18.434  -0.184  0.00  0.00     0.172 HD
HETATM   15  H   UNK N   1      21.196  21.411   2.493  0.00  0.00     0.173 HD
ENDROOT
TORSDOF 0
ENDMDL
MODEL 2
REMARK VINA RESULT:      -5.1     14.698     15.274
REMARK  0 active torsions:
REMARK  status: ('A' for Active; 'I' for Inactive)
ROOT
HETATM    1  C   UNK N   1      34.583  17.242   9.344  0.00  0.00     0.146 A 
HETATM    2  C   UNK N   1      33.757  16.181   9.264  0.00  0.00     0.143 A 
HETATM    3  C   UNK N   1      34.559  18.227   8.374  0.00  0.00     0.280 A 
HETATM    4  N   UNK N   1      35.341  17.138  10.443  0.00  0.00    -0.345 N 
HETATM    5  N   UNK N   1      32.873  16.016   8.254  0.00  0.00    -0.292 N 
HETATM    6  N   UNK N   1      33.953  15.363  10.301  0.00  0.00    -0.336 N 
ATOM      7  HN  UNK N   1      33.475  14.485  10.507  1.00  0.00     0.168 HD
HETATM    8  N   UNK N   1      33.667  18.084   7.334  0.00  0.00    -0.273 N 
HETATM    9  O   UNK N   1      35.300  19.193   8.432  0.00  0.00    -0.265 OA
HETATM   10  C   UNK N   1      34.935  15.973  11.017  0.00  0.00     0.182 A 
HETATM   11  C   UNK N   1      32.827  16.984   7.272  0.00  0.00     0.328 A 
HETATM   12  O   UNK N   1      32.043  16.868   6.349  0.00  0.00    -0.247 OA
HETATM   13  H   UNK N   1      36.033  17.762  10.762  0.00  0.00     0.167 HD
HETATM   14  H   UNK N   1      32.281  15.231   8.221  0.00  0.00     0.172 HD
HETATM   15  H   UNK N   1      33.626  18.769   6.627  0.00  0.00     0.173 HD
ENDROOT
TORSDOF 0
ENDMDL
MODEL 3
REMARK VINA RESULT:      -5.1     10.163     11.310
REMARK  0 active torsions:
REMARK  status: ('A' for Active; 'I' for Inactive)
ROOT
HETATM    1  C   UNK N   1      23.795  12.518  11.019  0.00  0.00     0.146 A 
HETATM    2  C   UNK N   1      23.056  12.890   9.957  0.00  0.00     0.143 A 
HETATM    3  C   UNK N   1      23.191  12.022  12.159  0.00  0.00     0.280 A 
HETATM    4  N   UNK N   1      25.094  12.714  10.752  0.00  0.00    -0.345 N 
HETATM    5  N   UNK N   1      21.707  12.805   9.939  0.00  0.00    -0.292 N 
HETATM    6  N   UNK N   1      23.845  13.336   8.976  0.00  0.00    -0.336 N 
ATOM      7  HN  UNK N   1      23.570  13.683   8.057  1.00  0.00     0.168 HD
HETATM    8  N   UNK N   1      21.816  11.924  12.167  0.00  0.00    -0.273 N 
HETATM    9  O   UNK N   1      23.846  11.681  13.128  0.00  0.00    -0.265 OA
HETATM   10  C   UNK N   1      25.100  13.218   9.488  0.00  0.00     0.182 A 
HETATM   11  C   UNK N   1      21.076  12.313  11.062  0.00  0.00     0.328 A 
HETATM   12  O   UNK N   1      19.863  12.222  11.081  0.00  0.00    -0.247 OA
HETATM   13  H   UNK N   1      25.866  12.534  11.337  0.00  0.00     0.167 HD
HETATM   14  H   UNK N   1      21.191  13.084   9.148  0.00  0.00     0.172 HD
HETATM   15  H   UNK N   1      21.356  11.574  12.964  0.00  0.00     0.173 HD
ENDROOT
TORSDOF 0
ENDMDL
MODEL 4
REMARK VINA RESULT:      -5.0      9.233     11.168
REMARK  0 active torsions:
REMARK  status: ('A' for Active; 'I' for Inactive)
ROOT
HETATM    1  C   UNK N   1      22.724  12.904   9.738  0.00  0.00     0.146 A 
HETATM    2  C   UNK N   1      23.932  12.713  10.299  0.00  0.00     0.143 A 
HETATM    3  C   UNK N   1      21.567  12.622  10.441  0.00  0.00     0.280 A 
HETATM    4  N   UNK N   1      22.878  13.373   8.492  0.00  0.00    -0.345 N 
HETATM    5  N   UNK N   1      24.088  12.244  11.558  0.00  0.00    -0.292 N 
HETATM    6  N   UNK N   1      24.900  13.049   9.443  0.00  0.00    -0.336 N 
ATOM      7  HN  UNK N   1      25.910  13.010   9.588  1.00  0.00     0.168 HD
HETATM    8  N   UNK N   1      21.697  12.143  11.727  0.00  0.00    -0.273 N 
HETATM    9  O   UNK N   1      20.467  12.790   9.947  0.00  0.00    -0.265 OA
HETATM   10  C   UNK N   1      24.227  13.454   8.332  0.00  0.00     0.182 A 
HETATM   11  C   UNK N   1      22.952  11.954  12.285  0.00  0.00     0.328 A 
HETATM   12  O   UNK N   1      23.055  11.531  13.420  0.00  0.00    -0.247 OA
HETATM   13  H   UNK N   1      22.175  13.605   7.842  0.00  0.00     0.167 HD
HETATM   14  H   UNK N   1      24.984  12.114  11.944  0.00  0.00     0.172 HD
HETATM   15  H   UNK N   1      20.893  11.933  12.253  0.00  0.00     0.173 HD
ENDROOT
TORSDOF 0
ENDMDL
MODEL 5
REMARK VINA RESULT:      -5.0     16.064     16.749
REMARK  0 active torsions:
REMARK  status: ('A' for Active; 'I' for Inactive)
ROOT
HETATM    1  C   UNK N   1      35.166  15.747  11.058  0.00  0.00     0.146 A 
HETATM    2  C   UNK N   1      34.286  14.729  11.113  0.00  0.00     0.143 A 
HETATM    3  C   UNK N   1      34.958  16.814  10.204  0.00  0.00     0.280 A 
HETATM    4  N   UNK N   1      36.169  15.518  11.917  0.00  0.00    -0.345 N 
HETATM    5  N   UNK N   1      33.169  14.687  10.353  0.00  0.00    -0.292 N 
HETATM    6  N   UNK N   1      34.688  13.816  12.001  0.00  0.00    -0.336 N 
ATOM      7  HN  UNK N   1      34.227  12.942  12.256  1.00  0.00     0.168 HD
HETATM    8  N   UNK N   1      33.826  16.796   9.418  0.00  0.00    -0.273 N 
HETATM    9  O   UNK N   1      35.744  17.742  10.143  0.00  0.00    -0.265 OA
HETATM   10  C   UNK N   1      35.853  14.324  12.486  0.00  0.00     0.182 A 
HETATM   11  C   UNK N   1      32.934  15.738   9.491  0.00  0.00     0.328 A 
HETATM   12  O   UNK N   1      31.938  15.733   8.792  0.00  0.00    -0.247 OA
HETATM   13  H   UNK N   1      36.955  16.086  12.094  0.00  0.00     0.167 HD
HETATM   14  H   UNK N   1      32.542  13.930  10.413  0.00  0.00     0.172 HD
HETATM   15  H   UNK N   1      33.649  17.541   8.799  0.00  0.00     0.173 HD
ENDROOT
TORSDOF 0
ENDMDL
MODEL 6
REMARK VINA RESULT:      -4.9      8.727     10.351
REMARK  0 active torsions:
REMARK  status: ('A' for Active; 'I' for Inactive)
ROOT
HETATM    1  C   UNK N   1      23.353  12.631  10.557  0.00  0.00     0.146 A 
HETATM    2  C   UNK N   1      22.065  12.401  10.876  0.00  0.00     0.143 A 
HETATM    3  C   UNK N   1      23.689  13.171   9.329  0.00  0.00     0.280 A 
HETATM    4  N   UNK N   1      24.140  12.263  11.577  0.00  0.00    -0.345 N 
HETATM    5  N   UNK N   1      21.043  12.676  10.035  0.00  0.00    -0.292 N 
HETATM    6  N   UNK N   1      21.977  11.880  12.103  0.00  0.00    -0.336 N 
ATOM      7  HN  UNK N   1      21.135  11.604  12.610  1.00  0.00     0.168 HD
HETATM    8  N   UNK N   1      22.666  13.461   8.453  0.00  0.00    -0.273 N 
HETATM    9  O   UNK N   1      24.849  13.385   9.026  0.00  0.00    -0.265 OA
HETATM   10  C   UNK N   1      23.270  11.803  12.518  0.00  0.00     0.182 A 
HETATM   11  C   UNK N   1      21.348  13.215   8.803  0.00  0.00     0.328 A 
HETATM   12  O   UNK N   1      20.453  13.476   8.021  0.00  0.00    -0.247 OA
HETATM   13  H   UNK N   1      25.122  12.313  11.633  0.00  0.00     0.167 HD
HETATM   14  H   UNK N   1      20.110  12.497  10.294  0.00  0.00     0.172 HD
HETATM   15  H   UNK N   1      22.873  13.846   7.571  0.00  0.00     0.173 HD
ENDROOT
TORSDOF 0
ENDMDL
MODEL 7
REMARK VINA RESULT:      -4.9      0.888      2.790
REMARK  0 active torsions:
REMARK  status: ('A' for Active; 'I' for Inactive)
ROOT
HETATM    1  C   UNK N   1      20.331  18.333   1.181  0.00  0.00     0.146 A 
HETATM    2  C   UNK N   1      20.126  17.602   2.293  0.00  0.00     0.143 A 
HETATM    3  C   UNK N   1      20.762  19.644   1.268  0.00  0.00     0.280 A 
HETATM    4  N   UNK N   1      20.056  17.590   0.100  0.00  0.00    -0.345 N 
HETATM    5  N   UNK N   1      20.324  18.093   3.537  0.00  0.00    -0.292 N 
HETATM    6  N   UNK N   1      19.714  16.373   1.971  0.00  0.00    -0.336 N 
ATOM      7  HN  UNK N   1      19.482  15.603   2.599  1.00  0.00     0.168 HD
HETATM    8  N   UNK N   1      20.972  20.169   2.525  0.00  0.00    -0.273 N 
HETATM    9  O   UNK N   1      20.952  20.317   0.272  0.00  0.00    -0.265 OA
HETATM   10  C   UNK N   1      19.678  16.387   0.611  0.00  0.00     0.182 A 
HETATM   11  C   UNK N   1      20.754  19.398   3.656  0.00  0.00     0.328 A 
HETATM   12  O   UNK N   1      20.943  19.872   4.760  0.00  0.00    -0.247 OA
HETATM   13  H   UNK N   1      20.114  17.855  -0.847  0.00  0.00     0.167 HD
HETATM   14  H   UNK N   1      20.166  17.536   4.333  0.00  0.00     0.172 HD
HETATM   15  H   UNK N   1      21.279  21.099   2.620  0.00  0.00     0.173 HD
ENDROOT
TORSDOF 0
ENDMDL
MODEL 8
REMARK VINA RESULT:      -4.9      8.748     10.406
REMARK  0 active torsions:
REMARK  status: ('A' for Active; 'I' for Inactive)
ROOT
HETATM    1  C   UNK N   1      21.965  12.375  11.114  0.00  0.00     0.146 A 
HETATM    2  C   UNK N   1      22.608  13.156  10.226  0.00  0.00     0.143 A 
HETATM    3  C   UNK N   1      20.588  12.424  11.229  0.00  0.00     0.280 A 
HETATM    4  N   UNK N   1      22.856  11.628  11.781  0.00  0.00    -0.345 N 
HETATM    5  N   UNK N   1      21.963  14.019   9.409  0.00  0.00    -0.292 N 
HETATM    6  N   UNK N   1      23.925  12.943  10.288  0.00  0.00    -0.336 N 
ATOM      7  HN  UNK N   1      24.660  13.387   9.738  1.00  0.00     0.168 HD
HETATM    8  N   UNK N   1      19.905  13.295  10.408  0.00  0.00    -0.273 N 
HETATM    9  O   UNK N   1      19.992  11.724  12.028  0.00  0.00    -0.265 OA
HETATM   10  C   UNK N   1      24.056  11.995  11.256  0.00  0.00     0.182 A 
HETATM   11  C   UNK N   1      20.588  14.090   9.501  0.00  0.00     0.328 A 
HETATM   12  O   UNK N   1      19.975  14.855   8.781  0.00  0.00    -0.247 OA
HETATM   13  H   UNK N   1      22.680  10.966  12.489  0.00  0.00     0.167 HD
HETATM   14  H   UNK N   1      22.458  14.578   8.768  0.00  0.00     0.172 HD
HETATM   15  H   UNK N   1      18.924  13.353  10.466  0.00  0.00     0.173 HD
ENDROOT
TORSDOF 0
ENDMDL
MODEL 9
REMARK VINA RESULT:      -4.8     13.369     14.074
REMARK  0 active torsions:
REMARK  status: ('A' for Active; 'I' for Inactive)
ROOT
HETATM    1  C   UNK N   1      32.414  17.278   7.108  0.00  0.00     0.146 A 
HETATM    2  C   UNK N   1      32.143  17.000   8.397  0.00  0.00     0.143 A 
HETATM    3  C   UNK N   1      33.695  17.621   6.717  0.00  0.00     0.280 A 
HETATM    4  N   UNK N   1      31.296  17.160   6.379  0.00  0.00    -0.345 N 
HETATM    5  N   UNK N   1      33.083  17.037   9.368  0.00  0.00    -0.292 N 
HETATM    6  N   UNK N   1      30.850  16.695   8.543  0.00  0.00    -0.336 N 
ATOM      7  HN  UNK N   1      30.357  16.443   9.400  1.00  0.00     0.168 HD
HETATM    8  N   UNK N   1      34.673  17.668   7.687  0.00  0.00    -0.273 N 
HETATM    9  O   UNK N   1      33.957  17.876   5.555  0.00  0.00    -0.265 OA
HETATM   10  C   UNK N   1      30.346  16.801   7.284  0.00  0.00     0.182 A 
HETATM   11  C   UNK N   1      34.370  17.377   9.007  0.00  0.00     0.328 A 
HETATM   12  O   UNK N   1      35.242  17.421   9.855  0.00  0.00    -0.247 OA
HETATM   13  H   UNK N   1      31.189  17.302   5.410  0.00  0.00     0.167 HD
HETATM   14  H   UNK N   1      32.856  16.829  10.303  0.00  0.00     0.172 HD
HETATM   15  H   UNK N   1      35.595  17.909   7.439  0.00  0.00     0.173 HD
ENDROOT
TORSDOF 0
ENDMDL
