MODEL 1
REMARK VINA RESULT:      -3.5      0.000      0.000
REMARK  1 active torsions:
REMARK  status: ('A' for Active; 'I' for Inactive)
REMARK    1  A    between atoms: C_2  and  O_4 
ROOT
HETATM    1  C   UNK N   1      32.970  17.967   8.387  0.00  0.00     0.125 C 
HETATM    2  C   UNK N   1      34.293  18.296   7.788  0.00  0.00     0.135 C 
HETATM    3  O   UNK N   1      34.580  17.880   6.679  0.00  0.00    -0.650 OA
ENDROOT
BRANCH   2   4
HETATM    4  O   UNK N   1      35.169  19.054   8.476  0.00  0.00    -0.777 OA
HETATM    5 Hg   UNK N   1      35.841  18.510  10.240  0.00  0.00     0.167 Hg
ENDBRANCH   2   4
TORSDOF 1
ENDMDL
MODEL 2
REMARK VINA RESULT:      -3.3     12.828     13.151
REMARK  1 active torsions:
REMARK  status: ('A' for Active; 'I' for Inactive)
REMARK    1  A    between atoms: C_2  and  O_4 
ROOT
HETATM    1  C   UNK N   1      22.443  12.031  11.386  0.00  0.00     0.125 C 
HETATM    2  C   UNK N   1      23.694  12.031  12.195  0.00  0.00     0.135 C 
HETATM    3  O   UNK N   1      24.777  11.939  11.643  0.00  0.00    -0.650 OA
ENDROOT
BRANCH   2   4
HETATM    4  O   UNK N   1      23.623  12.134  13.536  0.00  0.00    -0.777 OA
HETATM    5 Hg   UNK N   1      24.215  13.751  14.480  0.00  0.00     0.167 Hg
ENDBRANCH   2   4
TORSDOF 1
ENDMDL
MODEL 3
REMARK VINA RESULT:      -3.3     15.047     15.399
REMARK  1 active torsions:
REMARK  status: ('A' for Active; 'I' for Inactive)
REMARK    1  A    between atoms: C_2  and  O_4 
ROOT
HETATM    1  C   UNK N   1      20.468  19.745   2.932  0.00  0.00     0.125 C 
HETATM    2  C   UNK N   1      21.456  20.583   2.197  0.00  0.00     0.135 C 
HETATM    3  O   UNK N   1      22.215  21.311   2.813  0.00  0.00    -0.650 OA
ENDROOT
BRANCH   2   4
HETATM    4  O   UNK N   1      21.505  20.533   0.852  0.00  0.00    -0.777 OA
HETATM    5 Hg   UNK N   1      19.970  21.050  -0.258  0.00  0.00     0.167 Hg
ENDBRANCH   2   4
TORSDOF 1
ENDMDL
MODEL 4
REMARK VINA RESULT:      -3.2      2.563      2.923
REMARK  1 active torsions:
REMARK  status: ('A' for Active; 'I' for Inactive)
REMARK    1  A    between atoms: C_2  and  O_4 
ROOT
HETATM    1  C   UNK N   1      32.929  17.960   8.420  0.00  0.00     0.125 C 
HETATM    2  C   UNK N   1      34.240  18.308   7.805  0.00  0.00     0.135 C 
HETATM    3  O   UNK N   1      35.000  19.069   8.378  0.00  0.00    -0.650 OA
ENDROOT
BRANCH   2   4
HETATM    4  O   UNK N   1      34.581  17.779   6.614  0.00  0.00    -0.777 OA
HETATM    5 Hg   UNK N   1      33.632  18.255   4.962  0.00  0.00     0.167 Hg
ENDBRANCH   2   4
TORSDOF 1
ENDMDL
MODEL 5
REMARK VINA RESULT:      -3.0     12.592     12.966
REMARK  1 active torsions:
REMARK  status: ('A' for Active; 'I' for Inactive)
REMARK    1  A    between atoms: C_2  and  O_4 
ROOT
HETATM    1  C   UNK N   1      22.405  12.228  11.094  0.00  0.00     0.125 C 
HETATM    2  C   UNK N   1      23.428  11.987  12.150  0.00  0.00     0.135 C 
HETATM    3  O   UNK N   1      23.081  11.797  13.303  0.00  0.00    -0.650 OA
ENDROOT
BRANCH   2   4
HETATM    4  O   UNK N   1      24.735  11.982  11.826  0.00  0.00    -0.777 OA
HETATM    5 Hg   UNK N   1      25.664  13.615  11.254  0.00  0.00     0.167 Hg
ENDBRANCH   2   4
TORSDOF 1
ENDMDL
MODEL 6
REMARK VINA RESULT:      -3.0     11.396     11.766
REMARK  1 active torsions:
REMARK  status: ('A' for Active; 'I' for Inactive)
REMARK    1  A    between atoms: C_2  and  O_4 
ROOT
HETATM    1  C   UNK N   1      34.978  13.104  17.220  0.00  0.00     0.125 C 
HETATM    2  C   UNK N   1      35.239  13.843  18.486  0.00  0.00     0.135 C 
HETATM    3  O   UNK N   1      35.470  15.039  18.457  0.00  0.00    -0.650 OA
ENDROOT
BRANCH   2   4
HETATM    4  O   UNK N   1      35.218  13.184  19.661  0.00  0.00    -0.777 OA
HETATM    5 Hg   UNK N   1      34.668  14.064  21.328  0.00  0.00     0.167 Hg
ENDBRANCH   2   4
TORSDOF 1
ENDMDL
MODEL 7
REMARK VINA RESULT:      -2.9     11.922     12.210
REMARK  1 active torsions:
REMARK  status: ('A' for Active; 'I' for Inactive)
REMARK    1  A    between atoms: C_2  and  O_4 
ROOT
HETATM    1  C   UNK N   1      30.192  22.249  -3.772  0.00  0.00     0.125 C 
HETATM    2  C   UNK N   1      30.934  22.389  -2.488  0.00  0.00     0.135 C 
HETATM    3  O   UNK N   1      32.015  21.845  -2.346  0.00  0.00    -0.650 OA
ENDROOT
BRANCH   2   4
HETATM    4  O   UNK N   1      30.404  23.119  -1.486  0.00  0.00    -0.777 OA
HETATM    5 Hg   UNK N   1      28.555  22.854  -0.882  0.00  0.00     0.167 Hg
ENDBRANCH   2   4
TORSDOF 1
ENDMDL
MODEL 8
REMARK VINA RESULT:      -2.9     11.674     12.000
REMARK  1 active torsions:
REMARK  status: ('A' for Active; 'I' for Inactive)
REMARK    1  A    between atoms: C_2  and  O_4 
ROOT
HETATM    1  C   UNK N   1      30.405  21.544  -3.645  0.00  0.00     0.125 C 
HETATM    2  C   UNK N   1      31.185  22.099  -2.505  0.00  0.00     0.135 C 
HETATM    3  O   UNK N   1      30.716  22.993  -1.822  0.00  0.00    -0.650 OA
ENDROOT
BRANCH   2   4
HETATM    4  O   UNK N   1      32.410  21.610  -2.232  0.00  0.00    -0.777 OA
HETATM    5 Hg   UNK N   1      33.012  19.880  -2.941  0.00  0.00     0.167 Hg
ENDBRANCH   2   4
TORSDOF 1
ENDMDL
MODEL 9
REMARK VINA RESULT:      -2.9     12.895     13.180
REMARK  1 active torsions:
REMARK  status: ('A' for Active; 'I' for Inactive)
REMARK    1  A    between atoms: C_2  and  O_4 
ROOT
HETATM    1  C   UNK N   1      29.715  22.843  -3.598  0.00  0.00     0.125 C 
HETATM    2  C   UNK N   1      29.463  22.978  -2.137  0.00  0.00     0.135 C 
HETATM    3  O   UNK N   1      30.400  23.032  -1.359  0.00  0.00    -0.650 OA
ENDROOT
BRANCH   2   4
HETATM    4  O   UNK N   1      28.197  23.041  -1.680  0.00  0.00    -0.777 OA
HETATM    5 Hg   UNK N   1      26.957  24.446  -2.266  0.00  0.00     0.167 Hg
ENDBRANCH   2   4
TORSDOF 1
ENDMDL
