MODEL 1
REMARK VINA RESULT:      -7.7      0.000      0.000
REMARK  13 active torsions:
REMARK  status: ('A' for Active; 'I' for Inactive)
REMARK    1  A    between atoms: C_19  and  C_4 
REMARK    2  A    between atoms: C_24  and  C_19 
REMARK    3  A    between atoms: C_30  and  C_20 
REMARK    4  A    between atoms: C_32  and  C_21 
REMARK    5  A    between atoms: C_31  and  C_22 
REMARK    6  A    between atoms: O_41  and  C_23 
REMARK    7  A    between atoms: C_30  and  C_25 
REMARK    8  A    between atoms: C_26  and  N_34 
REMARK    9  A    between atoms: O_36  and  C_27 
REMARK   10  A    between atoms: O_37  and  C_28 
REMARK   11  A    between atoms: C_29  and  O_42 
REMARK   12  A    between atoms: C_31  and  O_39 
REMARK   13  A    between atoms: O_42  and  C_32 
ROOT
HETATM    1  C   UNK N   1      22.573  11.877  10.820  0.00  0.00     0.022 C 
HETATM    2  C   UNK N   1      21.977  13.064  10.090  0.00  0.00     0.036 C 
HETATM    3  C   UNK N   1      23.926  12.302  11.378  0.00  0.00     0.114 C 
HETATM    4  C   UNK N   1      24.790  13.265   9.339  0.00  0.00     0.141 C 
HETATM    5  C   UNK N   1      23.828  12.744   8.267  0.00  0.00     0.130 C 
HETATM    6  C   UNK N   1      22.324  13.100   8.600  0.00  0.00     0.156 C 
HETATM    7  N   UNK N   1      24.978  12.234  10.366  0.00  0.00    -0.419 N 
HETATM    8  H   UNK N   1      25.742  11.559  10.373  0.00  0.00     0.153 HD
ENDROOT
BRANCH   6   9
HETATM    9  O   UNK N   1      21.920  14.337   8.096  0.00  0.00    -0.310 OA
BRANCH   9  10
HETATM   10  C   UNK N   1      20.966  14.417   7.127  0.00  0.00     0.293 C 
HETATM   11  O   UNK N   1      20.296  13.430   6.849  0.00  0.00    -0.259 OA
BRANCH  10  12
HETATM   12  C   UNK N   1      20.593  15.652   6.453  0.00  0.00     0.039 C 
HETATM   13  C   UNK N   1      20.946  16.825   7.119  0.00  0.00     0.018 C 
HETATM   14  C   UNK N   1      21.337  17.947   6.417  0.00  0.00     0.016 C 
HETATM   15  C   UNK N   1      21.472  17.907   5.036  0.00  0.00     0.015 C 
HETATM   16  C   UNK N   1      21.005  16.770   4.347  0.00  0.00     0.016 C 
HETATM   17  C   UNK N   1      20.586  15.637   5.056  0.00  0.00     0.018 C 
BRANCH  15  18
HETATM   18  C   UNK N   1      22.180  18.980   4.283  0.00  0.00     0.195 C 
HETATM   19  O   UNK N   1      21.477  19.809   3.720  0.00  0.00    -0.287 OA
BRANCH  18  20
HETATM   20  C   UNK N   1      23.683  19.101   4.086  0.00  0.00     0.051 A 
HETATM   21  C   UNK N   1      24.463  18.199   4.830  0.00  0.00     0.055 A 
HETATM   22  C   UNK N   1      25.863  18.199   4.773  0.00  0.00     0.069 A 
HETATM   23  C   UNK N   1      26.514  19.110   3.951  0.00  0.00     0.039 A 
HETATM   24  C   UNK N   1      25.781  20.037   3.223  0.00  0.00     0.040 A 
HETATM   25  C   UNK N   1      24.386  20.063   3.287  0.00  0.00     0.080 A 
BRANCH  22  26
HETATM   26  O   UNK N   1      26.601  17.338   5.512  0.00  0.00    -0.356 OA
HETATM   27  C   UNK N   1      27.656  17.739   6.299  0.00  0.00     0.210 C 
ENDBRANCH  22  26
BRANCH  25  28
HETATM   28  O   UNK N   1      23.772  21.046   2.619  0.00  0.00    -0.360 OA
HETATM   29  H   UNK N   1      24.276  21.673   2.138  0.00  0.00     0.217 HD
ENDBRANCH  25  28
ENDBRANCH  18  20
ENDBRANCH  15  18
ENDBRANCH  10  12
ENDBRANCH   9  10
ENDBRANCH   6   9
BRANCH   5  30
HETATM   30  N   UNK N   1      24.183  13.245   6.950  0.00  0.00    -0.362 N 
HETATM   31  C   UNK N   1      23.754  12.831   5.799  0.00  0.00     0.146 C 
ATOM     32  HN  UNK N   1      24.851  14.016   6.928  1.00  0.00     0.162 HD
BRANCH  31  33
HETATM   33  C   UNK N   1      24.232  13.520   4.571  0.00  0.00     0.015 A 
HETATM   34  C   UNK N   1      25.501  14.101   4.547  0.00  0.00     0.018 A 
HETATM   35  C   UNK N   1      25.967  14.754   3.410  0.00  0.00     0.038 A 
HETATM   36  C   UNK N   1      25.177  14.840   2.266  0.00  0.00     0.072 A 
HETATM   37  C   UNK N   1      23.877  14.264   2.257  0.00  0.00    -0.020 A 
HETATM   38  C   UNK N   1      23.425  13.605   3.425  0.00  0.00     0.026 A 
BRANCH  36  39
HETATM   39  O   UNK N   1      25.689  15.458   1.190  0.00  0.00    -0.360 OA
HETATM   40  H   UNK N   1      25.546  16.376   1.063  0.00  0.00     0.217 HD
ENDBRANCH  36  39
BRANCH  37  41
HETATM   41  C   UNK N   1      22.936  14.273   1.053  0.00  0.00     0.017 C 
HETATM   42  C   UNK N   1      23.304  13.156   0.081  0.00  0.00     0.015 C 
BRANCH  41  43
HETATM   43  C   UNK N   1      21.425  14.227   1.328  0.00  0.00     0.004 C 
HETATM   44  C   UNK N   1      20.690  15.498   0.916  0.00  0.00     0.006 C 
ENDBRANCH  41  43
ENDBRANCH  37  41
ENDBRANCH  31  33
BRANCH  31  45
HETATM   45  O   UNK N   1      22.899  11.794   5.715  0.00  0.00    -0.346 OA
HETATM   46  H   UNK N   1      22.420  11.644   4.923  0.00  0.00     0.219 HD
ENDBRANCH  31  45
ENDBRANCH   5  30
TORSDOF 13
ENDMDL
MODEL 2
REMARK VINA RESULT:      -7.5      7.711     11.817
REMARK  13 active torsions:
REMARK  status: ('A' for Active; 'I' for Inactive)
REMARK    1  A    between atoms: C_19  and  C_4 
REMARK    2  A    between atoms: C_24  and  C_19 
REMARK    3  A    between atoms: C_30  and  C_20 
REMARK    4  A    between atoms: C_32  and  C_21 
REMARK    5  A    between atoms: C_31  and  C_22 
REMARK    6  A    between atoms: O_41  and  C_23 
REMARK    7  A    between atoms: C_30  and  C_25 
REMARK    8  A    between atoms: C_26  and  N_34 
REMARK    9  A    between atoms: O_36  and  C_27 
REMARK   10  A    between atoms: O_37  and  C_28 
REMARK   11  A    between atoms: C_29  and  O_42 
REMARK   12  A    between atoms: C_31  and  O_39 
REMARK   13  A    between atoms: O_42  and  C_32 
ROOT
HETATM    1  C   UNK N   1      27.287  20.084   5.726  0.00  0.00     0.022 C 
HETATM    2  C   UNK N   1      27.848  19.127   6.758  0.00  0.00     0.036 C 
HETATM    3  C   UNK N   1      26.208  19.346   4.942  0.00  0.00     0.114 C 
HETATM    4  C   UNK N   1      27.505  17.369   4.453  0.00  0.00     0.141 C 
HETATM    5  C   UNK N   1      28.938  17.797   4.785  0.00  0.00     0.130 C 
HETATM    6  C   UNK N   1      29.066  18.342   6.263  0.00  0.00     0.156 C 
HETATM    7  N   UNK N   1      26.776  18.510   3.887  0.00  0.00    -0.419 N 
HETATM    8  H   UNK N   1      26.679  18.695   2.889  0.00  0.00     0.153 HD
ENDROOT
BRANCH   6   9
HETATM    9  O   UNK N   1      29.344  17.347   7.201  0.00  0.00    -0.310 OA
BRANCH   9  10
HETATM   10  C   UNK N   1      30.323  17.522   8.132  0.00  0.00     0.293 C 
HETATM   11  O   UNK N   1      30.067  18.093   9.184  0.00  0.00    -0.259 OA
BRANCH  10  12
HETATM   12  C   UNK N   1      31.663  16.967   8.016  0.00  0.00     0.039 C 
HETATM   13  C   UNK N   1      32.693  17.904   7.953  0.00  0.00     0.018 C 
HETATM   14  C   UNK N   1      33.918  17.650   8.539  0.00  0.00     0.016 C 
HETATM   15  C   UNK N   1      34.122  16.493   9.277  0.00  0.00     0.015 C 
HETATM   16  C   UNK N   1      33.133  15.491   9.246  0.00  0.00     0.016 C 
HETATM   17  C   UNK N   1      31.898  15.736   8.634  0.00  0.00     0.018 C 
BRANCH  15  18
HETATM   18  C   UNK N   1      35.303  16.329  10.171  0.00  0.00     0.195 C 
HETATM   19  O   UNK N   1      35.846  17.357  10.556  0.00  0.00    -0.287 OA
BRANCH  18  20
HETATM   20  C   UNK N   1      35.940  15.014  10.590  0.00  0.00     0.051 A 
HETATM   21  C   UNK N   1      37.163  14.711   9.967  0.00  0.00     0.055 A 
HETATM   22  C   UNK N   1      37.862  13.526  10.231  0.00  0.00     0.069 A 
HETATM   23  C   UNK N   1      37.346  12.616  11.146  0.00  0.00     0.039 A 
HETATM   24  C   UNK N   1      36.127  12.865  11.761  0.00  0.00     0.040 A 
HETATM   25  C   UNK N   1      35.408  14.031  11.490  0.00  0.00     0.080 A 
BRANCH  22  26
HETATM   26  O   UNK N   1      39.028  13.238   9.607  0.00  0.00    -0.356 OA
HETATM   27  C   UNK N   1      39.405  11.957   9.275  0.00  0.00     0.210 C 
ENDBRANCH  22  26
BRANCH  25  28
HETATM   28  O   UNK N   1      34.205  14.142  12.064  0.00  0.00    -0.360 OA
HETATM   29  H   UNK N   1      33.960  13.563  12.760  0.00  0.00     0.217 HD
ENDBRANCH  25  28
ENDBRANCH  18  20
ENDBRANCH  15  18
ENDBRANCH  10  12
ENDBRANCH   9  10
ENDBRANCH   6   9
BRANCH   5  30
HETATM   30  N   UNK N   1      29.877  16.710   4.567  0.00  0.00    -0.362 N 
HETATM   31  C   UNK N   1      31.125  16.792   4.228  0.00  0.00     0.146 C 
ATOM     32  HN  UNK N   1      29.510  15.767   4.698  1.00  0.00     0.162 HD
BRANCH  31  33
HETATM   33  C   UNK N   1      31.912  15.537   4.094  0.00  0.00     0.015 A 
HETATM   34  C   UNK N   1      31.623  14.640   3.064  0.00  0.00     0.018 A 
HETATM   35  C   UNK N   1      32.343  13.458   2.922  0.00  0.00     0.038 A 
HETATM   36  C   UNK N   1      33.374  13.144   3.805  0.00  0.00     0.072 A 
HETATM   37  C   UNK N   1      33.693  14.033   4.868  0.00  0.00    -0.020 A 
HETATM   38  C   UNK N   1      32.946  15.228   4.992  0.00  0.00     0.026 A 
BRANCH  36  39
HETATM   39  O   UNK N   1      34.052  12.004   3.603  0.00  0.00    -0.360 OA
HETATM   40  H   UNK N   1      34.971  12.029   3.419  0.00  0.00     0.217 HD
ENDBRANCH  36  39
BRANCH  37  41
HETATM   41  C   UNK N   1      34.819  13.806   5.876  0.00  0.00     0.017 C 
HETATM   42  C   UNK N   1      35.457  15.134   6.271  0.00  0.00     0.015 C 
BRANCH  41  43
HETATM   43  C   UNK N   1      34.488  13.007   7.146  0.00  0.00     0.004 C 
HETATM   44  C   UNK N   1      35.656  12.174   7.666  0.00  0.00     0.006 C 
ENDBRANCH  41  43
ENDBRANCH  37  41
ENDBRANCH  31  33
BRANCH  31  45
HETATM   45  O   UNK N   1      31.698  17.988   3.995  0.00  0.00    -0.346 OA
HETATM   46  H   UNK N   1      32.524  18.197   4.386  0.00  0.00     0.219 HD
ENDBRANCH  31  45
ENDBRANCH   5  30
TORSDOF 13
ENDMDL
MODEL 3
REMARK VINA RESULT:      -7.3     10.913     15.254
REMARK  13 active torsions:
REMARK  status: ('A' for Active; 'I' for Inactive)
REMARK    1  A    between atoms: C_19  and  C_4 
REMARK    2  A    between atoms: C_24  and  C_19 
REMARK    3  A    between atoms: C_30  and  C_20 
REMARK    4  A    between atoms: C_32  and  C_21 
REMARK    5  A    between atoms: C_31  and  C_22 
REMARK    6  A    between atoms: O_41  and  C_23 
REMARK    7  A    between atoms: C_30  and  C_25 
REMARK    8  A    between atoms: C_26  and  N_34 
REMARK    9  A    between atoms: O_36  and  C_27 
REMARK   10  A    between atoms: O_37  and  C_28 
REMARK   11  A    between atoms: C_29  and  O_42 
REMARK   12  A    between atoms: C_31  and  O_39 
REMARK   13  A    between atoms: O_42  and  C_32 
ROOT
HETATM    1  C   UNK N   1      35.983   9.703   9.779  0.00  0.00     0.022 C 
HETATM    2  C   UNK N   1      35.262  10.987  10.138  0.00  0.00     0.036 C 
HETATM    3  C   UNK N   1      35.077   8.537  10.156  0.00  0.00     0.114 C 
HETATM    4  C   UNK N   1      34.574   9.275  12.399  0.00  0.00     0.141 C 
HETATM    5  C   UNK N   1      35.619  10.365  12.655  0.00  0.00     0.130 C 
HETATM    6  C   UNK N   1      35.582  11.492  11.547  0.00  0.00     0.156 C 
HETATM    7  N   UNK N   1      35.169   8.214  11.578  0.00  0.00    -0.419 N 
HETATM    8  H   UNK N   1      35.591   7.364  11.951  0.00  0.00     0.153 HD
ENDROOT
BRANCH   6   9
HETATM    9  O   UNK N   1      34.698  12.531  11.840  0.00  0.00    -0.310 OA
BRANCH   9  10
HETATM   10  C   UNK N   1      35.160  13.787  12.095  0.00  0.00     0.293 C 
HETATM   11  O   UNK N   1      35.324  14.153  13.251  0.00  0.00    -0.259 OA
BRANCH  10  12
HETATM   12  C   UNK N   1      35.592  14.718  11.063  0.00  0.00     0.039 C 
HETATM   13  C   UNK N   1      35.221  14.382   9.762  0.00  0.00     0.018 C 
HETATM   14  C   UNK N   1      34.890  15.360   8.845  0.00  0.00     0.016 C 
HETATM   15  C   UNK N   1      34.836  16.694   9.223  0.00  0.00     0.015 C 
HETATM   16  C   UNK N   1      35.324  17.055  10.495  0.00  0.00     0.016 C 
HETATM   17  C   UNK N   1      35.681  16.067  11.420  0.00  0.00     0.018 C 
BRANCH  15  18
HETATM   18  C   UNK N   1      34.192  17.729   8.365  0.00  0.00     0.195 C 
HETATM   19  O   UNK N   1      34.728  18.830   8.340  0.00  0.00    -0.287 OA
BRANCH  18  20
HETATM   20  C   UNK N   1      32.899  17.572   7.581  0.00  0.00     0.051 A 
HETATM   21  C   UNK N   1      31.720  17.663   8.339  0.00  0.00     0.055 A 
HETATM   22  C   UNK N   1      30.450  17.519   7.765  0.00  0.00     0.069 A 
HETATM   23  C   UNK N   1      30.338  17.287   6.399  0.00  0.00     0.039 A 
HETATM   24  C   UNK N   1      31.481  17.161   5.621  0.00  0.00     0.040 A 
HETATM   25  C   UNK N   1      32.754  17.280   6.184  0.00  0.00     0.080 A 
BRANCH  22  26
HETATM   26  O   UNK N   1      29.324  17.589   8.512  0.00  0.00    -0.356 OA
HETATM   27  C   UNK N   1      29.204  18.406   9.613  0.00  0.00     0.210 C 
ENDBRANCH  22  26
BRANCH  25  28
HETATM   28  O   UNK N   1      33.792  17.058   5.372  0.00  0.00    -0.360 OA
HETATM   29  H   UNK N   1      33.770  17.361   4.485  0.00  0.00     0.217 HD
ENDBRANCH  25  28
ENDBRANCH  18  20
ENDBRANCH  15  18
ENDBRANCH  10  12
ENDBRANCH   9  10
ENDBRANCH   6   9
BRANCH   5  30
HETATM   30  N   UNK N   1      35.459  10.952  13.974  0.00  0.00    -0.362 N 
HETATM   31  C   UNK N   1      35.993  10.562  15.089  0.00  0.00     0.146 C 
ATOM     32  HN  UNK N   1      34.853  11.771  14.031  1.00  0.00     0.162 HD
BRANCH  31  33
HETATM   33  C   UNK N   1      35.714  11.342  16.324  0.00  0.00     0.015 A 
HETATM   34  C   UNK N   1      35.296  12.671  16.229  0.00  0.00     0.018 A 
HETATM   35  C   UNK N   1      35.033  13.421  17.371  0.00  0.00     0.038 A 
HETATM   36  C   UNK N   1      35.178  12.860  18.638  0.00  0.00     0.072 A 
HETATM   37  C   UNK N   1      35.606  11.511  18.772  0.00  0.00    -0.020 A 
HETATM   38  C   UNK N   1      35.867  10.769  17.597  0.00  0.00     0.026 A 
BRANCH  36  39
HETATM   39  O   UNK N   1      34.883  13.623  19.703  0.00  0.00    -0.360 OA
HETATM   40  H   UNK N   1      35.518  13.750  20.381  0.00  0.00     0.217 HD
ENDBRANCH  36  39
BRANCH  37  41
HETATM   41  C   UNK N   1      35.771  10.785  20.107  0.00  0.00     0.017 C 
HETATM   42  C   UNK N   1      34.445  10.174  20.548  0.00  0.00     0.015 C 
BRANCH  41  43
HETATM   43  C   UNK N   1      36.877   9.723  20.209  0.00  0.00     0.004 C 
HETATM   44  C   UNK N   1      37.959  10.065  21.228  0.00  0.00     0.006 C 
ENDBRANCH  41  43
ENDBRANCH  37  41
ENDBRANCH  31  33
BRANCH  31  45
HETATM   45  O   UNK N   1      36.780   9.470  15.131  0.00  0.00    -0.346 OA
HETATM   46  H   UNK N   1      36.686   8.800  14.483  0.00  0.00     0.219 HD
ENDBRANCH  31  45
ENDBRANCH   5  30
TORSDOF 13
ENDMDL
MODEL 4
REMARK VINA RESULT:      -7.1     13.544     16.515
REMARK  13 active torsions:
REMARK  status: ('A' for Active; 'I' for Inactive)
REMARK    1  A    between atoms: C_19  and  C_4 
REMARK    2  A    between atoms: C_24  and  C_19 
REMARK    3  A    between atoms: C_30  and  C_20 
REMARK    4  A    between atoms: C_32  and  C_21 
REMARK    5  A    between atoms: C_31  and  C_22 
REMARK    6  A    between atoms: O_41  and  C_23 
REMARK    7  A    between atoms: C_30  and  C_25 
REMARK    8  A    between atoms: C_26  and  N_34 
REMARK    9  A    between atoms: O_36  and  C_27 
REMARK   10  A    between atoms: O_37  and  C_28 
REMARK   11  A    between atoms: C_29  and  O_42 
REMARK   12  A    between atoms: C_31  and  O_39 
REMARK   13  A    between atoms: O_42  and  C_32 
ROOT
HETATM    1  C   UNK N   1      35.542  18.821  -5.836  0.00  0.00     0.022 C 
HETATM    2  C   UNK N   1      34.458  19.261  -4.871  0.00  0.00     0.036 C 
HETATM    3  C   UNK N   1      36.889  19.166  -5.213  0.00  0.00     0.114 C 
HETATM    4  C   UNK N   1      36.370  21.455  -4.646  0.00  0.00     0.141 C 
HETATM    5  C   UNK N   1      35.093  21.735  -5.444  0.00  0.00     0.130 C 
HETATM    6  C   UNK N   1      33.955  20.684  -5.128  0.00  0.00     0.156 C 
HETATM    7  N   UNK N   1      37.244  20.568  -5.423  0.00  0.00    -0.419 N 
HETATM    8  H   UNK N   1      37.999  20.887  -6.030  0.00  0.00     0.153 HD
ENDROOT
BRANCH   6   9
HETATM    9  O   UNK N   1      33.143  21.051  -4.054  0.00  0.00    -0.310 OA
BRANCH   9  10
HETATM   10  C   UNK N   1      31.796  21.185  -4.214  0.00  0.00     0.293 C 
HETATM   11  O   UNK N   1      31.090  20.189  -4.295  0.00  0.00    -0.259 OA
BRANCH  10  12
HETATM   12  C   UNK N   1      31.099  22.462  -4.183  0.00  0.00     0.039 C 
HETATM   13  C   UNK N   1      30.173  22.661  -5.206  0.00  0.00     0.018 C 
HETATM   14  C   UNK N   1      29.003  23.359  -4.977  0.00  0.00     0.016 C 
HETATM   15  C   UNK N   1      28.684  23.804  -3.702  0.00  0.00     0.015 C 
HETATM   16  C   UNK N   1      29.662  23.714  -2.692  0.00  0.00     0.016 C 
HETATM   17  C   UNK N   1      30.859  23.027  -2.927  0.00  0.00     0.018 C 
BRANCH  15  18
HETATM   18  C   UNK N   1      27.314  24.276  -3.355  0.00  0.00     0.195 C 
HETATM   19  O   UNK N   1      26.736  23.671  -2.461  0.00  0.00    -0.287 OA
BRANCH  18  20
HETATM   20  C   UNK N   1      26.541  25.386  -4.050  0.00  0.00     0.051 A 
HETATM   21  C   UNK N   1      26.596  26.643  -3.423  0.00  0.00     0.055 A 
HETATM   22  C   UNK N   1      25.919  27.760  -3.929  0.00  0.00     0.069 A 
HETATM   23  C   UNK N   1      25.172  27.638  -5.094  0.00  0.00     0.039 A 
HETATM   24  C   UNK N   1      25.068  26.406  -5.727  0.00  0.00     0.040 A 
HETATM   25  C   UNK N   1      25.720  25.279  -5.221  0.00  0.00     0.080 A 
BRANCH  22  26
HETATM   26  O   UNK N   1      25.965  28.959  -3.303  0.00  0.00    -0.356 OA
HETATM   27  C   UNK N   1      27.144  29.588  -2.975  0.00  0.00     0.210 C 
ENDBRANCH  22  26
BRANCH  25  28
HETATM   28  O   UNK N   1      25.491  24.121  -5.849  0.00  0.00    -0.360 OA
HETATM   29  H   UNK N   1      24.655  23.702  -5.774  0.00  0.00     0.217 HD
ENDBRANCH  25  28
ENDBRANCH  18  20
ENDBRANCH  15  18
ENDBRANCH  10  12
ENDBRANCH   9  10
ENDBRANCH   6   9
BRANCH   5  30
HETATM   30  N   UNK N   1      34.610  23.085  -5.210  0.00  0.00    -0.362 N 
HETATM   31  C   UNK N   1      34.907  24.162  -5.868  0.00  0.00     0.146 C 
ATOM     32  HN  UNK N   1      33.956  23.200  -4.435  1.00  0.00     0.162 HD
BRANCH  31  33
HETATM   33  C   UNK N   1      34.260  25.441  -5.471  0.00  0.00     0.015 A 
HETATM   34  C   UNK N   1      35.037  26.586  -5.283  0.00  0.00     0.018 A 
HETATM   35  C   UNK N   1      34.453  27.791  -4.907  0.00  0.00     0.038 A 
HETATM   36  C   UNK N   1      33.077  27.885  -4.715  0.00  0.00     0.072 A 
HETATM   37  C   UNK N   1      32.256  26.738  -4.894  0.00  0.00    -0.020 A 
HETATM   38  C   UNK N   1      32.872  25.523  -5.275  0.00  0.00     0.026 A 
BRANCH  36  39
HETATM   39  O   UNK N   1      32.566  29.081  -4.380  0.00  0.00    -0.360 OA
HETATM   40  H   UNK N   1      31.640  29.186  -4.282  0.00  0.00     0.217 HD
ENDBRANCH  36  39
BRANCH  37  41
HETATM   41  C   UNK N   1      30.735  26.731  -4.737  0.00  0.00     0.017 C 
HETATM   42  C   UNK N   1      30.343  27.166  -3.329  0.00  0.00     0.015 C 
BRANCH  41  43
HETATM   43  C   UNK N   1      29.910  27.525  -5.761  0.00  0.00     0.004 C 
HETATM   44  C   UNK N   1      28.931  26.665  -6.555  0.00  0.00     0.006 C 
ENDBRANCH  41  43
ENDBRANCH  37  41
ENDBRANCH  31  33
BRANCH  31  45
HETATM   45  O   UNK N   1      35.788  24.126  -6.885  0.00  0.00    -0.346 OA
HETATM   46  H   UNK N   1      35.762  24.785  -7.551  0.00  0.00     0.219 HD
ENDBRANCH  31  45
ENDBRANCH   5  30
TORSDOF 13
ENDMDL
MODEL 5
REMARK VINA RESULT:      -7.1      9.147     13.407
REMARK  13 active torsions:
REMARK  status: ('A' for Active; 'I' for Inactive)
REMARK    1  A    between atoms: C_19  and  C_4 
REMARK    2  A    between atoms: C_24  and  C_19 
REMARK    3  A    between atoms: C_30  and  C_20 
REMARK    4  A    between atoms: C_32  and  C_21 
REMARK    5  A    between atoms: C_31  and  C_22 
REMARK    6  A    between atoms: O_41  and  C_23 
REMARK    7  A    between atoms: C_30  and  C_25 
REMARK    8  A    between atoms: C_26  and  N_34 
REMARK    9  A    between atoms: O_36  and  C_27 
REMARK   10  A    between atoms: O_37  and  C_28 
REMARK   11  A    between atoms: C_29  and  O_42 
REMARK   12  A    between atoms: C_31  and  O_39 
REMARK   13  A    between atoms: O_42  and  C_32 
ROOT
HETATM    1  C   UNK N   1      36.449  13.798   6.734  0.00  0.00     0.022 C 
HETATM    2  C   UNK N   1      35.519  14.669   7.556  0.00  0.00     0.036 C 
HETATM    3  C   UNK N   1      35.814  12.418   6.616  0.00  0.00     0.114 C 
HETATM    4  C   UNK N   1      35.331  12.118   8.963  0.00  0.00     0.141 C 
HETATM    5  C   UNK N   1      36.161  13.216   9.636  0.00  0.00     0.130 C 
HETATM    6  C   UNK N   1      35.831  14.648   9.054  0.00  0.00     0.156 C 
HETATM    7  N   UNK N   1      36.063  11.600   7.801  0.00  0.00    -0.419 N 
HETATM    8  H   UNK N   1      36.666  10.778   7.819  0.00  0.00     0.153 HD
ENDROOT
BRANCH   6   9
HETATM    9  O   UNK N   1      34.784  15.290   9.718  0.00  0.00    -0.310 OA
BRANCH   9  10
HETATM   10  C   UNK N   1      34.589  16.631   9.577  0.00  0.00     0.293 C 
HETATM   11  O   UNK N   1      35.328  17.418  10.153  0.00  0.00    -0.259 OA
BRANCH  10  12
HETATM   12  C   UNK N   1      33.608  17.219   8.677  0.00  0.00     0.039 C 
HETATM   13  C   UNK N   1      34.136  17.901   7.581  0.00  0.00     0.018 C 
HETATM   14  C   UNK N   1      33.497  17.876   6.357  0.00  0.00     0.016 C 
HETATM   15  C   UNK N   1      32.362  17.101   6.167  0.00  0.00     0.015 C 
HETATM   16  C   UNK N   1      31.755  16.508   7.292  0.00  0.00     0.016 C 
HETATM   17  C   UNK N   1      32.388  16.550   8.540  0.00  0.00     0.018 C 
BRANCH  15  18
HETATM   18  C   UNK N   1      31.831  16.803   4.807  0.00  0.00     0.195 C 
HETATM   19  O   UNK N   1      32.653  16.491   3.954  0.00  0.00    -0.287 OA
BRANCH  18  20
HETATM   20  C   UNK N   1      30.382  16.919   4.360  0.00  0.00     0.051 A 
HETATM   21  C   UNK N   1      29.667  17.999   4.907  0.00  0.00     0.055 A 
HETATM   22  C   UNK N   1      28.318  18.228   4.608  0.00  0.00     0.069 A 
HETATM   23  C   UNK N   1      27.654  17.373   3.737  0.00  0.00     0.039 A 
HETATM   24  C   UNK N   1      28.317  16.279   3.199  0.00  0.00     0.040 A 
HETATM   25  C   UNK N   1      29.656  16.025   3.504  0.00  0.00     0.080 A 
BRANCH  22  26
HETATM   26  O   UNK N   1      27.637  19.260   5.160  0.00  0.00    -0.356 OA
HETATM   27  C   UNK N   1      27.054  20.257   4.412  0.00  0.00     0.210 C 
ENDBRANCH  22  26
BRANCH  25  28
HETATM   28  O   UNK N   1      30.183  14.901   3.008  0.00  0.00    -0.360 OA
HETATM   29  H   UNK N   1      29.851  14.066   3.278  0.00  0.00     0.217 HD
ENDBRANCH  25  28
ENDBRANCH  18  20
ENDBRANCH  15  18
ENDBRANCH  10  12
ENDBRANCH   9  10
ENDBRANCH   6   9
BRANCH   5  30
HETATM   30  N   UNK N   1      35.979  13.205  11.078  0.00  0.00    -0.362 N 
HETATM   31  C   UNK N   1      36.894  13.151  11.995  0.00  0.00     0.146 C 
ATOM     32  HN  UNK N   1      35.015  13.247  11.409  1.00  0.00     0.162 HD
BRANCH  31  33
HETATM   33  C   UNK N   1      36.476  13.187  13.422  0.00  0.00     0.015 A 
HETATM   34  C   UNK N   1      36.902  14.231  14.246  0.00  0.00     0.018 A 
HETATM   35  C   UNK N   1      36.526  14.284  15.584  0.00  0.00     0.038 A 
HETATM   36  C   UNK N   1      35.711  13.296  16.133  0.00  0.00     0.072 A 
HETATM   37  C   UNK N   1      35.263  12.216  15.323  0.00  0.00    -0.020 A 
HETATM   38  C   UNK N   1      35.658  12.185  13.966  0.00  0.00     0.026 A 
BRANCH  36  39
HETATM   39  O   UNK N   1      35.359  13.413  17.422  0.00  0.00    -0.360 OA
HETATM   40  H   UNK N   1      34.503  13.722  17.650  0.00  0.00     0.217 HD
ENDBRANCH  36  39
BRANCH  37  41
HETATM   41  C   UNK N   1      34.346  11.095  15.810  0.00  0.00     0.017 C 
HETATM   42  C   UNK N   1      33.445  10.614  14.677  0.00  0.00     0.015 C 
BRANCH  41  43
HETATM   43  C   UNK N   1      35.001   9.880  16.485  0.00  0.00     0.004 C 
HETATM   44  C   UNK N   1      34.879   9.887  18.006  0.00  0.00     0.006 C 
ENDBRANCH  41  43
ENDBRANCH  37  41
ENDBRANCH  31  33
BRANCH  31  45
HETATM   45  O   UNK N   1      38.196  13.056  11.664  0.00  0.00    -0.346 OA
HETATM   46  H   UNK N   1      38.442  12.777  10.804  0.00  0.00     0.219 HD
ENDBRANCH  31  45
ENDBRANCH   5  30
TORSDOF 13
ENDMDL
MODEL 6
REMARK VINA RESULT:      -7.1     12.268     15.880
REMARK  13 active torsions:
REMARK  status: ('A' for Active; 'I' for Inactive)
REMARK    1  A    between atoms: C_19  and  C_4 
REMARK    2  A    between atoms: C_24  and  C_19 
REMARK    3  A    between atoms: C_30  and  C_20 
REMARK    4  A    between atoms: C_32  and  C_21 
REMARK    5  A    between atoms: C_31  and  C_22 
REMARK    6  A    between atoms: O_41  and  C_23 
REMARK    7  A    between atoms: C_30  and  C_25 
REMARK    8  A    between atoms: C_26  and  N_34 
REMARK    9  A    between atoms: O_36  and  C_27 
REMARK   10  A    between atoms: O_37  and  C_28 
REMARK   11  A    between atoms: C_29  and  O_42 
REMARK   12  A    between atoms: C_31  and  O_39 
REMARK   13  A    between atoms: O_42  and  C_32 
ROOT
HETATM    1  C   UNK N   1      35.811  11.415  19.503  0.00  0.00     0.022 C 
HETATM    2  C   UNK N   1      35.099  10.656  18.401  0.00  0.00     0.036 C 
HETATM    3  C   UNK N   1      35.020  12.687  19.782  0.00  0.00     0.114 C 
HETATM    4  C   UNK N   1      34.824  13.415  17.488  0.00  0.00     0.141 C 
HETATM    5  C   UNK N   1      35.850  12.547  16.754  0.00  0.00     0.130 C 
HETATM    6  C   UNK N   1      35.604  11.005  16.998  0.00  0.00     0.156 C 
HETATM    7  N   UNK N   1      35.334  13.745  18.824  0.00  0.00    -0.419 N 
HETATM    8  H   UNK N   1      35.841  14.599  19.054  0.00  0.00     0.153 HD
ENDROOT
BRANCH   6   9
HETATM    9  O   UNK N   1      34.731  10.428  16.074  0.00  0.00    -0.310 OA
BRANCH   9  10
HETATM   10  C   UNK N   1      35.170   9.480  15.200  0.00  0.00     0.293 C 
HETATM   11  O   UNK N   1      35.468   8.365  15.608  0.00  0.00    -0.259 OA
BRANCH  10  12
HETATM   12  C   UNK N   1      35.207   9.662  13.756  0.00  0.00     0.039 C 
HETATM   13  C   UNK N   1      35.768   8.608  13.036  0.00  0.00     0.018 C 
HETATM   14  C   UNK N   1      35.278   8.262  11.792  0.00  0.00     0.016 C 
HETATM   15  C   UNK N   1      34.162   8.898  11.269  0.00  0.00     0.015 C 
HETATM   16  C   UNK N   1      33.664  10.038  11.930  0.00  0.00     0.016 C 
HETATM   17  C   UNK N   1      34.173  10.406  13.182  0.00  0.00     0.018 C 
BRANCH  15  18
HETATM   18  C   UNK N   1      33.425   8.354  10.094  0.00  0.00     0.195 C 
HETATM   19  O   UNK N   1      33.826   8.697   8.988  0.00  0.00    -0.287 OA
BRANCH  18  20
HETATM   20  C   UNK N   1      32.183   7.477  10.136  0.00  0.00     0.051 A 
HETATM   21  C   UNK N   1      32.355   6.219  10.741  0.00  0.00     0.055 A 
HETATM   22  C   UNK N   1      31.311   5.289  10.838  0.00  0.00     0.069 A 
HETATM   23  C   UNK N   1      30.057   5.612  10.332  0.00  0.00     0.039 A 
HETATM   24  C   UNK N   1      29.855   6.832   9.702  0.00  0.00     0.040 A 
HETATM   25  C   UNK N   1      30.892   7.760   9.578  0.00  0.00     0.080 A 
BRANCH  22  26
HETATM   26  O   UNK N   1      31.497   4.075  11.404  0.00  0.00    -0.356 OA
HETATM   27  C   UNK N   1      30.621   3.530  12.315  0.00  0.00     0.210 C 
ENDBRANCH  22  26
BRANCH  25  28
HETATM   28  O   UNK N   1      30.626   8.868   8.880  0.00  0.00    -0.360 OA
HETATM   29  H   UNK N   1      31.149   9.637   8.999  0.00  0.00     0.217 HD
ENDBRANCH  25  28
ENDBRANCH  18  20
ENDBRANCH  15  18
ENDBRANCH  10  12
ENDBRANCH   9  10
ENDBRANCH   6   9
BRANCH   5  30
HETATM   30  N   UNK N   1      35.863  12.834  15.329  0.00  0.00    -0.362 N 
HETATM   31  C   UNK N   1      36.651  13.638  14.687  0.00  0.00     0.146 C 
ATOM     32  HN  UNK N   1      35.168  12.344  14.766  1.00  0.00     0.162 HD
BRANCH  31  33
HETATM   33  C   UNK N   1      36.505  13.751  13.211  0.00  0.00     0.015 A 
HETATM   34  C   UNK N   1      35.900  14.880  12.655  0.00  0.00     0.018 A 
HETATM   35  C   UNK N   1      35.749  15.005  11.278  0.00  0.00     0.038 A 
HETATM   36  C   UNK N   1      36.203  14.005  10.420  0.00  0.00     0.072 A 
HETATM   37  C   UNK N   1      36.819  12.840  10.952  0.00  0.00    -0.020 A 
HETATM   38  C   UNK N   1      36.961  12.736  12.355  0.00  0.00     0.026 A 
BRANCH  36  39
HETATM   39  O   UNK N   1      36.055  14.193   9.099  0.00  0.00    -0.360 OA
HETATM   40  H   UNK N   1      36.784  14.466   8.578  0.00  0.00     0.217 HD
ENDBRANCH  36  39
BRANCH  37  41
HETATM   41  C   UNK N   1      37.378  11.696  10.107  0.00  0.00     0.017 C 
HETATM   42  C   UNK N   1      38.050  10.655  10.997  0.00  0.00     0.015 C 
BRANCH  41  43
HETATM   43  C   UNK N   1      36.416  10.988   9.139  0.00  0.00     0.004 C 
HETATM   44  C   UNK N   1      36.954   9.666   8.602  0.00  0.00     0.006 C 
ENDBRANCH  41  43
ENDBRANCH  37  41
ENDBRANCH  31  33
BRANCH  31  45
HETATM   45  O   UNK N   1      37.579  14.361  15.341  0.00  0.00    -0.346 OA
HETATM   46  H   UNK N   1      38.345  13.943  15.683  0.00  0.00     0.219 HD
ENDBRANCH  31  45
ENDBRANCH   5  30
TORSDOF 13
ENDMDL
MODEL 7
REMARK VINA RESULT:      -6.9     13.441     15.957
REMARK  13 active torsions:
REMARK  status: ('A' for Active; 'I' for Inactive)
REMARK    1  A    between atoms: C_19  and  C_4 
REMARK    2  A    between atoms: C_24  and  C_19 
REMARK    3  A    between atoms: C_30  and  C_20 
REMARK    4  A    between atoms: C_32  and  C_21 
REMARK    5  A    between atoms: C_31  and  C_22 
REMARK    6  A    between atoms: O_41  and  C_23 
REMARK    7  A    between atoms: C_30  and  C_25 
REMARK    8  A    between atoms: C_26  and  N_34 
REMARK    9  A    between atoms: O_36  and  C_27 
REMARK   10  A    between atoms: O_37  and  C_28 
REMARK   11  A    between atoms: C_29  and  O_42 
REMARK   12  A    between atoms: C_31  and  O_39 
REMARK   13  A    between atoms: O_42  and  C_32 
ROOT
HETATM    1  C   UNK N   1      26.348  25.867  -4.270  0.00  0.00     0.022 C 
HETATM    2  C   UNK N   1      27.092  24.739  -3.582  0.00  0.00     0.036 C 
HETATM    3  C   UNK N   1      25.225  25.252  -5.095  0.00  0.00     0.114 C 
HETATM    4  C   UNK N   1      26.565  23.580  -6.209  0.00  0.00     0.141 C 
HETATM    5  C   UNK N   1      28.000  24.039  -5.935  0.00  0.00     0.130 C 
HETATM    6  C   UNK N   1      28.281  24.213  -4.389  0.00  0.00     0.156 C 
HETATM    7  N   UNK N   1      25.704  24.755  -6.383  0.00  0.00    -0.419 N 
HETATM    8  H   UNK N   1      25.470  25.171  -7.285  0.00  0.00     0.153 HD
ENDROOT
BRANCH   6   9
HETATM    9  O   UNK N   1      28.735  23.046  -3.772  0.00  0.00    -0.310 OA
BRANCH   9  10
HETATM   10  C   UNK N   1      29.975  22.992  -3.211  0.00  0.00     0.293 C 
HETATM   11  O   UNK N   1      30.413  23.962  -2.606  0.00  0.00    -0.259 OA
BRANCH  10  12
HETATM   12  C   UNK N   1      30.800  21.794  -3.178  0.00  0.00     0.039 C 
HETATM   13  C   UNK N   1      30.635  20.926  -4.257  0.00  0.00     0.018 C 
HETATM   14  C   UNK N   1      31.707  20.220  -4.767  0.00  0.00     0.016 C 
HETATM   15  C   UNK N   1      32.987  20.423  -4.274  0.00  0.00     0.015 C 
HETATM   16  C   UNK N   1      33.145  21.202  -3.110  0.00  0.00     0.016 C 
HETATM   17  C   UNK N   1      32.057  21.902  -2.577  0.00  0.00     0.018 C 
BRANCH  15  18
HETATM   18  C   UNK N   1      34.195  19.925  -4.991  0.00  0.00     0.195 C 
HETATM   19  O   UNK N   1      34.873  20.765  -5.569  0.00  0.00    -0.287 OA
BRANCH  18  20
HETATM   20  C   UNK N   1      34.623  18.473  -5.134  0.00  0.00     0.051 A 
HETATM   21  C   UNK N   1      34.391  17.663  -4.009  0.00  0.00     0.055 A 
HETATM   22  C   UNK N   1      34.749  16.308  -3.978  0.00  0.00     0.069 A 
HETATM   23  C   UNK N   1      35.346  15.732  -5.093  0.00  0.00     0.039 A 
HETATM   24  C   UNK N   1      35.619  16.506  -6.213  0.00  0.00     0.040 A 
HETATM   25  C   UNK N   1      35.287  17.862  -6.250  0.00  0.00     0.080 A 
BRANCH  22  26
HETATM   26  O   UNK N   1      34.539  15.547  -2.879  0.00  0.00    -0.356 OA
HETATM   27  C   UNK N   1      34.629  14.173  -2.891  0.00  0.00     0.210 C 
ENDBRANCH  22  26
BRANCH  25  28
HETATM   28  O   UNK N   1      35.667  18.544  -7.335  0.00  0.00    -0.360 OA
HETATM   29  H   UNK N   1      36.162  18.118  -8.009  0.00  0.00     0.217 HD
ENDBRANCH  25  28
ENDBRANCH  18  20
ENDBRANCH  15  18
ENDBRANCH  10  12
ENDBRANCH   9  10
ENDBRANCH   6   9
BRANCH   5  30
HETATM   30  N   UNK N   1      28.968  23.128  -6.523  0.00  0.00    -0.362 N 
HETATM   31  C   UNK N   1      30.016  23.424  -7.225  0.00  0.00     0.146 C 
ATOM     32  HN  UNK N   1      28.803  22.134  -6.362  1.00  0.00     0.162 HD
BRANCH  31  33
HETATM   33  C   UNK N   1      30.892  22.319  -7.700  0.00  0.00     0.015 A 
HETATM   34  C   UNK N   1      32.261  22.538  -7.866  0.00  0.00     0.018 A 
HETATM   35  C   UNK N   1      33.098  21.521  -8.312  0.00  0.00     0.038 A 
HETATM   36  C   UNK N   1      32.589  20.256  -8.599  0.00  0.00     0.072 A 
HETATM   37  C   UNK N   1      31.198  20.000  -8.445  0.00  0.00    -0.020 A 
HETATM   38  C   UNK N   1      30.368  21.050  -7.991  0.00  0.00     0.026 A 
BRANCH  36  39
HETATM   39  O   UNK N   1      33.448  19.306  -9.000  0.00  0.00    -0.360 OA
HETATM   40  H   UNK N   1      33.479  19.049  -9.901  0.00  0.00     0.217 HD
ENDBRANCH  36  39
BRANCH  37  41
HETATM   41  C   UNK N   1      30.536  18.647  -8.703  0.00  0.00     0.017 C 
HETATM   42  C   UNK N   1      29.329  18.462  -7.789  0.00  0.00     0.015 C 
BRANCH  41  43
HETATM   43  C   UNK N   1      30.131  18.315 -10.148  0.00  0.00     0.004 C 
HETATM   44  C   UNK N   1      30.902  17.141 -10.744  0.00  0.00     0.006 C 
ENDBRANCH  41  43
ENDBRANCH  37  41
ENDBRANCH  31  33
BRANCH  31  45
HETATM   45  O   UNK N   1      30.304  24.704  -7.526  0.00  0.00    -0.346 OA
HETATM   46  H   UNK N   1      31.006  24.901  -8.115  0.00  0.00     0.219 HD
ENDBRANCH  31  45
ENDBRANCH   5  30
TORSDOF 13
ENDMDL
MODEL 8
REMARK VINA RESULT:      -6.9     11.059     15.327
REMARK  13 active torsions:
REMARK  status: ('A' for Active; 'I' for Inactive)
REMARK    1  A    between atoms: C_19  and  C_4 
REMARK    2  A    between atoms: C_24  and  C_19 
REMARK    3  A    between atoms: C_30  and  C_20 
REMARK    4  A    between atoms: C_32  and  C_21 
REMARK    5  A    between atoms: C_31  and  C_22 
REMARK    6  A    between atoms: O_41  and  C_23 
REMARK    7  A    between atoms: C_30  and  C_25 
REMARK    8  A    between atoms: C_26  and  N_34 
REMARK    9  A    between atoms: O_36  and  C_27 
REMARK   10  A    between atoms: O_37  and  C_28 
REMARK   11  A    between atoms: C_29  and  O_42 
REMARK   12  A    between atoms: C_31  and  O_39 
REMARK   13  A    between atoms: O_42  and  C_32 
ROOT
HETATM    1  C   UNK N   1      36.606   9.379   9.989  0.00  0.00     0.022 C 
HETATM    2  C   UNK N   1      35.958  10.729  10.227  0.00  0.00     0.036 C 
HETATM    3  C   UNK N   1      35.578   8.303  10.313  0.00  0.00     0.114 C 
HETATM    4  C   UNK N   1      34.916   9.173  12.466  0.00  0.00     0.141 C 
HETATM    5  C   UNK N   1      36.015  10.191  12.788  0.00  0.00     0.130 C 
HETATM    6  C   UNK N   1      36.177  11.268  11.643  0.00  0.00     0.156 C 
HETATM    7  N   UNK N   1      35.503   8.036  11.748  0.00  0.00    -0.419 N 
HETATM    8  H   UNK N   1      35.816   7.173  12.191  0.00  0.00     0.153 HD
ENDROOT
BRANCH   6   9
HETATM    9  O   UNK N   1      35.354  12.383  11.808  0.00  0.00    -0.310 OA
BRANCH   9  10
HETATM   10  C   UNK N   1      35.826  13.638  11.567  0.00  0.00     0.293 C 
HETATM   11  O   UNK N   1      37.032  13.842  11.544  0.00  0.00    -0.259 OA
BRANCH  10  12
HETATM   12  C   UNK N   1      34.981  14.769  11.214  0.00  0.00     0.039 C 
HETATM   13  C   UNK N   1      35.627  16.004  11.159  0.00  0.00     0.018 C 
HETATM   14  C   UNK N   1      35.260  16.954  10.226  0.00  0.00     0.016 C 
HETATM   15  C   UNK N   1      34.299  16.669   9.267  0.00  0.00     0.015 C 
HETATM   16  C   UNK N   1      33.558  15.477   9.389  0.00  0.00     0.016 C 
HETATM   17  C   UNK N   1      33.913  14.520  10.347  0.00  0.00     0.018 C 
BRANCH  15  18
HETATM   18  C   UNK N   1      34.101  17.536   8.071  0.00  0.00     0.195 C 
HETATM   19  O   UNK N   1      34.847  18.500   7.963  0.00  0.00    -0.287 OA
BRANCH  18  20
HETATM   20  C   UNK N   1      33.017  17.380   7.016  0.00  0.00     0.051 A 
HETATM   21  C   UNK N   1      33.479  17.211   5.699  0.00  0.00     0.055 A 
HETATM   22  C   UNK N   1      32.605  17.075   4.612  0.00  0.00     0.069 A 
HETATM   23  C   UNK N   1      31.233  17.096   4.831  0.00  0.00     0.039 A 
HETATM   24  C   UNK N   1      30.737  17.290   6.113  0.00  0.00     0.040 A 
HETATM   25  C   UNK N   1      31.597  17.449   7.203  0.00  0.00     0.080 A 
BRANCH  22  26
HETATM   26  O   UNK N   1      33.065  16.934   3.347  0.00  0.00    -0.356 OA
HETATM   27  C   UNK N   1      33.538  15.741   2.850  0.00  0.00     0.210 C 
ENDBRANCH  22  26
BRANCH  25  28
HETATM   28  O   UNK N   1      31.028  17.717   8.382  0.00  0.00    -0.360 OA
HETATM   29  H   UNK N   1      31.164  18.548   8.793  0.00  0.00     0.217 HD
ENDBRANCH  25  28
ENDBRANCH  18  20
ENDBRANCH  15  18
ENDBRANCH  10  12
ENDBRANCH   9  10
ENDBRANCH   6   9
BRANCH   5  30
HETATM   30  N   UNK N   1      35.772  10.844  14.063  0.00  0.00    -0.362 N 
HETATM   31  C   UNK N   1      36.182  10.477  15.237  0.00  0.00     0.146 C 
ATOM     32  HN  UNK N   1      35.212  11.697  14.031  1.00  0.00     0.162 HD
BRANCH  31  33
HETATM   33  C   UNK N   1      35.840  11.326  16.409  0.00  0.00     0.015 A 
HETATM   34  C   UNK N   1      35.533  12.676  16.225  0.00  0.00     0.018 A 
HETATM   35  C   UNK N   1      35.214  13.490  17.308  0.00  0.00     0.038 A 
HETATM   36  C   UNK N   1      35.190  12.974  18.602  0.00  0.00     0.072 A 
HETATM   37  C   UNK N   1      35.502  11.605  18.825  0.00  0.00    -0.020 A 
HETATM   38  C   UNK N   1      35.823  10.798  17.709  0.00  0.00     0.026 A 
BRANCH  36  39
HETATM   39  O   UNK N   1      34.849  13.799  19.603  0.00  0.00    -0.360 OA
HETATM   40  H   UNK N   1      34.683  13.457  20.460  0.00  0.00     0.217 HD
ENDBRANCH  36  39
BRANCH  37  41
HETATM   41  C   UNK N   1      35.480  10.926  20.195  0.00  0.00     0.017 C 
HETATM   42  C   UNK N   1      34.556   9.713  20.173  0.00  0.00     0.015 C 
BRANCH  41  43
HETATM   43  C   UNK N   1      36.828  10.525  20.813  0.00  0.00     0.004 C 
HETATM   44  C   UNK N   1      37.151   9.041  20.663  0.00  0.00     0.006 C 
ENDBRANCH  41  43
ENDBRANCH  37  41
ENDBRANCH  31  33
BRANCH  31  45
HETATM   45  O   UNK N   1      36.896   9.347  15.394  0.00  0.00    -0.346 OA
HETATM   46  H   UNK N   1      36.990   8.748  14.679  0.00  0.00     0.219 HD
ENDBRANCH  31  45
ENDBRANCH   5  30
TORSDOF 13
ENDMDL
MODEL 9
REMARK VINA RESULT:      -6.8     13.441     16.730
REMARK  13 active torsions:
REMARK  status: ('A' for Active; 'I' for Inactive)
REMARK    1  A    between atoms: C_19  and  C_4 
REMARK    2  A    between atoms: C_24  and  C_19 
REMARK    3  A    between atoms: C_30  and  C_20 
REMARK    4  A    between atoms: C_32  and  C_21 
REMARK    5  A    between atoms: C_31  and  C_22 
REMARK    6  A    between atoms: O_41  and  C_23 
REMARK    7  A    between atoms: C_30  and  C_25 
REMARK    8  A    between atoms: C_26  and  N_34 
REMARK    9  A    between atoms: O_36  and  C_27 
REMARK   10  A    between atoms: O_37  and  C_28 
REMARK   11  A    between atoms: C_29  and  O_42 
REMARK   12  A    between atoms: C_31  and  O_39 
REMARK   13  A    between atoms: O_42  and  C_32 
ROOT
HETATM    1  C   UNK N   1      25.574  24.545  -8.911  0.00  0.00     0.022 C 
HETATM    2  C   UNK N   1      25.991  25.626  -7.934  0.00  0.00     0.036 C 
HETATM    3  C   UNK N   1      25.390  23.252  -8.127  0.00  0.00     0.114 C 
HETATM    4  C   UNK N   1      27.494  23.328  -6.945  0.00  0.00     0.141 C 
HETATM    5  C   UNK N   1      28.289  24.393  -7.707  0.00  0.00     0.130 C 
HETATM    6  C   UNK N   1      27.509  25.765  -7.792  0.00  0.00     0.156 C 
HETATM    7  N   UNK N   1      26.663  22.573  -7.890  0.00  0.00    -0.419 N 
HETATM    8  H   UNK N   1      26.936  21.692  -8.323  0.00  0.00     0.153 HD
ENDROOT
BRANCH   6   9
HETATM    9  O   UNK N   1      27.761  26.615  -6.714  0.00  0.00    -0.310 OA
BRANCH   9  10
HETATM   10  C   UNK N   1      27.083  26.472  -5.541  0.00  0.00     0.293 C 
HETATM   11  O   UNK N   1      25.870  26.632  -5.515  0.00  0.00    -0.259 OA
BRANCH  10  12
HETATM   12  C   UNK N   1      27.694  26.021  -4.300  0.00  0.00     0.039 C 
HETATM   13  C   UNK N   1      27.132  24.875  -3.739  0.00  0.00     0.018 C 
HETATM   14  C   UNK N   1      27.919  23.949  -3.082  0.00  0.00     0.016 C 
HETATM   15  C   UNK N   1      29.297  24.095  -3.040  0.00  0.00     0.015 C 
HETATM   16  C   UNK N   1      29.861  25.304  -3.496  0.00  0.00     0.016 C 
HETATM   17  C   UNK N   1      29.064  26.255  -4.143  0.00  0.00     0.018 C 
BRANCH  15  18
HETATM   18  C   UNK N   1      30.194  22.981  -2.622  0.00  0.00     0.195 C 
HETATM   19  O   UNK N   1      30.478  22.923  -1.433  0.00  0.00    -0.287 OA
BRANCH  18  20
HETATM   20  C   UNK N   1      30.846  21.958  -3.539  0.00  0.00     0.051 A 
HETATM   21  C   UNK N   1      30.167  21.709  -4.744  0.00  0.00     0.055 A 
HETATM   22  C   UNK N   1      30.630  20.778  -5.683  0.00  0.00     0.069 A 
HETATM   23  C   UNK N   1      31.804  20.078  -5.432  0.00  0.00     0.039 A 
HETATM   24  C   UNK N   1      32.488  20.274  -4.240  0.00  0.00     0.040 A 
HETATM   25  C   UNK N   1      32.026  21.182  -3.285  0.00  0.00     0.080 A 
BRANCH  22  26
HETATM   26  O   UNK N   1      29.953  20.534  -6.830  0.00  0.00    -0.356 OA
HETATM   27  C   UNK N   1      30.013  19.330  -7.493  0.00  0.00     0.210 C 
ENDBRANCH  22  26
BRANCH  25  28
HETATM   28  O   UNK N   1      32.704  21.239  -2.133  0.00  0.00    -0.360 OA
HETATM   29  H   UNK N   1      32.740  20.489  -1.571  0.00  0.00     0.217 HD
ENDBRANCH  25  28
ENDBRANCH  18  20
ENDBRANCH  15  18
ENDBRANCH  10  12
ENDBRANCH   9  10
ENDBRANCH   6   9
BRANCH   5  30
HETATM   30  N   UNK N   1      29.601  24.596  -7.118  0.00  0.00    -0.362 N 
HETATM   31  C   UNK N   1      30.715  24.013  -7.435  0.00  0.00     0.146 C 
ATOM     32  HN  UNK N   1      29.653  25.281  -6.363  1.00  0.00     0.162 HD
BRANCH  31  33
HETATM   33  C   UNK N   1      31.955  24.406  -6.714  0.00  0.00     0.015 A 
HETATM   34  C   UNK N   1      32.988  23.481  -6.549  0.00  0.00     0.018 A 
HETATM   35  C   UNK N   1      34.155  23.825  -5.875  0.00  0.00     0.038 A 
HETATM   36  C   UNK N   1      34.322  25.105  -5.351  0.00  0.00     0.072 A 
HETATM   37  C   UNK N   1      33.288  26.071  -5.497  0.00  0.00    -0.020 A 
HETATM   38  C   UNK N   1      32.111  25.697  -6.186  0.00  0.00     0.026 A 
BRANCH  36  39
HETATM   39  O   UNK N   1      35.480  25.389  -4.735  0.00  0.00    -0.360 OA
HETATM   40  H   UNK N   1      36.058  24.697  -4.478  0.00  0.00     0.217 HD
ENDBRANCH  36  39
BRANCH  37  41
HETATM   41  C   UNK N   1      33.373  27.510  -4.988  0.00  0.00     0.017 C 
HETATM   42  C   UNK N   1      34.136  28.381  -5.981  0.00  0.00     0.015 C 
BRANCH  41  43
HETATM   43  C   UNK N   1      32.059  28.210  -4.608  0.00  0.00     0.004 C 
HETATM   44  C   UNK N   1      31.631  29.287  -5.600  0.00  0.00     0.006 C 
ENDBRANCH  41  43
ENDBRANCH  37  41
ENDBRANCH  31  33
BRANCH  31  45
HETATM   45  O   UNK N   1      30.749  23.067  -8.391  0.00  0.00    -0.346 OA
HETATM   46  H   UNK N   1      30.051  23.003  -9.014  0.00  0.00     0.219 HD
ENDBRANCH  31  45
ENDBRANCH   5  30
TORSDOF 13
ENDMDL
