MODEL 1
REMARK VINA RESULT:      -8.1      0.000      0.000
REMARK  6 active torsions:
REMARK  status: ('A' for Active; 'I' for Inactive)
REMARK    1  A    between atoms: C_2  and  C_3 
REMARK    2  A    between atoms: C_3  and  N_4 
REMARK    3  A    between atoms: C_5  and  C_33 
REMARK    4  A    between atoms: C_8  and  C_9 
REMARK    5  A    between atoms: C_17  and  C_18 
REMARK       I    between atoms: C_23  and  N_24 
REMARK    6  A    between atoms: N_24  and  C_25 
ROOT
HETATM    1  N   UNK N   1      21.826  15.901   6.734  0.00  0.00    -0.333 N 
HETATM    2  C   UNK N   1      22.301  14.783   7.345  0.00  0.00     0.088 A 
HETATM    3  N   UNK N   1      23.558  14.495   6.949  0.00  0.00    -0.343 N 
ATOM      4  HN  UNK N   1      24.132  13.710   7.258  1.00  0.00     0.167 HD
HETATM    5  C   UNK N   1      23.905  15.451   6.060  0.00  0.00     0.073 A 
HETATM    6  C   UNK N   1      22.821  16.347   5.925  0.00  0.00     0.091 A 
ENDROOT
BRANCH   6   7
HETATM    7  C   UNK N   1      22.670  17.521   4.996  0.00  0.00     0.079 A 
HETATM    8  C   UNK N   1      21.448  17.775   4.380  0.00  0.00     0.050 A 
HETATM    9  C   UNK N   1      21.316  18.845   3.514  0.00  0.00     0.108 A 
HETATM   10  N   UNK N   1      22.379  19.643   3.273  0.00  0.00    -0.202 N 
HETATM   11  C   UNK N   1      23.573  19.426   3.881  0.00  0.00     0.678 A 
ATOM     12  HN  UNK N   1      22.283  20.422   2.622  1.00  0.00     0.183 HD
HETATM   13  N   UNK N   1      24.642  20.315   3.578  0.00  0.00    -0.221 N 
HETATM   14  N   UNK N   1      23.712  18.376   4.752  0.00  0.00    -0.190 N 
HETATM   15  H   UNK N   1      24.435  21.002   2.903  0.00  0.00     0.178 HD
ATOM     16  HN  UNK N   1      24.604  18.229   5.225  1.00  0.00     0.184 HD
BRANCH  13  17
HETATM   17  C   UNK N   1      25.988  20.365   4.111  0.00  0.00     0.099 C 
HETATM   18  C   UNK N   1      25.904  20.753   5.586  0.00  0.00     0.026 C 
HETATM   19  C   UNK N   1      27.295  20.894   6.191  0.00  0.00     0.002 C 
HETATM   20  C   UNK N   1      28.071  19.594   6.022  0.00  0.00     0.000 C 
HETATM   21  C   UNK N   1      28.187  19.253   4.540  0.00  0.00     0.002 C 
HETATM   22  C   UNK N   1      26.797  19.085   3.933  0.00  0.00     0.026 C 
ENDBRANCH  13  17
ENDBRANCH   6   7
BRANCH   5  23
HETATM   23  C   UNK N   1      25.222  15.386   5.351  0.00  0.00    -0.005 A 
HETATM   24  C   UNK N   1      25.238  15.148   3.967  0.00  0.00     0.015 A 
HETATM   25  C   UNK N   1      26.435  15.217   3.245  0.00  0.00     0.026 A 
HETATM   26  C   UNK N   1      27.636  15.519   3.896  0.00  0.00     0.055 A 
HETATM   27 Cl   UNK N   1      29.112  15.665   2.956  0.00  0.00    -0.083 Cl
HETATM   28  C   UNK N   1      27.638  15.711   5.285  0.00  0.00     0.056 A 
HETATM   29 Cl   UNK N   1      29.113  16.093   6.158  0.00  0.00    -0.083 Cl
HETATM   30  C   UNK N   1      26.438  15.638   5.992  0.00  0.00     0.039 A 
ENDBRANCH   5  23
BRANCH   1  31
HETATM   31  C   UNK N   1      20.463  16.426   6.782  0.00  0.00     0.130 C 
BRANCH  31  32
HETATM   32  C   UNK N   1      20.215  17.277   8.008  0.00  0.00     0.016 C 
HETATM   33  C   UNK N   1      19.109  16.633   8.820  0.00  0.00     0.006 C 
ENDBRANCH  31  32
ENDBRANCH   1  31
BRANCH   2  34
HETATM   34  C   UNK N   1      21.492  13.808   8.195  0.00  0.00     0.057 C 
HETATM   35  C   UNK N   1      21.678  13.850   9.712  0.00  0.00     0.031 C 
HETATM   36  C   UNK N   1      22.930  13.092  10.136  0.00  0.00     0.114 C 
HETATM   37  N   UNK N   1      22.833  11.702   9.700  0.00  0.00    -0.421 N 
HETATM   38  C   UNK N   1      22.838  11.680   8.238  0.00  0.00     0.114 C 
HETATM   39  H   UNK N   1      22.771  10.886  10.311  0.00  0.00     0.153 HD
HETATM   40  C   UNK N   1      21.575  12.359   7.697  0.00  0.00     0.031 C 
ENDBRANCH   2  34
TORSDOF 6
ENDMDL
MODEL 2
REMARK VINA RESULT:      -7.7      2.893      8.089
REMARK  6 active torsions:
REMARK  status: ('A' for Active; 'I' for Inactive)
REMARK    1  A    between atoms: C_2  and  C_3 
REMARK    2  A    between atoms: C_3  and  N_4 
REMARK    3  A    between atoms: C_5  and  C_33 
REMARK    4  A    between atoms: C_8  and  C_9 
REMARK    5  A    between atoms: C_17  and  C_18 
REMARK       I    between atoms: C_23  and  N_24 
REMARK    6  A    between atoms: N_24  and  C_25 
ROOT
HETATM    1  N   UNK N   1      26.439  16.252   5.587  0.00  0.00    -0.333 N 
HETATM    2  C   UNK N   1      26.512  17.606   5.470  0.00  0.00     0.088 A 
HETATM    3  N   UNK N   1      25.334  18.136   5.084  0.00  0.00    -0.343 N 
ATOM      4  HN  UNK N   1      25.131  19.124   4.925  1.00  0.00     0.167 HD
HETATM    5  C   UNK N   1      24.476  17.102   4.949  0.00  0.00     0.073 A 
HETATM    6  C   UNK N   1      25.163  15.911   5.273  0.00  0.00     0.091 A 
ENDROOT
BRANCH   6   7
HETATM    7  C   UNK N   1      24.683  14.486   5.192  0.00  0.00     0.079 A 
HETATM    8  C   UNK N   1      24.849  13.756   4.019  0.00  0.00     0.050 A 
HETATM    9  C   UNK N   1      24.394  12.452   3.941  0.00  0.00     0.108 A 
HETATM   10  N   UNK N   1      23.789  11.893   5.012  0.00  0.00    -0.202 N 
HETATM   11  C   UNK N   1      23.636  12.580   6.173  0.00  0.00     0.678 A 
ATOM     12  HN  UNK N   1      23.440  10.937   4.946  1.00  0.00     0.183 HD
HETATM   13  N   UNK N   1      22.994  11.918   7.255  0.00  0.00    -0.221 N 
HETATM   14  N   UNK N   1      24.097  13.869   6.265  0.00  0.00    -0.190 N 
HETATM   15  H   UNK N   1      22.665  11.012   7.054  0.00  0.00     0.178 HD
ATOM     16  HN  UNK N   1      24.002  14.375   7.145  1.00  0.00     0.184 HD
BRANCH  13  17
HETATM   17  C   UNK N   1      22.750  12.373   8.609  0.00  0.00     0.099 C 
HETATM   18  C   UNK N   1      21.292  12.817   8.708  0.00  0.00     0.026 C 
HETATM   19  C   UNK N   1      20.987  13.377  10.092  0.00  0.00     0.002 C 
HETATM   20  C   UNK N   1      21.304  12.334  11.157  0.00  0.00     0.000 C 
HETATM   21  C   UNK N   1      22.775  11.943  11.073  0.00  0.00     0.002 C 
HETATM   22  C   UNK N   1      23.082  11.358   9.697  0.00  0.00     0.026 C 
ENDBRANCH  13  17
ENDBRANCH   6   7
BRANCH   5  23
HETATM   23  C   UNK N   1      23.085  17.330   4.446  0.00  0.00    -0.005 A 
HETATM   24  C   UNK N   1      22.351  18.418   4.945  0.00  0.00     0.015 A 
HETATM   25  C   UNK N   1      21.103  18.747   4.403  0.00  0.00     0.026 A 
HETATM   26  C   UNK N   1      20.567  17.990   3.356  0.00  0.00     0.055 A 
HETATM   27 Cl   UNK N   1      19.032  18.465   2.649  0.00  0.00    -0.083 Cl
HETATM   28  C   UNK N   1      21.270  16.873   2.882  0.00  0.00     0.056 A 
HETATM   29 Cl   UNK N   1      20.649  15.884   1.571  0.00  0.00    -0.083 Cl
HETATM   30  C   UNK N   1      22.511  16.556   3.433  0.00  0.00     0.039 A 
ENDBRANCH   5  23
BRANCH   1  31
HETATM   31  C   UNK N   1      27.541  15.322   5.819  0.00  0.00     0.130 C 
BRANCH  31  32
HETATM   32  C   UNK N   1      28.330  15.036   4.560  0.00  0.00     0.016 C 
HETATM   33  C   UNK N   1      29.787  15.353   4.828  0.00  0.00     0.006 C 
ENDBRANCH  31  32
ENDBRANCH   1  31
BRANCH   2  34
HETATM   34  C   UNK N   1      27.784  18.446   5.525  0.00  0.00     0.057 C 
HETATM   35  C   UNK N   1      28.225  18.997   6.881  0.00  0.00     0.031 C 
HETATM   36  C   UNK N   1      27.445  20.255   7.246  0.00  0.00     0.114 C 
HETATM   37  N   UNK N   1      27.651  21.274   6.221  0.00  0.00    -0.421 N 
HETATM   38  C   UNK N   1      27.058  20.794   4.974  0.00  0.00     0.114 C 
HETATM   39  H   UNK N   1      28.128  22.167   6.353  0.00  0.00     0.153 HD
HETATM   40  C   UNK N   1      27.817  19.561   4.471  0.00  0.00     0.031 C 
ENDBRANCH   2  34
TORSDOF 6
ENDMDL
MODEL 3
REMARK VINA RESULT:      -7.6      3.015      6.972
REMARK  6 active torsions:
REMARK  status: ('A' for Active; 'I' for Inactive)
REMARK    1  A    between atoms: C_2  and  C_3 
REMARK    2  A    between atoms: C_3  and  N_4 
REMARK    3  A    between atoms: C_5  and  C_33 
REMARK    4  A    between atoms: C_8  and  C_9 
REMARK    5  A    between atoms: C_17  and  C_18 
REMARK       I    between atoms: C_23  and  N_24 
REMARK    6  A    between atoms: N_24  and  C_25 
ROOT
HETATM    1  N   UNK N   1      27.557  17.979   4.984  0.00  0.00    -0.333 N 
HETATM    2  C   UNK N   1      28.711  17.326   4.681  0.00  0.00     0.088 A 
HETATM    3  N   UNK N   1      28.486  16.268   3.874  0.00  0.00    -0.343 N 
ATOM      4  HN  UNK N   1      29.184  15.620   3.507  1.00  0.00     0.167 HD
HETATM    5  C   UNK N   1      27.155  16.238   3.648  0.00  0.00     0.073 A 
HETATM    6  C   UNK N   1      26.563  17.319   4.338  0.00  0.00     0.091 A 
ENDROOT
BRANCH   6   7
HETATM    7  C   UNK N   1      25.106  17.669   4.483  0.00  0.00     0.079 A 
HETATM    8  C   UNK N   1      24.565  18.731   3.762  0.00  0.00     0.050 A 
HETATM    9  C   UNK N   1      23.230  19.061   3.909  0.00  0.00     0.108 A 
HETATM   10  N   UNK N   1      22.456  18.346   4.753  0.00  0.00    -0.202 N 
HETATM   11  C   UNK N   1      22.958  17.293   5.449  0.00  0.00     0.678 A 
ATOM     12  HN  UNK N   1      21.475  18.601   4.871  1.00  0.00     0.183 HD
HETATM   13  N   UNK N   1      22.075  16.588   6.313  0.00  0.00    -0.221 N 
HETATM   14  N   UNK N   1      24.277  16.948   5.300  0.00  0.00    -0.190 N 
HETATM   15  H   UNK N   1      21.164  16.958   6.371  0.00  0.00     0.178 HD
ATOM     16  HN  UNK N   1      24.646  16.143   5.806  1.00  0.00     0.184 HD
BRANCH  13  17
HETATM   17  C   UNK N   1      22.311  15.408   7.120  0.00  0.00     0.099 C 
HETATM   18  C   UNK N   1      21.244  15.356   8.212  0.00  0.00     0.026 C 
HETATM   19  C   UNK N   1      21.480  14.174   9.145  0.00  0.00     0.002 C 
HETATM   20  C   UNK N   1      21.494  12.876   8.347  0.00  0.00     0.000 C 
HETATM   21  C   UNK N   1      22.599  12.931   7.297  0.00  0.00     0.002 C 
HETATM   22  C   UNK N   1      22.357  14.098   6.344  0.00  0.00     0.026 C 
ENDBRANCH  13  17
ENDBRANCH   6   7
BRANCH   5  23
HETATM   23  C   UNK N   1      26.545  15.128   2.850  0.00  0.00    -0.005 A 
HETATM   24  C   UNK N   1      27.187  13.879   2.822  0.00  0.00     0.015 A 
HETATM   25  C   UNK N   1      26.581  12.779   2.204  0.00  0.00     0.026 A 
HETATM   26  C   UNK N   1      25.328  12.912   1.598  0.00  0.00     0.055 A 
HETATM   27 Cl   UNK N   1      24.561  11.500   0.888  0.00  0.00    -0.083 Cl
HETATM   28  C   UNK N   1      24.701  14.165   1.578  0.00  0.00     0.056 A 
HETATM   29 Cl   UNK N   1      23.127  14.395   0.833  0.00  0.00    -0.083 Cl
HETATM   30  C   UNK N   1      25.316  15.253   2.197  0.00  0.00     0.039 A 
ENDBRANCH   5  23
BRANCH   1  31
HETATM   31  C   UNK N   1      27.379  19.058   5.953  0.00  0.00     0.130 C 
BRANCH  31  32
HETATM   32  C   UNK N   1      27.585  20.426   5.338  0.00  0.00     0.016 C 
HETATM   33  C   UNK N   1      27.078  21.469   6.313  0.00  0.00     0.006 C 
ENDBRANCH  31  32
ENDBRANCH   1  31
BRANCH   2  34
HETATM   34  C   UNK N   1      30.075  17.562   5.321  0.00  0.00     0.057 C 
HETATM   35  C   UNK N   1      31.310  17.521   4.420  0.00  0.00     0.031 C 
HETATM   36  C   UNK N   1      31.748  16.087   4.150  0.00  0.00     0.114 C 
HETATM   37  N   UNK N   1      32.050  15.420   5.413  0.00  0.00    -0.421 N 
HETATM   38  C   UNK N   1      30.810  15.311   6.180  0.00  0.00     0.114 C 
HETATM   39  H   UNK N   1      32.969  15.087   5.709  0.00  0.00     0.153 HD
HETATM   40  C   UNK N   1      30.311  16.706   6.573  0.00  0.00     0.031 C 
ENDBRANCH   2  34
TORSDOF 6
ENDMDL
MODEL 4
REMARK VINA RESULT:      -7.6      2.145      6.892
REMARK  6 active torsions:
REMARK  status: ('A' for Active; 'I' for Inactive)
REMARK    1  A    between atoms: C_2  and  C_3 
REMARK    2  A    between atoms: C_3  and  N_4 
REMARK    3  A    between atoms: C_5  and  C_33 
REMARK    4  A    between atoms: C_8  and  C_9 
REMARK    5  A    between atoms: C_17  and  C_18 
REMARK       I    between atoms: C_23  and  N_24 
REMARK    6  A    between atoms: N_24  and  C_25 
ROOT
HETATM    1  N   UNK N   1      21.897  15.875   3.895  0.00  0.00    -0.333 N 
HETATM    2  C   UNK N   1      21.961  17.218   3.689  0.00  0.00     0.088 A 
HETATM    3  N   UNK N   1      23.229  17.673   3.765  0.00  0.00    -0.343 N 
ATOM      4  HN  UNK N   1      23.540  18.638   3.649  1.00  0.00     0.167 HD
HETATM    5  C   UNK N   1      24.004  16.598   4.025  0.00  0.00     0.073 A 
HETATM    6  C   UNK N   1      23.173  15.459   4.100  0.00  0.00     0.091 A 
ENDROOT
BRANCH   6   7
HETATM    7  C   UNK N   1      23.534  14.042   4.456  0.00  0.00     0.079 A 
HETATM    8  C   UNK N   1      24.086  13.197   3.498  0.00  0.00     0.050 A 
HETATM    9  C   UNK N   1      24.402  11.890   3.824  0.00  0.00     0.108 A 
HETATM   10  N   UNK N   1      24.174  11.442   5.077  0.00  0.00    -0.202 N 
HETATM   11  C   UNK N   1      23.657  12.255   6.032  0.00  0.00     0.678 A 
ATOM     12  HN  UNK N   1      24.394  10.473   5.310  1.00  0.00     0.183 HD
HETATM   13  N   UNK N   1      23.452  11.708   7.329  0.00  0.00    -0.221 N 
HETATM   14  N   UNK N   1      23.352  13.557   5.724  0.00  0.00    -0.190 N 
HETATM   15  H   UNK N   1      23.664  10.751   7.416  0.00  0.00     0.178 HD
ATOM     16  HN  UNK N   1      22.985  14.173   6.450  1.00  0.00     0.184 HD
BRANCH  13  17
HETATM   17  C   UNK N   1      22.978  12.345   8.542  0.00  0.00     0.099 C 
HETATM   18  C   UNK N   1      21.511  12.722   8.342  0.00  0.00     0.026 C 
HETATM   19  C   UNK N   1      20.971  13.463   9.558  0.00  0.00     0.002 C 
HETATM   20  C   UNK N   1      21.139  12.607  10.807  0.00  0.00     0.000 C 
HETATM   21  C   UNK N   1      22.615  12.286  11.015  0.00  0.00     0.002 C 
HETATM   22  C   UNK N   1      23.158  11.520   9.811  0.00  0.00     0.026 C 
ENDBRANCH  13  17
ENDBRANCH   6   7
BRANCH   5  23
HETATM   23  C   UNK N   1      25.474  16.761   4.257  0.00  0.00    -0.005 A 
HETATM   24  C   UNK N   1      26.373  16.256   3.304  0.00  0.00     0.015 A 
HETATM   25  C   UNK N   1      27.746  16.507   3.413  0.00  0.00     0.026 A 
HETATM   26  C   UNK N   1      28.242  17.262   4.481  0.00  0.00     0.055 A 
HETATM   27 Cl   UNK N   1      29.959  17.619   4.557  0.00  0.00    -0.083 Cl
HETATM   28  C   UNK N   1      27.359  17.731   5.463  0.00  0.00     0.056 A 
HETATM   29 Cl   UNK N   1      27.921  18.685   6.826  0.00  0.00    -0.083 Cl
HETATM   30  C   UNK N   1      25.994  17.472   5.342  0.00  0.00     0.039 A 
ENDBRANCH   5  23
BRANCH   1  31
HETATM   31  C   UNK N   1      20.695  15.059   4.053  0.00  0.00     0.130 C 
BRANCH  31  32
HETATM   32  C   UNK N   1      20.106  15.163   5.443  0.00  0.00     0.016 C 
HETATM   33  C   UNK N   1      18.692  15.694   5.323  0.00  0.00     0.006 C 
ENDBRANCH  31  32
ENDBRANCH   1  31
BRANCH   2  34
HETATM   34  C   UNK N   1      20.776  18.175   3.611  0.00  0.00     0.057 C 
HETATM   35  C   UNK N   1      19.791  18.008   2.453  0.00  0.00     0.031 C 
HETATM   36  C   UNK N   1      20.323  18.653   1.179  0.00  0.00     0.114 C 
HETATM   37  N   UNK N   1      20.558  20.075   1.410  0.00  0.00    -0.421 N 
HETATM   38  C   UNK N   1      21.633  20.205   2.393  0.00  0.00     0.114 C 
HETATM   39  H   UNK N   1      20.058  20.845   0.963  0.00  0.00     0.153 HD
HETATM   40  C   UNK N   1      21.179  19.649   3.746  0.00  0.00     0.031 C 
ENDBRANCH   2  34
TORSDOF 6
ENDMDL
MODEL 5
REMARK VINA RESULT:      -7.5      3.058      6.722
REMARK  6 active torsions:
REMARK  status: ('A' for Active; 'I' for Inactive)
REMARK    1  A    between atoms: C_2  and  C_3 
REMARK    2  A    between atoms: C_3  and  N_4 
REMARK    3  A    between atoms: C_5  and  C_33 
REMARK    4  A    between atoms: C_8  and  C_9 
REMARK    5  A    between atoms: C_17  and  C_18 
REMARK       I    between atoms: C_23  and  N_24 
REMARK    6  A    between atoms: N_24  and  C_25 
ROOT
HETATM    1  N   UNK N   1      27.811  18.459   4.467  0.00  0.00    -0.333 N 
HETATM    2  C   UNK N   1      28.679  17.439   4.707  0.00  0.00     0.088 A 
HETATM    3  N   UNK N   1      28.138  16.243   4.396  0.00  0.00    -0.343 N 
ATOM      4  HN  UNK N   1      28.584  15.329   4.486  1.00  0.00     0.167 HD
HETATM    5  C   UNK N   1      26.891  16.494   3.943  0.00  0.00     0.073 A 
HETATM    6  C   UNK N   1      26.680  17.890   3.977  0.00  0.00     0.091 A 
ENDROOT
BRANCH   6   7
HETATM    7  C   UNK N   1      25.430  18.669   3.665  0.00  0.00     0.079 A 
HETATM    8  C   UNK N   1      25.503  19.844   2.921  0.00  0.00     0.050 A 
HETATM    9  C   UNK N   1      24.356  20.566   2.650  0.00  0.00     0.108 A 
HETATM   10  N   UNK N   1      23.165  20.123   3.109  0.00  0.00    -0.202 N 
HETATM   11  C   UNK N   1      23.069  18.969   3.817  0.00  0.00     0.678 A 
ATOM     12  HN  UNK N   1      22.322  20.667   2.920  1.00  0.00     0.183 HD
HETATM   13  N   UNK N   1      21.778  18.569   4.259  0.00  0.00    -0.221 N 
HETATM   14  N   UNK N   1      24.199  18.237   4.080  0.00  0.00    -0.190 N 
HETATM   15  H   UNK N   1      21.051  19.199   4.050  0.00  0.00     0.178 HD
ATOM     16  HN  UNK N   1      24.120  17.359   4.592  1.00  0.00     0.184 HD
BRANCH  13  17
HETATM   17  C   UNK N   1      21.368  17.375   4.971  0.00  0.00     0.099 C 
HETATM   18  C   UNK N   1      21.637  16.168   4.073  0.00  0.00     0.026 C 
HETATM   19  C   UNK N   1      21.159  14.882   4.736  0.00  0.00     0.002 C 
HETATM   20  C   UNK N   1      21.842  14.708   6.087  0.00  0.00     0.000 C 
HETATM   21  C   UNK N   1      21.519  15.898   6.983  0.00  0.00     0.002 C 
HETATM   22  C   UNK N   1      22.017  17.189   6.338  0.00  0.00     0.026 C 
ENDBRANCH  13  17
ENDBRANCH   6   7
BRANCH   5  23
HETATM   23  C   UNK N   1      25.972  15.368   3.586  0.00  0.00    -0.005 A 
HETATM   24  C   UNK N   1      25.588  14.461   4.587  0.00  0.00     0.015 A 
HETATM   25  C   UNK N   1      24.624  13.479   4.329  0.00  0.00     0.026 A 
HETATM   26  C   UNK N   1      24.034  13.385   3.064  0.00  0.00     0.055 A 
HETATM   27 Cl   UNK N   1      22.780  12.187   2.787  0.00  0.00    -0.083 Cl
HETATM   28  C   UNK N   1      24.445  14.255   2.045  0.00  0.00     0.056 A 
HETATM   29 Cl   UNK N   1      23.741  14.186   0.437  0.00  0.00    -0.083 Cl
HETATM   30  C   UNK N   1      25.406  15.228   2.316  0.00  0.00     0.039 A 
ENDBRANCH   5  23
BRANCH   1  31
HETATM   31  C   UNK N   1      27.974  19.864   4.830  0.00  0.00     0.130 C 
BRANCH  31  32
HETATM   32  C   UNK N   1      27.447  20.167   6.216  0.00  0.00     0.016 C 
HETATM   33  C   UNK N   1      27.067  21.633   6.272  0.00  0.00     0.006 C 
ENDBRANCH  31  32
ENDBRANCH   1  31
BRANCH   2  34
HETATM   34  C   UNK N   1      30.010  17.544   5.445  0.00  0.00     0.057 C 
HETATM   35  C   UNK N   1      31.293  17.563   4.615  0.00  0.00     0.031 C 
HETATM   36  C   UNK N   1      31.701  16.156   4.195  0.00  0.00     0.114 C 
HETATM   37  N   UNK N   1      31.907  15.331   5.382  0.00  0.00    -0.421 N 
HETATM   38  C   UNK N   1      30.621  15.179   6.060  0.00  0.00     0.114 C 
HETATM   39  H   UNK N   1      32.795  14.929   5.685  0.00  0.00     0.153 HD
HETATM   40  C   UNK N   1      30.144  16.535   6.593  0.00  0.00     0.031 C 
ENDBRANCH   2  34
TORSDOF 6
ENDMDL
MODEL 6
REMARK VINA RESULT:      -7.5      3.035      6.832
REMARK  6 active torsions:
REMARK  status: ('A' for Active; 'I' for Inactive)
REMARK    1  A    between atoms: C_2  and  C_3 
REMARK    2  A    between atoms: C_3  and  N_4 
REMARK    3  A    between atoms: C_5  and  C_33 
REMARK    4  A    between atoms: C_8  and  C_9 
REMARK    5  A    between atoms: C_17  and  C_18 
REMARK       I    between atoms: C_23  and  N_24 
REMARK    6  A    between atoms: N_24  and  C_25 
ROOT
HETATM    1  N   UNK N   1      27.434  18.026   4.992  0.00  0.00    -0.333 N 
HETATM    2  C   UNK N   1      28.461  17.248   5.429  0.00  0.00     0.088 A 
HETATM    3  N   UNK N   1      28.026  16.047   5.861  0.00  0.00    -0.343 N 
ATOM      4  HN  UNK N   1      28.597  15.289   6.236  1.00  0.00     0.167 HD
HETATM    5  C   UNK N   1      26.685  16.046   5.699  0.00  0.00     0.073 A 
HETATM    6  C   UNK N   1      26.305  17.288   5.144  0.00  0.00     0.091 A 
ENDROOT
BRANCH   6   7
HETATM    7  C   UNK N   1      24.925  17.818   4.859  0.00  0.00     0.079 A 
HETATM    8  C   UNK N   1      24.708  18.665   3.776  0.00  0.00     0.050 A 
HETATM    9  C   UNK N   1      23.442  19.164   3.527  0.00  0.00     0.108 A 
HETATM   10  N   UNK N   1      22.419  18.822   4.339  0.00  0.00    -0.202 N 
HETATM   11  C   UNK N   1      22.604  17.980   5.388  0.00  0.00     0.678 A 
ATOM     12  HN  UNK N   1      21.490  19.204   4.162  1.00  0.00     0.183 HD
HETATM   13  N   UNK N   1      21.474  17.664   6.192  0.00  0.00    -0.221 N 
HETATM   14  N   UNK N   1      23.853  17.468   5.636  0.00  0.00    -0.190 N 
HETATM   15  H   UNK N   1      20.642  18.129   5.943  0.00  0.00     0.178 HD
ATOM     16  HN  UNK N   1      23.984  16.818   6.411  1.00  0.00     0.184 HD
BRANCH  13  17
HETATM   17  C   UNK N   1      21.360  16.764   7.321  0.00  0.00     0.099 C 
HETATM   18  C   UNK N   1      19.899  16.743   7.769  0.00  0.00     0.026 C 
HETATM   19  C   UNK N   1      19.723  15.867   9.004  0.00  0.00     0.002 C 
HETATM   20  C   UNK N   1      20.215  14.455   8.715  0.00  0.00     0.000 C 
HETATM   21  C   UNK N   1      21.688  14.494   8.319  0.00  0.00     0.002 C 
HETATM   22  C   UNK N   1      21.869  15.350   7.068  0.00  0.00     0.026 C 
ENDBRANCH  13  17
ENDBRANCH   6   7
BRANCH   5  23
HETATM   23  C   UNK N   1      25.865  14.883   6.162  0.00  0.00    -0.005 A 
HETATM   24  C   UNK N   1      25.342  13.996   5.207  0.00  0.00     0.015 A 
HETATM   25  C   UNK N   1      24.689  12.823   5.603  0.00  0.00     0.026 A 
HETATM   26  C   UNK N   1      24.542  12.522   6.961  0.00  0.00     0.055 A 
HETATM   27 Cl   UNK N   1      23.778  11.012   7.429  0.00  0.00    -0.083 Cl
HETATM   28  C   UNK N   1      25.018  13.423   7.923  0.00  0.00     0.056 A 
HETATM   29 Cl   UNK N   1      24.865  13.100   9.643  0.00  0.00    -0.083 Cl
HETATM   30  C   UNK N   1      25.666  14.589   7.514  0.00  0.00     0.039 A 
ENDBRANCH   5  23
BRANCH   1  31
HETATM   31  C   UNK N   1      27.490  19.435   4.610  0.00  0.00     0.130 C 
BRANCH  31  32
HETATM   32  C   UNK N   1      27.710  20.347   5.797  0.00  0.00     0.016 C 
HETATM   33  C   UNK N   1      26.469  21.195   5.984  0.00  0.00     0.006 C 
ENDBRANCH  31  32
ENDBRANCH   1  31
BRANCH   2  34
HETATM   34  C   UNK N   1      29.902  17.698   5.646  0.00  0.00     0.057 C 
HETATM   35  C   UNK N   1      30.901  17.488   4.507  0.00  0.00     0.031 C 
HETATM   36  C   UNK N   1      31.413  16.052   4.480  0.00  0.00     0.114 C 
HETATM   37  N   UNK N   1      32.057  15.737   5.752  0.00  0.00    -0.421 N 
HETATM   38  C   UNK N   1      31.038  15.769   6.800  0.00  0.00     0.114 C 
HETATM   39  H   UNK N   1      33.048  15.531   5.886  0.00  0.00     0.153 HD
HETATM   40  C   UNK N   1      30.500  17.195   6.967  0.00  0.00     0.031 C 
ENDBRANCH   2  34
TORSDOF 6
ENDMDL
MODEL 7
REMARK VINA RESULT:      -7.3      3.475      5.952
REMARK  6 active torsions:
REMARK  status: ('A' for Active; 'I' for Inactive)
REMARK    1  A    between atoms: C_2  and  C_3 
REMARK    2  A    between atoms: C_3  and  N_4 
REMARK    3  A    between atoms: C_5  and  C_33 
REMARK    4  A    between atoms: C_8  and  C_9 
REMARK    5  A    between atoms: C_17  and  C_18 
REMARK       I    between atoms: C_23  and  N_24 
REMARK    6  A    between atoms: N_24  and  C_25 
ROOT
HETATM    1  N   UNK N   1      24.902  15.727   3.112  0.00  0.00    -0.333 N 
HETATM    2  C   UNK N   1      24.101  14.628   3.151  0.00  0.00     0.088 A 
HETATM    3  N   UNK N   1      23.128  14.755   4.077  0.00  0.00    -0.343 N 
ATOM      4  HN  UNK N   1      22.404  14.071   4.300  1.00  0.00     0.167 HD
HETATM    5  C   UNK N   1      23.303  15.966   4.650  0.00  0.00     0.073 A 
HETATM    6  C   UNK N   1      24.414  16.589   4.041  0.00  0.00     0.091 A 
ENDROOT
BRANCH   6   7
HETATM    7  C   UNK N   1      25.072  17.899   4.381  0.00  0.00     0.079 A 
HETATM    8  C   UNK N   1      24.639  19.078   3.780  0.00  0.00     0.050 A 
HETATM    9  C   UNK N   1      25.256  20.278   4.082  0.00  0.00     0.108 A 
HETATM   10  N   UNK N   1      26.279  20.299   4.964  0.00  0.00    -0.202 N 
HETATM   11  C   UNK N   1      26.702  19.164   5.578  0.00  0.00     0.678 A 
ATOM     12  HN  UNK N   1      26.742  21.184   5.173  1.00  0.00     0.183 HD
HETATM   13  N   UNK N   1      27.781  19.272   6.498  0.00  0.00    -0.221 N 
HETATM   14  N   UNK N   1      26.088  17.970   5.296  0.00  0.00    -0.190 N 
HETATM   15  H   UNK N   1      28.170  20.173   6.582  0.00  0.00     0.178 HD
ATOM     16  HN  UNK N   1      26.393  17.123   5.776  1.00  0.00     0.184 HD
BRANCH  13  17
HETATM   17  C   UNK N   1      28.395  18.258   7.332  0.00  0.00     0.099 C 
HETATM   18  C   UNK N   1      29.617  17.711   6.597  0.00  0.00     0.026 C 
HETATM   19  C   UNK N   1      30.269  16.585   7.390  0.00  0.00     0.002 C 
HETATM   20  C   UNK N   1      30.657  17.083   8.777  0.00  0.00     0.000 C 
HETATM   21  C   UNK N   1      29.415  17.577   9.511  0.00  0.00     0.002 C 
HETATM   22  C   UNK N   1      28.770  18.722   8.735  0.00  0.00     0.026 C 
ENDBRANCH  13  17
ENDBRANCH   6   7
BRANCH   5  23
HETATM   23  C   UNK N   1      22.435  16.398   5.790  0.00  0.00    -0.005 A 
HETATM   24  C   UNK N   1      21.848  17.673   5.753  0.00  0.00     0.015 A 
HETATM   25  C   UNK N   1      20.923  18.062   6.729  0.00  0.00     0.026 A 
HETATM   26  C   UNK N   1      20.575  17.184   7.760  0.00  0.00     0.055 A 
HETATM   27 Cl   UNK N   1      19.361  17.672   8.932  0.00  0.00    -0.083 Cl
HETATM   28  C   UNK N   1      21.190  15.927   7.834  0.00  0.00     0.056 A 
HETATM   29 Cl   UNK N   1      20.794  14.781   9.105  0.00  0.00    -0.083 Cl
HETATM   30  C   UNK N   1      22.111  15.553   6.856  0.00  0.00     0.039 A 
ENDBRANCH   5  23
BRANCH   1  31
HETATM   31  C   UNK N   1      26.147  15.890   2.364  0.00  0.00     0.130 C 
BRANCH  31  32
HETATM   32  C   UNK N   1      27.340  15.321   3.100  0.00  0.00     0.016 C 
HETATM   33  C   UNK N   1      28.431  16.372   3.124  0.00  0.00     0.006 C 
ENDBRANCH  31  32
ENDBRANCH   1  31
BRANCH   2  34
HETATM   34  C   UNK N   1      24.355  13.304   2.438  0.00  0.00     0.057 C 
HETATM   35  C   UNK N   1      23.174  12.622   1.746  0.00  0.00     0.031 C 
HETATM   36  C   UNK N   1      22.315  11.856   2.745  0.00  0.00     0.114 C 
HETATM   37  N   UNK N   1      23.127  10.847   3.418  0.00  0.00    -0.421 N 
HETATM   38  C   UNK N   1      24.139  11.535   4.218  0.00  0.00     0.114 C 
HETATM   39  H   UNK N   1      23.010   9.835   3.341  0.00  0.00     0.153 HD
HETATM   40  C   UNK N   1      25.111  12.287   3.304  0.00  0.00     0.031 C 
ENDBRANCH   2  34
TORSDOF 6
ENDMDL
MODEL 8
REMARK VINA RESULT:      -7.2      3.556      6.918
REMARK  6 active torsions:
REMARK  status: ('A' for Active; 'I' for Inactive)
REMARK    1  A    between atoms: C_2  and  C_3 
REMARK    2  A    between atoms: C_3  and  N_4 
REMARK    3  A    between atoms: C_5  and  C_33 
REMARK    4  A    between atoms: C_8  and  C_9 
REMARK    5  A    between atoms: C_17  and  C_18 
REMARK       I    between atoms: C_23  and  N_24 
REMARK    6  A    between atoms: N_24  and  C_25 
ROOT
HETATM    1  N   UNK N   1      25.644  17.495   4.433  0.00  0.00    -0.333 N 
HETATM    2  C   UNK N   1      26.676  17.301   5.298  0.00  0.00     0.088 A 
HETATM    3  N   UNK N   1      26.389  16.348   6.209  0.00  0.00    -0.343 N 
ATOM      4  HN  UNK N   1      26.994  16.021   6.963  1.00  0.00     0.167 HD
HETATM    5  C   UNK N   1      25.141  15.915   5.926  0.00  0.00     0.073 A 
HETATM    6  C   UNK N   1      24.668  16.627   4.802  0.00  0.00     0.091 A 
ENDROOT
BRANCH   6   7
HETATM    7  C   UNK N   1      23.311  16.582   4.152  0.00  0.00     0.079 A 
HETATM    8  C   UNK N   1      22.401  17.614   4.357  0.00  0.00     0.050 A 
HETATM    9  C   UNK N   1      21.149  17.563   3.771  0.00  0.00     0.108 A 
HETATM   10  N   UNK N   1      20.817  16.506   2.999  0.00  0.00    -0.202 N 
HETATM   11  C   UNK N   1      21.697  15.499   2.768  0.00  0.00     0.678 A 
ATOM     12  HN  UNK N   1      19.887  16.464   2.581  1.00  0.00     0.183 HD
HETATM   13  N   UNK N   1      21.273  14.425   1.938  0.00  0.00    -0.221 N 
HETATM   14  N   UNK N   1      22.947  15.546   3.333  0.00  0.00    -0.190 N 
HETATM   15  H   UNK N   1      20.339  14.479   1.630  0.00  0.00     0.178 HD
ATOM     16  HN  UNK N   1      23.614  14.800   3.139  1.00  0.00     0.184 HD
BRANCH  13  17
HETATM   17  C   UNK N   1      22.005  13.262   1.477  0.00  0.00     0.099 C 
HETATM   18  C   UNK N   1      23.055  13.727   0.470  0.00  0.00     0.026 C 
HETATM   19  C   UNK N   1      23.814  12.540  -0.111  0.00  0.00     0.002 C 
HETATM   20  C   UNK N   1      24.464  11.739   1.011  0.00  0.00     0.000 C 
HETATM   21  C   UNK N   1      23.393  11.242   1.976  0.00  0.00     0.002 C 
HETATM   22  C   UNK N   1      22.645  12.427   2.580  0.00  0.00     0.026 C 
ENDBRANCH  13  17
ENDBRANCH   6   7
BRANCH   5  23
HETATM   23  C   UNK N   1      24.471  14.905   6.805  0.00  0.00    -0.005 A 
HETATM   24  C   UNK N   1      25.265  14.001   7.529  0.00  0.00     0.015 A 
HETATM   25  C   UNK N   1      24.688  13.134   8.465  0.00  0.00     0.026 A 
HETATM   26  C   UNK N   1      23.307  13.154   8.687  0.00  0.00     0.055 A 
HETATM   27 Cl   UNK N   1      22.618  12.105   9.914  0.00  0.00    -0.083 Cl
HETATM   28  C   UNK N   1      22.500  14.020   7.936  0.00  0.00     0.056 A 
HETATM   29 Cl   UNK N   1      20.761  14.091   8.170  0.00  0.00    -0.083 Cl
HETATM   30  C   UNK N   1      23.088  14.877   7.006  0.00  0.00     0.039 A 
ENDBRANCH   5  23
BRANCH   1  31
HETATM   31  C   UNK N   1      25.519  18.544   3.424  0.00  0.00     0.130 C 
BRANCH  31  32
HETATM   32  C   UNK N   1      25.098  19.870   4.020  0.00  0.00     0.016 C 
HETATM   33  C   UNK N   1      24.221  20.588   3.015  0.00  0.00     0.006 C 
ENDBRANCH  31  32
ENDBRANCH   1  31
BRANCH   2  34
HETATM   34  C   UNK N   1      27.923  18.170   5.421  0.00  0.00     0.057 C 
HETATM   35  C   UNK N   1      29.283  17.474   5.472  0.00  0.00     0.031 C 
HETATM   36  C   UNK N   1      29.581  16.947   6.871  0.00  0.00     0.114 C 
HETATM   37  N   UNK N   1      29.569  18.052   7.825  0.00  0.00    -0.421 N 
HETATM   38  C   UNK N   1      28.208  18.584   7.889  0.00  0.00     0.114 C 
HETATM   39  H   UNK N   1      30.371  18.394   8.355  0.00  0.00     0.153 HD
HETATM   40  C   UNK N   1      27.825  19.211   6.545  0.00  0.00     0.031 C 
ENDBRANCH   2  34
TORSDOF 6
ENDMDL
MODEL 9
REMARK VINA RESULT:      -7.2     13.291     15.900
REMARK  6 active torsions:
REMARK  status: ('A' for Active; 'I' for Inactive)
REMARK    1  A    between atoms: C_2  and  C_3 
REMARK    2  A    between atoms: C_3  and  N_4 
REMARK    3  A    between atoms: C_5  and  C_33 
REMARK    4  A    between atoms: C_8  and  C_9 
REMARK    5  A    between atoms: C_17  and  C_18 
REMARK       I    between atoms: C_23  and  N_24 
REMARK    6  A    between atoms: N_24  and  C_25 
ROOT
HETATM    1  N   UNK N   1      26.957  25.411  -6.893  0.00  0.00    -0.333 N 
HETATM    2  C   UNK N   1      27.355  26.447  -6.106  0.00  0.00     0.088 A 
HETATM    3  N   UNK N   1      28.365  26.089  -5.286  0.00  0.00    -0.343 N 
ATOM      4  HN  UNK N   1      28.835  26.681  -4.601  1.00  0.00     0.167 HD
HETATM    5  C   UNK N   1      28.628  24.791  -5.550  0.00  0.00     0.073 A 
HETATM    6  C   UNK N   1      27.751  24.358  -6.569  0.00  0.00     0.091 A 
ENDROOT
BRANCH   6   7
HETATM    7  C   UNK N   1      27.579  22.981  -7.152  0.00  0.00     0.079 A 
HETATM    8  C   UNK N   1      26.315  22.529  -7.521  0.00  0.00     0.050 A 
HETATM    9  C   UNK N   1      26.157  21.257  -8.042  0.00  0.00     0.108 A 
HETATM   10  N   UNK N   1      27.237  20.460  -8.192  0.00  0.00    -0.202 N 
HETATM   11  C   UNK N   1      28.481  20.889  -7.860  0.00  0.00     0.678 A 
ATOM     12  HN  UNK N   1      27.115  19.517  -8.562  1.00  0.00     0.183 HD
HETATM   13  N   UNK N   1      29.566  19.991  -8.054  0.00  0.00    -0.221 N 
HETATM   14  N   UNK N   1      28.651  22.154  -7.355  0.00  0.00    -0.190 N 
HETATM   15  H   UNK N   1      29.314  19.095  -8.378  0.00  0.00     0.178 HD
ATOM     16  HN  UNK N   1      29.589  22.482  -7.128  1.00  0.00     0.184 HD
BRANCH  13  17
HETATM   17  C   UNK N   1      30.986  20.191  -7.848  0.00  0.00     0.099 C 
HETATM   18  C   UNK N   1      31.298  19.923  -6.377  0.00  0.00     0.026 C 
HETATM   19  C   UNK N   1      32.768  20.188  -6.077  0.00  0.00     0.002 C 
HETATM   20  C   UNK N   1      33.647  19.327  -6.977  0.00  0.00     0.000 C 
HETATM   21  C   UNK N   1      33.355  19.648  -8.439  0.00  0.00     0.002 C 
HETATM   22  C   UNK N   1      31.889  19.362  -8.754  0.00  0.00     0.026 C 
ENDBRANCH  13  17
ENDBRANCH   6   7
BRANCH   5  23
HETATM   23  C   UNK N   1      29.650  24.045  -4.750  0.00  0.00    -0.005 A 
HETATM   24  C   UNK N   1      29.218  23.181  -3.732  0.00  0.00     0.015 A 
HETATM   25  C   UNK N   1      30.130  22.363  -3.054  0.00  0.00     0.026 A 
HETATM   26  C   UNK N   1      31.490  22.402  -3.380  0.00  0.00     0.055 A 
HETATM   27 Cl   UNK N   1      32.602  21.318  -2.561  0.00  0.00    -0.083 Cl
HETATM   28  C   UNK N   1      31.938  23.296  -4.362  0.00  0.00     0.056 A 
HETATM   29 Cl   UNK N   1      33.633  23.390  -4.816  0.00  0.00    -0.083 Cl
HETATM   30  C   UNK N   1      31.019  24.105  -5.029  0.00  0.00     0.039 A 
ENDBRANCH   5  23
BRANCH   1  31
HETATM   31  C   UNK N   1      25.796  25.366  -7.779  0.00  0.00     0.130 C 
BRANCH  31  32
HETATM   32  C   UNK N   1      26.123  25.828  -9.182  0.00  0.00     0.016 C 
HETATM   33  C   UNK N   1      24.850  25.796 -10.004  0.00  0.00     0.006 C 
ENDBRANCH  31  32
ENDBRANCH   1  31
BRANCH   2  34
HETATM   34  C   UNK N   1      26.643  27.787  -5.954  0.00  0.00     0.057 C 
HETATM   35  C   UNK N   1      27.451  28.976  -5.433  0.00  0.00     0.031 C 
HETATM   36  C   UNK N   1      27.578  28.935  -3.915  0.00  0.00     0.114 C 
HETATM   37  N   UNK N   1      26.248  28.953  -3.311  0.00  0.00    -0.421 N 
HETATM   38  C   UNK N   1      25.563  27.716  -3.679  0.00  0.00     0.114 C 
HETATM   39  H   UNK N   1      25.865  29.701  -2.731  0.00  0.00     0.153 HD
HETATM   40  C   UNK N   1      25.315  27.682  -5.191  0.00  0.00     0.031 C 
ENDBRANCH   2  34
TORSDOF 6
ENDMDL
