MODEL 1
REMARK VINA RESULT:      -8.7      0.000      0.000
REMARK  8 active torsions:
REMARK  status: ('A' for Active; 'I' for Inactive)
REMARK    1  A    between atoms: N_24  and  C_2 
REMARK    2  A    between atoms: N_26  and  C_12 
REMARK    3  A    between atoms: O_27  and  C_13 
REMARK    4  A    between atoms: C_21  and  C_15 
REMARK    5  A    between atoms: C_22  and  C_18 
REMARK    6  A    between atoms: O_30  and  C_22 
REMARK    7  A    between atoms: N_26  and  C_23 
REMARK    8  A    between atoms: S_32  and  C_23 
ROOT
HETATM    1  C   UNK N   1      33.996  14.783  10.519  0.00  0.00     0.030 A 
HETATM    2  C   UNK N   1      33.128  14.902   9.457  0.00  0.00     0.015 A 
HETATM    3  C   UNK N   1      35.022  16.834   9.891  0.00  0.00     0.048 A 
HETATM    4  C   UNK N   1      34.918  15.776  10.779  0.00  0.00     0.035 A 
HETATM    5  C   UNK N   1      33.113  15.980   8.556  0.00  0.00    -0.007 A 
HETATM    6  C   UNK N   1      34.174  16.964   8.773  0.00  0.00     0.051 A 
ENDROOT
BRANCH   5   7
HETATM    7  C   UNK N   1      31.884  16.010   7.571  0.00  0.00     0.001 A 
HETATM    8  C   UNK N   1      30.714  16.830   7.892  0.00  0.00     0.010 A 
HETATM    9  C   UNK N   1      30.593  17.556   9.094  0.00  0.00     0.018 A 
HETATM   10  C   UNK N   1      29.641  16.964   6.960  0.00  0.00     0.089 A 
HETATM   11  C   UNK N   1      29.491  18.358   9.383  0.00  0.00     0.037 A 
HETATM   12  C   UNK N   1      28.465  18.473   8.459  0.00  0.00     0.068 A 
HETATM   13  C   UNK N   1      28.539  17.782   7.256  0.00  0.00     0.074 A 
HETATM   14  O   UNK N   1      29.659  16.364   5.792  0.00  0.00    -0.309 OA
HETATM   15  C   UNK N   1      30.649  15.589   5.410  0.00  0.00     0.091 A 
HETATM   16  C   UNK N   1      30.605  15.014   4.141  0.00  0.00     0.092 A 
HETATM   17  C   UNK N   1      31.817  15.353   6.304  0.00  0.00     0.010 A 
HETATM   18  C   UNK N   1      31.636  14.183   3.711  0.00  0.00     0.174 A 
HETATM   19  C   UNK N   1      32.704  13.902   4.557  0.00  0.00     0.056 A 
HETATM   20  O   UNK N   1      31.602  13.701   2.596  0.00  0.00    -0.288 OA
HETATM   21  C   UNK N   1      32.778  14.481   5.825  0.00  0.00     0.019 A 
BRANCH  12  22
HETATM   22  O   UNK N   1      27.409  19.259   8.724  0.00  0.00    -0.361 OA
HETATM   23  H   UNK N   1      27.518  20.178   8.874  0.00  0.00     0.217 HD
ENDBRANCH  12  22
ENDBRANCH   5   7
BRANCH   6  24
HETATM   24  C   UNK N   1      34.488  18.157   7.980  0.00  0.00     0.177 C 
HETATM   25  O   UNK N   1      34.393  18.098   6.762  0.00  0.00    -0.646 OA
BRANCH  24  26
HETATM   26  O   UNK N   1      35.230  19.139   8.526  0.00  0.00    -0.773 OA
HETATM   27  H   UNK N   1      35.297  19.919   9.041  0.00  0.00     0.167 HD
ENDBRANCH  24  26
ENDBRANCH   6  24
BRANCH   4  28
HETATM   28  N   UNK N   1      35.806  15.674  11.881  0.00  0.00    -0.337 N 
HETATM   29  H   UNK N   1      36.189  16.502  12.252  0.00  0.00     0.168 HD
BRANCH  28  30
HETATM   30  C   UNK N   1      36.174  14.434  12.479  0.00  0.00     0.137 C 
HETATM   31  N   UNK N   1      35.851  14.223  13.708  0.00  0.00    -0.371 N 
ATOM     32  HN  UNK N   1      35.281  14.922  14.184  1.00  0.00     0.161 HD
BRANCH  31  33
HETATM   33  C   UNK N   1      36.253  13.050  14.451  0.00  0.00     0.117 C 
HETATM   34  C   UNK N   1      35.745  13.098  15.877  0.00  0.00     0.026 C 
ENDBRANCH  31  33
BRANCH  30  35
HETATM   35  S   UNK N   1      37.132  13.204  11.544  0.00  0.00    -0.107 SA
HETATM   36  H   UNK N   1      38.467  13.229  11.289  0.00  0.00     0.110 HD
ENDBRANCH  30  35
ENDBRANCH  28  30
ENDBRANCH   4  28
TORSDOF 8
ENDMDL
MODEL 2
REMARK VINA RESULT:      -8.1      1.954      2.462
REMARK  8 active torsions:
REMARK  status: ('A' for Active; 'I' for Inactive)
REMARK    1  A    between atoms: N_24  and  C_2 
REMARK    2  A    between atoms: N_26  and  C_12 
REMARK    3  A    between atoms: O_27  and  C_13 
REMARK    4  A    between atoms: C_21  and  C_15 
REMARK    5  A    between atoms: C_22  and  C_18 
REMARK    6  A    between atoms: O_30  and  C_22 
REMARK    7  A    between atoms: N_26  and  C_23 
REMARK    8  A    between atoms: S_32  and  C_23 
ROOT
HETATM    1  C   UNK N   1      35.134  16.421  10.002  0.00  0.00     0.030 A 
HETATM    2  C   UNK N   1      34.037  16.672   9.210  0.00  0.00     0.015 A 
HETATM    3  C   UNK N   1      34.797  14.086   9.701  0.00  0.00     0.048 A 
HETATM    4  C   UNK N   1      35.558  15.125  10.212  0.00  0.00     0.035 A 
HETATM    5  C   UNK N   1      33.258  15.683   8.589  0.00  0.00    -0.007 A 
HETATM    6  C   UNK N   1      33.646  14.311   8.919  0.00  0.00     0.051 A 
ENDROOT
BRANCH   5   7
HETATM    7  C   UNK N   1      32.204  16.218   7.547  0.00  0.00     0.001 A 
HETATM    8  C   UNK N   1      30.931  16.769   8.016  0.00  0.00     0.010 A 
HETATM    9  C   UNK N   1      30.556  16.783   9.375  0.00  0.00     0.018 A 
HETATM   10  C   UNK N   1      30.013  17.366   7.100  0.00  0.00     0.089 A 
HETATM   11  C   UNK N   1      29.357  17.333   9.822  0.00  0.00     0.037 A 
HETATM   12  C   UNK N   1      28.486  17.910   8.911  0.00  0.00     0.068 A 
HETATM   13  C   UNK N   1      28.811  17.926   7.559  0.00  0.00     0.074 A 
HETATM   14  O   UNK N   1      30.270  17.444   5.814  0.00  0.00    -0.309 OA
HETATM   15  C   UNK N   1      31.372  16.964   5.283  0.00  0.00     0.091 A 
HETATM   16  C   UNK N   1      31.582  17.116   3.913  0.00  0.00     0.092 A 
HETATM   17  C   UNK N   1      32.398  16.298   6.133  0.00  0.00     0.010 A 
HETATM   18  C   UNK N   1      32.737  16.613   3.321  0.00  0.00     0.174 A 
HETATM   19  C   UNK N   1      33.676  15.933   4.090  0.00  0.00     0.056 A 
HETATM   20  O   UNK N   1      32.923  16.765   2.129  0.00  0.00    -0.288 OA
HETATM   21  C   UNK N   1      33.496  15.785   5.466  0.00  0.00     0.019 A 
BRANCH  12  22
HETATM   22  O   UNK N   1      27.336  18.458   9.337  0.00  0.00    -0.361 OA
HETATM   23  H   UNK N   1      26.919  19.141   8.849  0.00  0.00     0.217 HD
ENDBRANCH  12  22
ENDBRANCH   5   7
BRANCH   6  24
HETATM   24  C   UNK N   1      33.007  13.057   8.507  0.00  0.00     0.177 C 
HETATM   25  O   UNK N   1      32.829  12.849   7.315  0.00  0.00    -0.646 OA
BRANCH  24  26
HETATM   26  O   UNK N   1      32.289  12.355   9.402  0.00  0.00    -0.773 OA
HETATM   27  H   UNK N   1      32.207  11.949  10.243  0.00  0.00     0.167 HD
ENDBRANCH  24  26
ENDBRANCH   6  24
BRANCH   4  28
HETATM   28  N   UNK N   1      36.698  14.852  11.012  0.00  0.00    -0.337 N 
HETATM   29  H   UNK N   1      37.550  15.285  10.777  0.00  0.00     0.168 HD
BRANCH  28  30
HETATM   30  C   UNK N   1      36.672  13.981  12.140  0.00  0.00     0.137 C 
HETATM   31  N   UNK N   1      36.183  14.422  13.248  0.00  0.00    -0.371 N 
ATOM     32  HN  UNK N   1      35.766  15.353  13.254  1.00  0.00     0.161 HD
BRANCH  31  33
HETATM   33  C   UNK N   1      36.193  13.669  14.482  0.00  0.00     0.117 C 
HETATM   34  C   UNK N   1      37.029  14.358  15.542  0.00  0.00     0.026 C 
ENDBRANCH  31  33
BRANCH  30  35
HETATM   35  S   UNK N   1      37.371  12.307  12.032  0.00  0.00    -0.107 SA
HETATM   36  H   UNK N   1      38.625  11.969  11.629  0.00  0.00     0.110 HD
ENDBRANCH  30  35
ENDBRANCH  28  30
ENDBRANCH   4  28
TORSDOF 8
ENDMDL
MODEL 3
REMARK VINA RESULT:      -7.7      3.813      6.075
REMARK  8 active torsions:
REMARK  status: ('A' for Active; 'I' for Inactive)
REMARK    1  A    between atoms: N_24  and  C_2 
REMARK    2  A    between atoms: N_26  and  C_12 
REMARK    3  A    between atoms: O_27  and  C_13 
REMARK    4  A    between atoms: C_21  and  C_15 
REMARK    5  A    between atoms: C_22  and  C_18 
REMARK    6  A    between atoms: O_30  and  C_22 
REMARK    7  A    between atoms: N_26  and  C_23 
REMARK    8  A    between atoms: S_32  and  C_23 
ROOT
HETATM    1  C   UNK N   1      30.916  16.542   5.837  0.00  0.00     0.030 A 
HETATM    2  C   UNK N   1      29.590  16.775   5.549  0.00  0.00     0.015 A 
HETATM    3  C   UNK N   1      30.577  17.405   8.027  0.00  0.00     0.048 A 
HETATM    4  C   UNK N   1      31.411  16.804   7.097  0.00  0.00     0.035 A 
HETATM    5  C   UNK N   1      28.658  17.306   6.457  0.00  0.00    -0.007 A 
HETATM    6  C   UNK N   1      29.225  17.692   7.749  0.00  0.00     0.051 A 
ENDROOT
BRANCH   5   7
HETATM    7  C   UNK N   1      27.158  17.260   5.977  0.00  0.00     0.001 A 
HETATM    8  C   UNK N   1      26.667  18.260   5.026  0.00  0.00     0.010 A 
HETATM    9  C   UNK N   1      27.460  19.328   4.559  0.00  0.00     0.018 A 
HETATM   10  C   UNK N   1      25.348  18.169   4.488  0.00  0.00     0.089 A 
HETATM   11  C   UNK N   1      26.999  20.261   3.633  0.00  0.00     0.037 A 
HETATM   12  C   UNK N   1      25.715  20.147   3.124  0.00  0.00     0.068 A 
HETATM   13  C   UNK N   1      24.895  19.108   3.549  0.00  0.00     0.074 A 
HETATM   14  O   UNK N   1      24.530  17.196   4.822  0.00  0.00    -0.309 OA
HETATM   15  C   UNK N   1      24.860  16.258   5.681  0.00  0.00     0.091 A 
HETATM   16  C   UNK N   1      23.944  15.244   5.956  0.00  0.00     0.092 A 
HETATM   17  C   UNK N   1      26.203  16.257   6.327  0.00  0.00     0.010 A 
HETATM   18  C   UNK N   1      24.263  14.240   6.866  0.00  0.00     0.174 A 
HETATM   19  C   UNK N   1      25.488  14.259   7.525  0.00  0.00     0.056 A 
HETATM   20  O   UNK N   1      23.468  13.347   7.087  0.00  0.00    -0.288 OA
HETATM   21  C   UNK N   1      26.427  15.254   7.252  0.00  0.00     0.019 A 
BRANCH  12  22
HETATM   22  O   UNK N   1      25.271  21.032   2.218  0.00  0.00    -0.361 OA
HETATM   23  H   UNK N   1      24.674  21.712   2.462  0.00  0.00     0.217 HD
ENDBRANCH  12  22
ENDBRANCH   5   7
BRANCH   6  24
HETATM   24  C   UNK N   1      28.555  18.337   8.883  0.00  0.00     0.177 C 
HETATM   25  O   UNK N   1      29.230  18.955   9.694  0.00  0.00    -0.646 OA
BRANCH  24  26
HETATM   26  O   UNK N   1      27.321  17.934   9.239  0.00  0.00    -0.773 OA
HETATM   27  H   UNK N   1      26.389  17.979   9.143  0.00  0.00     0.167 HD
ENDBRANCH  24  26
ENDBRANCH   6  24
BRANCH   4  28
HETATM   28  N   UNK N   1      32.771  16.553   7.413  0.00  0.00    -0.337 N 
HETATM   29  H   UNK N   1      33.466  16.936   6.830  0.00  0.00     0.168 HD
BRANCH  28  30
HETATM   30  C   UNK N   1      33.184  15.773   8.533  0.00  0.00     0.137 C 
HETATM   31  N   UNK N   1      33.815  16.359   9.492  0.00  0.00    -0.371 N 
ATOM     32  HN  UNK N   1      33.930  17.372   9.446  1.00  0.00     0.161 HD
BRANCH  31  33
HETATM   33  C   UNK N   1      34.369  15.659  10.629  0.00  0.00     0.117 C 
HETATM   34  C   UNK N   1      35.842  15.968  10.803  0.00  0.00     0.026 C 
ENDBRANCH  31  33
BRANCH  30  35
HETATM   35  S   UNK N   1      32.882  13.982   8.574  0.00  0.00    -0.107 SA
HETATM   36  H   UNK N   1      31.829  13.343   9.151  0.00  0.00     0.110 HD
ENDBRANCH  30  35
ENDBRANCH  28  30
ENDBRANCH   4  28
TORSDOF 8
ENDMDL
MODEL 4
REMARK VINA RESULT:      -7.5      4.127      6.423
REMARK  8 active torsions:
REMARK  status: ('A' for Active; 'I' for Inactive)
REMARK    1  A    between atoms: N_24  and  C_2 
REMARK    2  A    between atoms: N_26  and  C_12 
REMARK    3  A    between atoms: O_27  and  C_13 
REMARK    4  A    between atoms: C_21  and  C_15 
REMARK    5  A    between atoms: C_22  and  C_18 
REMARK    6  A    between atoms: O_30  and  C_22 
REMARK    7  A    between atoms: N_26  and  C_23 
REMARK    8  A    between atoms: S_32  and  C_23 
ROOT
HETATM    1  C   UNK N   1      29.256  17.843   8.591  0.00  0.00     0.030 A 
HETATM    2  C   UNK N   1      28.147  17.598   7.813  0.00  0.00     0.015 A 
HETATM    3  C   UNK N   1      30.652  17.162   6.790  0.00  0.00     0.048 A 
HETATM    4  C   UNK N   1      30.523  17.679   8.069  0.00  0.00     0.035 A 
HETATM    5  C   UNK N   1      28.190  17.149   6.483  0.00  0.00    -0.007 A 
HETATM    6  C   UNK N   1      29.535  16.864   5.983  0.00  0.00     0.051 A 
ENDROOT
BRANCH   5   7
HETATM    7  C   UNK N   1      26.807  17.167   5.727  0.00  0.00     0.001 A 
HETATM    8  C   UNK N   1      25.805  16.140   6.019  0.00  0.00     0.010 A 
HETATM    9  C   UNK N   1      26.039  15.070   6.906  0.00  0.00     0.018 A 
HETATM   10  C   UNK N   1      24.504  16.205   5.434  0.00  0.00     0.089 A 
HETATM   11  C   UNK N   1      25.073  14.111   7.203  0.00  0.00     0.037 A 
HETATM   12  C   UNK N   1      23.817  14.200   6.624  0.00  0.00     0.068 A 
HETATM   13  C   UNK N   1      23.534  15.240   5.746  0.00  0.00     0.074 A 
HETATM   14  O   UNK N   1      24.158  17.176   4.620  0.00  0.00    -0.309 OA
HETATM   15  C   UNK N   1      24.985  18.138   4.275  0.00  0.00     0.091 A 
HETATM   16  C   UNK N   1      24.528  19.148   3.431  0.00  0.00     0.092 A 
HETATM   17  C   UNK N   1      26.378  18.168   4.802  0.00  0.00     0.010 A 
HETATM   18  C   UNK N   1      25.382  20.177   3.042  0.00  0.00     0.174 A 
HETATM   19  C   UNK N   1      26.704  20.187   3.475  0.00  0.00     0.056 A 
HETATM   20  O   UNK N   1      24.973  21.066   2.322  0.00  0.00    -0.288 OA
HETATM   21  C   UNK N   1      27.178  19.195   4.336  0.00  0.00     0.019 A 
BRANCH  12  22
HETATM   22  O   UNK N   1      22.876  13.289   6.920  0.00  0.00    -0.361 OA
HETATM   23  H   UNK N   1      22.707  12.568   6.346  0.00  0.00     0.217 HD
ENDBRANCH  12  22
ENDBRANCH   5   7
BRANCH   6  24
HETATM   24  C   UNK N   1      29.928  16.318   4.680  0.00  0.00     0.177 C 
HETATM   25  O   UNK N   1      30.567  15.276   4.644  0.00  0.00    -0.646 OA
BRANCH  24  26
HETATM   26  O   UNK N   1      29.939  17.122   3.601  0.00  0.00    -0.773 OA
HETATM   27  H   UNK N   1      29.483  17.607   2.941  0.00  0.00     0.167 HD
ENDBRANCH  24  26
ENDBRANCH   6  24
BRANCH   4  28
HETATM   28  N   UNK N   1      31.674  17.945   8.854  0.00  0.00    -0.337 N 
HETATM   29  H   UNK N   1      31.649  18.703   9.480  0.00  0.00     0.168 HD
BRANCH  28  30
HETATM   30  C   UNK N   1      32.868  17.168   8.782  0.00  0.00     0.137 C 
HETATM   31  N   UNK N   1      32.913  16.048   9.417  0.00  0.00    -0.371 N 
ATOM     32  HN  UNK N   1      32.067  15.726   9.888  1.00  0.00     0.161 HD
BRANCH  31  33
HETATM   33  C   UNK N   1      34.097  15.224   9.500  0.00  0.00     0.117 C 
HETATM   34  C   UNK N   1      34.694  15.253  10.893  0.00  0.00     0.026 C 
ENDBRANCH  31  33
BRANCH  30  35
HETATM   35  S   UNK N   1      34.313  17.777   7.863  0.00  0.00    -0.107 SA
HETATM   36  H   UNK N   1      34.456  17.842   6.513  0.00  0.00     0.110 HD
ENDBRANCH  30  35
ENDBRANCH  28  30
ENDBRANCH   4  28
TORSDOF 8
ENDMDL
MODEL 5
REMARK VINA RESULT:      -7.5      5.694      8.602
REMARK  8 active torsions:
REMARK  status: ('A' for Active; 'I' for Inactive)
REMARK    1  A    between atoms: N_24  and  C_2 
REMARK    2  A    between atoms: N_26  and  C_12 
REMARK    3  A    between atoms: O_27  and  C_13 
REMARK    4  A    between atoms: C_21  and  C_15 
REMARK    5  A    between atoms: C_22  and  C_18 
REMARK    6  A    between atoms: O_30  and  C_22 
REMARK    7  A    between atoms: N_26  and  C_23 
REMARK    8  A    between atoms: S_32  and  C_23 
ROOT
HETATM    1  C   UNK N   1      28.390  16.766   3.396  0.00  0.00     0.030 A 
HETATM    2  C   UNK N   1      27.041  16.954   3.595  0.00  0.00     0.015 A 
HETATM    3  C   UNK N   1      28.847  18.441   5.022  0.00  0.00     0.048 A 
HETATM    4  C   UNK N   1      29.309  17.470   4.148  0.00  0.00     0.035 A 
HETATM    5  C   UNK N   1      26.489  17.859   4.516  0.00  0.00    -0.007 A 
HETATM    6  C   UNK N   1      27.472  18.684   5.218  0.00  0.00     0.051 A 
ENDROOT
BRANCH   5   7
HETATM    7  C   UNK N   1      24.933  17.728   4.731  0.00  0.00     0.001 A 
HETATM    8  C   UNK N   1      24.027  18.692   4.103  0.00  0.00     0.010 A 
HETATM    9  C   UNK N   1      24.483  19.799   3.359  0.00  0.00     0.018 A 
HETATM   10  C   UNK N   1      22.612  18.524   4.187  0.00  0.00     0.089 A 
HETATM   11  C   UNK N   1      23.618  20.699   2.739  0.00  0.00     0.037 A 
HETATM   12  C   UNK N   1      22.249  20.510   2.834  0.00  0.00     0.068 A 
HETATM   13  C   UNK N   1      21.749  19.430   3.553  0.00  0.00     0.074 A 
HETATM   14  O   UNK N   1      22.072  17.510   4.824  0.00  0.00    -0.309 OA
HETATM   15  C   UNK N   1      22.790  16.598   5.439  0.00  0.00     0.091 A 
HETATM   16  C   UNK N   1      22.138  15.536   6.065  0.00  0.00     0.092 A 
HETATM   17  C   UNK N   1      24.278  16.675   5.441  0.00  0.00     0.010 A 
HETATM   18  C   UNK N   1      22.871  14.558   6.730  0.00  0.00     0.174 A 
HETATM   19  C   UNK N   1      24.258  14.648   6.795  0.00  0.00     0.056 A 
HETATM   20  O   UNK N   1      22.299  13.623   7.257  0.00  0.00    -0.288 OA
HETATM   21  C   UNK N   1      24.933  15.692   6.161  0.00  0.00     0.019 A 
BRANCH  12  22
HETATM   22  O   UNK N   1      21.410  21.364   2.224  0.00  0.00    -0.361 OA
HETATM   23  H   UNK N   1      20.734  21.050   1.655  0.00  0.00     0.217 HD
ENDBRANCH  12  22
ENDBRANCH   5   7
BRANCH   6  24
HETATM   24  C   UNK N   1      27.237  19.766   6.179  0.00  0.00     0.177 C 
HETATM   25  O   UNK N   1      27.193  20.918   5.774  0.00  0.00    -0.646 OA
BRANCH  24  26
HETATM   26  O   UNK N   1      27.459  19.548   7.489  0.00  0.00    -0.773 OA
HETATM   27  H   UNK N   1      27.904  19.760   8.287  0.00  0.00     0.167 HD
ENDBRANCH  24  26
ENDBRANCH   6  24
BRANCH   4  28
HETATM   28  N   UNK N   1      30.702  17.274   3.966  0.00  0.00    -0.337 N 
HETATM   29  H   UNK N   1      31.087  17.444   3.076  0.00  0.00     0.168 HD
BRANCH  28  30
HETATM   30  C   UNK N   1      31.575  16.842   5.007  0.00  0.00     0.137 C 
HETATM   31  N   UNK N   1      32.709  17.438   5.147  0.00  0.00    -0.371 N 
ATOM     32  HN  UNK N   1      32.907  18.243   4.553  1.00  0.00     0.161 HD
BRANCH  31  33
HETATM   33  C   UNK N   1      33.716  17.026   6.099  0.00  0.00     0.117 C 
HETATM   34  C   UNK N   1      33.772  17.968   7.284  0.00  0.00     0.026 C 
ENDBRANCH  31  33
BRANCH  30  35
HETATM   35  S   UNK N   1      31.121  15.442   6.073  0.00  0.00    -0.107 SA
HETATM   36  H   UNK N   1      29.960  14.735   6.044  0.00  0.00     0.110 HD
ENDBRANCH  30  35
ENDBRANCH  28  30
ENDBRANCH   4  28
TORSDOF 8
ENDMDL
MODEL 6
REMARK VINA RESULT:      -7.4      7.251     10.704
REMARK  8 active torsions:
REMARK  status: ('A' for Active; 'I' for Inactive)
REMARK    1  A    between atoms: N_24  and  C_2 
REMARK    2  A    between atoms: N_26  and  C_12 
REMARK    3  A    between atoms: O_27  and  C_13 
REMARK    4  A    between atoms: C_21  and  C_15 
REMARK    5  A    between atoms: C_22  and  C_18 
REMARK    6  A    between atoms: O_30  and  C_22 
REMARK    7  A    between atoms: N_26  and  C_23 
REMARK    8  A    between atoms: S_32  and  C_23 
ROOT
HETATM    1  C   UNK N   1      23.497  17.530   5.023  0.00  0.00     0.030 A 
HETATM    2  C   UNK N   1      24.823  17.196   5.186  0.00  0.00     0.015 A 
HETATM    3  C   UNK N   1      24.149  19.444   3.771  0.00  0.00     0.048 A 
HETATM    4  C   UNK N   1      23.144  18.629   4.267  0.00  0.00     0.035 A 
HETATM    5  C   UNK N   1      25.900  17.921   4.651  0.00  0.00    -0.007 A 
HETATM    6  C   UNK N   1      25.516  19.150   3.955  0.00  0.00     0.051 A 
ENDROOT
BRANCH   5   7
HETATM    7  C   UNK N   1      27.304  17.218   4.772  0.00  0.00     0.001 A 
HETATM    8  C   UNK N   1      28.164  17.500   5.924  0.00  0.00     0.010 A 
HETATM    9  C   UNK N   1      27.828  18.442   6.918  0.00  0.00     0.018 A 
HETATM   10  C   UNK N   1      29.386  16.788   6.114  0.00  0.00     0.089 A 
HETATM   11  C   UNK N   1      28.634  18.687   8.028  0.00  0.00     0.037 A 
HETATM   12  C   UNK N   1      29.814  17.978   8.189  0.00  0.00     0.068 A 
HETATM   13  C   UNK N   1      30.188  17.035   7.238  0.00  0.00     0.074 A 
HETATM   14  O   UNK N   1      29.785  15.861   5.272  0.00  0.00    -0.309 OA
HETATM   15  C   UNK N   1      29.102  15.542   4.195  0.00  0.00     0.091 A 
HETATM   16  C   UNK N   1      29.580  14.525   3.371  0.00  0.00     0.092 A 
HETATM   17  C   UNK N   1      27.820  16.231   3.877  0.00  0.00     0.010 A 
HETATM   18  C   UNK N   1      28.882  14.169   2.220  0.00  0.00     0.174 A 
HETATM   19  C   UNK N   1      27.716  14.845   1.874  0.00  0.00     0.056 A 
HETATM   20  O   UNK N   1      29.293  13.268   1.515  0.00  0.00    -0.288 OA
HETATM   21  C   UNK N   1      27.209  15.854   2.694  0.00  0.00     0.019 A 
BRANCH  12  22
HETATM   22  O   UNK N   1      30.586  18.197   9.265  0.00  0.00    -0.361 OA
HETATM   23  H   UNK N   1      30.340  17.871  10.108  0.00  0.00     0.217 HD
ENDBRANCH  12  22
ENDBRANCH   5   7
BRANCH   6  24
HETATM   24  C   UNK N   1      26.383  20.166   3.351  0.00  0.00     0.177 C 
HETATM   25  O   UNK N   1      25.937  20.867   2.455  0.00  0.00    -0.646 OA
BRANCH  24  26
HETATM   26  O   UNK N   1      27.718  20.064   3.490  0.00  0.00    -0.773 OA
HETATM   27  H   UNK N   1      28.586  20.262   3.196  0.00  0.00     0.167 HD
ENDBRANCH  24  26
ENDBRANCH   6  24
BRANCH   4  28
HETATM   28  N   UNK N   1      21.782  18.975   4.076  0.00  0.00    -0.337 N 
HETATM   29  H   UNK N   1      21.275  19.322   4.844  0.00  0.00     0.168 HD
BRANCH  28  30
HETATM   30  C   UNK N   1      21.108  18.844   2.826  0.00  0.00     0.137 C 
HETATM   31  N   UNK N   1      20.709  17.675   2.461  0.00  0.00    -0.371 N 
ATOM     32  HN  UNK N   1      20.824  16.900   3.115  1.00  0.00     0.161 HD
BRANCH  31  33
HETATM   33  C   UNK N   1      20.105  17.401   1.177  0.00  0.00     0.117 C 
HETATM   34  C   UNK N   1      20.182  15.927   0.834  0.00  0.00     0.026 C 
ENDBRANCH  31  33
BRANCH  30  35
HETATM   35  S   UNK N   1      20.877  20.286   1.745  0.00  0.00    -0.107 SA
HETATM   36  H   UNK N   1      19.696  20.836   1.356  0.00  0.00     0.110 HD
ENDBRANCH  30  35
ENDBRANCH  28  30
ENDBRANCH   4  28
TORSDOF 8
ENDMDL
MODEL 7
REMARK VINA RESULT:      -7.3      5.697     10.772
REMARK  8 active torsions:
REMARK  status: ('A' for Active; 'I' for Inactive)
REMARK    1  A    between atoms: N_24  and  C_2 
REMARK    2  A    between atoms: N_26  and  C_12 
REMARK    3  A    between atoms: O_27  and  C_13 
REMARK    4  A    between atoms: C_21  and  C_15 
REMARK    5  A    between atoms: C_22  and  C_18 
REMARK    6  A    between atoms: O_30  and  C_22 
REMARK    7  A    between atoms: N_26  and  C_23 
REMARK    8  A    between atoms: S_32  and  C_23 
ROOT
HETATM    1  C   UNK N   1      36.423  14.581  13.476  0.00  0.00     0.030 A 
HETATM    2  C   UNK N   1      36.645  13.604  14.420  0.00  0.00     0.015 A 
HETATM    3  C   UNK N   1      34.823  13.173  12.419  0.00  0.00     0.048 A 
HETATM    4  C   UNK N   1      35.469  14.397  12.496  0.00  0.00     0.035 A 
HETATM    5  C   UNK N   1      35.978  12.369  14.463  0.00  0.00    -0.007 A 
HETATM    6  C   UNK N   1      35.058  12.139  13.348  0.00  0.00     0.051 A 
ENDROOT
BRANCH   5   7
HETATM    7  C   UNK N   1      36.230  11.518  15.765  0.00  0.00     0.001 A 
HETATM    8  C   UNK N   1      35.811  12.040  17.068  0.00  0.00     0.010 A 
HETATM    9  C   UNK N   1      35.247  13.320  17.236  0.00  0.00     0.018 A 
HETATM   10  C   UNK N   1      35.923  11.238  18.244  0.00  0.00     0.089 A 
HETATM   11  C   UNK N   1      34.824  13.802  18.472  0.00  0.00     0.037 A 
HETATM   12  C   UNK N   1      34.940  13.001  19.597  0.00  0.00     0.068 A 
HETATM   13  C   UNK N   1      35.486  11.728  19.484  0.00  0.00     0.074 A 
HETATM   14  O   UNK N   1      36.401  10.015  18.205  0.00  0.00    -0.309 OA
HETATM   15  C   UNK N   1      36.823   9.455  17.093  0.00  0.00     0.091 A 
HETATM   16  C   UNK N   1      37.287   8.141  17.134  0.00  0.00     0.092 A 
HETATM   17  C   UNK N   1      36.778  10.199  15.803  0.00  0.00     0.010 A 
HETATM   18  C   UNK N   1      37.747   7.524  15.974  0.00  0.00     0.174 A 
HETATM   19  C   UNK N   1      37.770   8.226  14.773  0.00  0.00     0.056 A 
HETATM   20  O   UNK N   1      38.131   6.371  16.012  0.00  0.00    -0.288 OA
HETATM   21  C   UNK N   1      37.295   9.536  14.705  0.00  0.00     0.019 A 
BRANCH  12  22
HETATM   22  O   UNK N   1      34.517  13.453  20.789  0.00  0.00    -0.361 OA
HETATM   23  H   UNK N   1      33.680  13.203  21.129  0.00  0.00     0.217 HD
ENDBRANCH  12  22
ENDBRANCH   5   7
BRANCH   6  24
HETATM   24  C   UNK N   1      34.267  10.941  13.050  0.00  0.00     0.177 C 
HETATM   25  O   UNK N   1      34.319  10.463  11.925  0.00  0.00    -0.646 OA
BRANCH  24  26
HETATM   26  O   UNK N   1      33.228  10.619  13.843  0.00  0.00    -0.773 OA
HETATM   27  H   UNK N   1      32.887  10.202  14.610  0.00  0.00     0.167 HD
ENDBRANCH  24  26
ENDBRANCH   6  24
BRANCH   4  28
HETATM   28  N   UNK N   1      35.217  15.402  11.527  0.00  0.00    -0.337 N 
HETATM   29  H   UNK N   1      35.575  16.305  11.685  0.00  0.00     0.168 HD
BRANCH  28  30
HETATM   30  C   UNK N   1      34.471  15.170  10.334  0.00  0.00     0.137 C 
HETATM   31  N   UNK N   1      33.185  15.222  10.392  0.00  0.00    -0.371 N 
ATOM     32  HN  UNK N   1      32.753  15.499  11.274  1.00  0.00     0.161 HD
BRANCH  31  33
HETATM   33  C   UNK N   1      32.322  14.909   9.276  0.00  0.00     0.117 C 
HETATM   34  C   UNK N   1      31.784  16.167   8.624  0.00  0.00     0.026 C 
ENDBRANCH  31  33
BRANCH  30  35
HETATM   35  S   UNK N   1      35.317  14.750   8.781  0.00  0.00    -0.107 SA
HETATM   36  H   UNK N   1      35.813  13.536   8.423  0.00  0.00     0.110 HD
ENDBRANCH  30  35
ENDBRANCH  28  30
ENDBRANCH   4  28
TORSDOF 8
ENDMDL
MODEL 8
REMARK VINA RESULT:      -7.2      1.895      4.585
REMARK  8 active torsions:
REMARK  status: ('A' for Active; 'I' for Inactive)
REMARK    1  A    between atoms: N_24  and  C_2 
REMARK    2  A    between atoms: N_26  and  C_12 
REMARK    3  A    between atoms: O_27  and  C_13 
REMARK    4  A    between atoms: C_21  and  C_15 
REMARK    5  A    between atoms: C_22  and  C_18 
REMARK    6  A    between atoms: O_30  and  C_22 
REMARK    7  A    between atoms: N_26  and  C_23 
REMARK    8  A    between atoms: S_32  and  C_23 
ROOT
HETATM    1  C   UNK N   1      35.304  16.480  10.008  0.00  0.00     0.030 A 
HETATM    2  C   UNK N   1      34.295  16.758   9.113  0.00  0.00     0.015 A 
HETATM    3  C   UNK N   1      34.818  14.160   9.810  0.00  0.00     0.048 A 
HETATM    4  C   UNK N   1      35.612  15.173  10.325  0.00  0.00     0.035 A 
HETATM    5  C   UNK N   1      33.497  15.789   8.484  0.00  0.00    -0.007 A 
HETATM    6  C   UNK N   1      33.754  14.416   8.922  0.00  0.00     0.051 A 
ENDROOT
BRANCH   5   7
HETATM    7  C   UNK N   1      32.573  16.332   7.329  0.00  0.00     0.001 A 
HETATM    8  C   UNK N   1      32.926  16.072   5.932  0.00  0.00     0.010 A 
HETATM    9  C   UNK N   1      34.110  15.409   5.551  0.00  0.00     0.018 A 
HETATM   10  C   UNK N   1      32.045  16.452   4.875  0.00  0.00     0.089 A 
HETATM   11  C   UNK N   1      34.429  15.138   4.222  0.00  0.00     0.037 A 
HETATM   12  C   UNK N   1      33.554  15.515   3.216  0.00  0.00     0.068 A 
HETATM   13  C   UNK N   1      32.369  16.167   3.540  0.00  0.00     0.074 A 
HETATM   14  O   UNK N   1      30.896  17.044   5.110  0.00  0.00    -0.309 OA
HETATM   15  C   UNK N   1      30.489  17.342   6.324  0.00  0.00     0.091 A 
HETATM   16  C   UNK N   1      29.242  17.942   6.488  0.00  0.00     0.092 A 
HETATM   17  C   UNK N   1      31.331  17.016   7.509  0.00  0.00     0.010 A 
HETATM   18  C   UNK N   1      28.787  18.276   7.761  0.00  0.00     0.174 A 
HETATM   19  C   UNK N   1      29.588  18.035   8.874  0.00  0.00     0.056 A 
HETATM   20  O   UNK N   1      27.690  18.780   7.901  0.00  0.00    -0.288 OA
HETATM   21  C   UNK N   1      30.832  17.419   8.734  0.00  0.00     0.019 A 
BRANCH  12  22
HETATM   22  O   UNK N   1      33.847  15.240   1.934  0.00  0.00    -0.361 OA
HETATM   23  H   UNK N   1      33.380  14.576   1.466  0.00  0.00     0.217 HD
ENDBRANCH  12  22
ENDBRANCH   5   7
BRANCH   6  24
HETATM   24  C   UNK N   1      33.058  13.188   8.528  0.00  0.00     0.177 C 
HETATM   25  O   UNK N   1      32.655  13.080   7.378  0.00  0.00    -0.646 OA
BRANCH  24  26
HETATM   26  O   UNK N   1      32.532  12.391   9.477  0.00  0.00    -0.773 OA
HETATM   27  H   UNK N   1      32.637  11.752  10.155  0.00  0.00     0.167 HD
ENDBRANCH  24  26
ENDBRANCH   6  24
BRANCH   4  28
HETATM   28  N   UNK N   1      36.660  14.870  11.233  0.00  0.00    -0.337 N 
HETATM   29  H   UNK N   1      37.520  15.335  11.125  0.00  0.00     0.168 HD
BRANCH  28  30
HETATM   30  C   UNK N   1      36.529  13.926  12.293  0.00  0.00     0.137 C 
HETATM   31  N   UNK N   1      35.964  14.304  13.387  0.00  0.00    -0.371 N 
ATOM     32  HN  UNK N   1      35.565  15.243  13.426  1.00  0.00     0.161 HD
BRANCH  31  33
HETATM   33  C   UNK N   1      35.863  13.470  14.564  0.00  0.00     0.117 C 
HETATM   34  C   UNK N   1      36.703  14.017  15.701  0.00  0.00     0.026 C 
ENDBRANCH  31  33
BRANCH  30  35
HETATM   35  S   UNK N   1      37.203  12.247  12.124  0.00  0.00    -0.107 SA
HETATM   36  H   UNK N   1      38.506  11.902  11.949  0.00  0.00     0.110 HD
ENDBRANCH  30  35
ENDBRANCH  28  30
ENDBRANCH   4  28
TORSDOF 8
ENDMDL
MODEL 9
REMARK VINA RESULT:      -7.2      9.949     12.046
REMARK  8 active torsions:
REMARK  status: ('A' for Active; 'I' for Inactive)
REMARK    1  A    between atoms: N_24  and  C_2 
REMARK    2  A    between atoms: N_26  and  C_12 
REMARK    3  A    between atoms: O_27  and  C_13 
REMARK    4  A    between atoms: C_21  and  C_15 
REMARK    5  A    between atoms: C_22  and  C_18 
REMARK    6  A    between atoms: O_30  and  C_22 
REMARK    7  A    between atoms: N_26  and  C_23 
REMARK    8  A    between atoms: S_32  and  C_23 
ROOT
HETATM    1  C   UNK N   1      24.288  14.735   5.481  0.00  0.00     0.030 A 
HETATM    2  C   UNK N   1      23.441  15.293   4.550  0.00  0.00     0.015 A 
HETATM    3  C   UNK N   1      22.687  15.183   7.183  0.00  0.00     0.048 A 
HETATM    4  C   UNK N   1      23.897  14.625   6.800  0.00  0.00     0.035 A 
HETATM    5  C   UNK N   1      22.167  15.809   4.839  0.00  0.00    -0.007 A 
HETATM    6  C   UNK N   1      21.816  15.796   6.259  0.00  0.00     0.051 A 
ENDROOT
BRANCH   5   7
HETATM    7  C   UNK N   1      21.294  16.176   3.579  0.00  0.00     0.001 A 
HETATM    8  C   UNK N   1      21.190  17.572   3.147  0.00  0.00     0.010 A 
HETATM    9  C   UNK N   1      21.783  18.639   3.852  0.00  0.00     0.018 A 
HETATM   10  C   UNK N   1      20.503  17.912   1.943  0.00  0.00     0.089 A 
HETATM   11  C   UNK N   1      21.706  19.962   3.423  0.00  0.00     0.037 A 
HETATM   12  C   UNK N   1      21.035  20.264   2.249  0.00  0.00     0.068 A 
HETATM   13  C   UNK N   1      20.438  19.246   1.514  0.00  0.00     0.074 A 
HETATM   14  O   UNK N   1      19.942  16.999   1.184  0.00  0.00    -0.309 OA
HETATM   15  C   UNK N   1      19.957  15.720   1.487  0.00  0.00     0.091 A 
HETATM   16  C   UNK N   1      19.365  14.813   0.610  0.00  0.00     0.092 A 
HETATM   17  C   UNK N   1      20.626  15.242   2.730  0.00  0.00     0.010 A 
HETATM   18  C   UNK N   1      19.360  13.452   0.907  0.00  0.00     0.174 A 
HETATM   19  C   UNK N   1      19.925  12.995   2.094  0.00  0.00     0.056 A 
HETATM   20  O   UNK N   1      18.860  12.663   0.129  0.00  0.00    -0.288 OA
HETATM   21  C   UNK N   1      20.539  13.884   2.978  0.00  0.00     0.019 A 
BRANCH  12  22
HETATM   22  O   UNK N   1      20.973  21.535   1.820  0.00  0.00    -0.361 OA
HETATM   23  H   UNK N   1      21.642  22.152   2.045  0.00  0.00     0.217 HD
ENDBRANCH  12  22
ENDBRANCH   5   7
BRANCH   6  24
HETATM   24  C   UNK N   1      20.609  16.320   6.906  0.00  0.00     0.177 C 
HETATM   25  O   UNK N   1      20.726  17.180   7.767  0.00  0.00    -0.646 OA
BRANCH  24  26
HETATM   26  O   UNK N   1      19.467  15.609   6.851  0.00  0.00    -0.773 OA
HETATM   27  H   UNK N   1      18.977  14.836   7.053  0.00  0.00     0.167 HD
ENDBRANCH  24  26
ENDBRANCH   6  24
BRANCH   4  28
HETATM   28  N   UNK N   1      24.752  14.037   7.767  0.00  0.00    -0.337 N 
HETATM   29  H   UNK N   1      25.669  14.385   7.854  0.00  0.00     0.168 HD
BRANCH  28  30
HETATM   30  C   UNK N   1      24.352  12.967   8.620  0.00  0.00     0.137 C 
HETATM   31  N   UNK N   1      24.454  13.124   9.894  0.00  0.00    -0.371 N 
ATOM     32  HN  UNK N   1      24.749  14.035  10.246  1.00  0.00     0.161 HD
BRANCH  31  33
HETATM   33  C   UNK N   1      24.174  12.080  10.854  0.00  0.00     0.117 C 
HETATM   34  C   UNK N   1      22.765  12.194  11.399  0.00  0.00     0.026 C 
ENDBRANCH  31  33
BRANCH  30  35
HETATM   35  S   UNK N   1      23.769  11.395   7.919  0.00  0.00    -0.107 SA
HETATM   36  H   UNK N   1      24.245  10.767   6.812  0.00  0.00     0.110 HD
ENDBRANCH  30  35
ENDBRANCH  28  30
ENDBRANCH   4  28
TORSDOF 8
ENDMDL
