MODEL 1
REMARK VINA RESULT:      -4.8      0.000      0.000
REMARK  5 active torsions:
REMARK  status: ('A' for Active; 'I' for Inactive)
REMARK       I    between atoms: C_2  and  N_4 
REMARK    1  A    between atoms: C_5  and  N_4 
REMARK    2  A    between atoms: C_5  and  C_6 
REMARK    3  A    between atoms: C_5  and  C_8 
REMARK    4  A    between atoms: C_6  and  O_7 
REMARK    5  A    between atoms: C_8  and  O_9 
ROOT
HETATM    1  C   UNK N   1      33.450  17.391   8.693  0.00  0.00     0.206 C 
ENDROOT
BRANCH   1   2
HETATM    2  N   UNK N   1      33.834  16.396   9.689  0.00  0.00    -0.345 N 
HETATM    3  C   UNK N   1      34.889  16.322  10.539  0.00  0.00     0.214 C 
HETATM    4  C   UNK N   1      34.992  15.149  11.449  0.00  0.00     0.117 C 
HETATM    5  O   UNK N   1      35.750  17.181  10.581  0.00  0.00    -0.274 OA
HETATM    6  H   UNK N   1      33.211  15.636   9.757  0.00  0.00     0.163 HD
ENDBRANCH   1   2
BRANCH   1   7
HETATM    7  C   UNK N   1      31.924  17.491   8.562  0.00  0.00     0.200 C 
BRANCH   7   8
HETATM    8  O   UNK N   1      31.237  16.559   9.340  0.00  0.00    -0.398 OA
HETATM    9  H   UNK N   1      31.215  16.656  10.305  0.00  0.00     0.209 HD
ENDBRANCH   7   8
ENDBRANCH   1   7
BRANCH   1  10
HETATM   10  C   UNK N   1      34.414  18.244   7.866  0.00  0.00     0.165 C 
HETATM   11  O   UNK N   1      34.466  18.095   6.656  0.00  0.00    -0.648 OA
BRANCH  10  12
HETATM   12  O   UNK N   1      35.217  19.162   8.428  0.00  0.00    -0.775 OA
HETATM   13  H   UNK N   1      35.059  20.074   8.281  0.00  0.00     0.167 HD
ENDBRANCH  10  12
ENDBRANCH   1  10
TORSDOF 5
ENDMDL
MODEL 2
REMARK VINA RESULT:      -4.6     15.013     15.991
REMARK  5 active torsions:
REMARK  status: ('A' for Active; 'I' for Inactive)
REMARK       I    between atoms: C_2  and  N_4 
REMARK    1  A    between atoms: C_5  and  N_4 
REMARK    2  A    between atoms: C_5  and  C_6 
REMARK    3  A    between atoms: C_5  and  C_8 
REMARK    4  A    between atoms: C_6  and  O_7 
REMARK    5  A    between atoms: C_8  and  O_9 
ROOT
HETATM    1  C   UNK N   1      20.312  19.009   1.887  0.00  0.00     0.206 C 
ENDROOT
BRANCH   1   2
HETATM    2  N   UNK N   1      19.509  17.980   1.234  0.00  0.00    -0.345 N 
HETATM    3  C   UNK N   1      19.846  16.811   0.633  0.00  0.00     0.214 C 
HETATM    4  C   UNK N   1      18.764  15.969   0.052  0.00  0.00     0.117 C 
HETATM    5  O   UNK N   1      20.998  16.429   0.554  0.00  0.00    -0.274 OA
HETATM    6  H   UNK N   1      18.543  18.169   1.229  0.00  0.00     0.163 HD
ENDBRANCH   1   2
BRANCH   1   7
HETATM    7  C   UNK N   1      20.454  18.736   3.390  0.00  0.00     0.200 C 
BRANCH   7   8
HETATM    8  O   UNK N   1      20.662  19.888   4.148  0.00  0.00    -0.398 OA
HETATM    9  H   UNK N   1      20.746  20.749   3.708  0.00  0.00     0.209 HD
ENDBRANCH   7   8
ENDBRANCH   1   7
BRANCH   1  10
HETATM   10  C   UNK N   1      20.947  20.217   1.196  0.00  0.00     0.165 C 
HETATM   11  O   UNK N   1      21.775  20.888   1.791  0.00  0.00    -0.648 OA
BRANCH  10  12
HETATM   12  O   UNK N   1      20.623  20.575  -0.058  0.00  0.00    -0.775 OA
HETATM   13  H   UNK N   1      21.125  21.230  -0.502  0.00  0.00     0.167 HD
ENDBRANCH  10  12
ENDBRANCH   1  10
TORSDOF 5
ENDMDL
MODEL 3
REMARK VINA RESULT:      -4.6     13.176     14.883
REMARK  5 active torsions:
REMARK  status: ('A' for Active; 'I' for Inactive)
REMARK       I    between atoms: C_2  and  N_4 
REMARK    1  A    between atoms: C_5  and  N_4 
REMARK    2  A    between atoms: C_5  and  C_6 
REMARK    3  A    between atoms: C_5  and  C_8 
REMARK    4  A    between atoms: C_6  and  O_7 
REMARK    5  A    between atoms: C_8  and  O_9 
ROOT
HETATM    1  C   UNK N   1      20.552  18.981   2.005  0.00  0.00     0.206 C 
ENDROOT
BRANCH   1   2
HETATM    2  N   UNK N   1      20.634  18.765   3.446  0.00  0.00    -0.345 N 
HETATM    3  C   UNK N   1      21.690  18.577   4.277  0.00  0.00     0.214 C 
HETATM    4  C   UNK N   1      21.430  18.381   5.730  0.00  0.00     0.117 C 
HETATM    5  O   UNK N   1      22.839  18.562   3.876  0.00  0.00    -0.274 OA
HETATM    6  H   UNK N   1      19.761  18.754   3.900  0.00  0.00     0.163 HD
ENDBRANCH   1   2
BRANCH   1   7
HETATM    7  C   UNK N   1      20.096  17.710   1.275  0.00  0.00     0.200 C 
BRANCH   7   8
HETATM    8  O   UNK N   1      20.332  17.743  -0.098  0.00  0.00    -0.398 OA
HETATM    9  H   UNK N   1      19.875  17.117  -0.683  0.00  0.00     0.209 HD
ENDBRANCH   7   8
ENDBRANCH   1   7
BRANCH   1  10
HETATM   10  C   UNK N   1      20.871  20.290   1.279  0.00  0.00     0.165 C 
HETATM   11  O   UNK N   1      21.406  21.202   1.888  0.00  0.00    -0.648 OA
BRANCH  10  12
HETATM   12  O   UNK N   1      20.582  20.476  -0.019  0.00  0.00    -0.775 OA
HETATM   13  H   UNK N   1      19.752  20.201  -0.357  0.00  0.00     0.167 HD
ENDBRANCH  10  12
ENDBRANCH   1  10
TORSDOF 5
ENDMDL
MODEL 4
REMARK VINA RESULT:      -4.6      1.267      3.566
REMARK  5 active torsions:
REMARK  status: ('A' for Active; 'I' for Inactive)
REMARK       I    between atoms: C_2  and  N_4 
REMARK    1  A    between atoms: C_5  and  N_4 
REMARK    2  A    between atoms: C_5  and  C_6 
REMARK    3  A    between atoms: C_5  and  C_8 
REMARK    4  A    between atoms: C_6  and  O_7 
REMARK    5  A    between atoms: C_8  and  O_9 
ROOT
HETATM    1  C   UNK N   1      33.793  17.251   8.884  0.00  0.00     0.206 C 
ENDROOT
BRANCH   1   2
HETATM    2  N   UNK N   1      32.344  17.238   9.063  0.00  0.00    -0.345 N 
HETATM    3  C   UNK N   1      31.320  17.209   8.173  0.00  0.00     0.214 C 
HETATM    4  C   UNK N   1      29.924  17.202   8.690  0.00  0.00     0.117 C 
HETATM    5  O   UNK N   1      31.505  17.188   6.970  0.00  0.00    -0.274 OA
HETATM    6  H   UNK N   1      32.056  17.252  10.003  0.00  0.00     0.163 HD
ENDBRANCH   1   2
BRANCH   1   7
HETATM    7  C   UNK N   1      34.480  16.246   9.818  0.00  0.00     0.200 C 
BRANCH   7   8
HETATM    8  O   UNK N   1      34.938  16.813  11.006  0.00  0.00    -0.398 OA
HETATM    9  H   UNK N   1      34.324  17.297  11.581  0.00  0.00     0.209 HD
ENDBRANCH   7   8
ENDBRANCH   1   7
BRANCH   1  10
HETATM   10  C   UNK N   1      34.563  18.138   7.904  0.00  0.00     0.165 C 
HETATM   11  O   UNK N   1      35.238  19.062   8.327  0.00  0.00    -0.648 OA
BRANCH  10  12
HETATM   12  O   UNK N   1      34.524  17.937   6.576  0.00  0.00    -0.775 OA
HETATM   13  H   UNK N   1      34.881  18.580   5.995  0.00  0.00     0.167 HD
ENDBRANCH  10  12
ENDBRANCH   1  10
TORSDOF 5
ENDMDL
MODEL 5
REMARK VINA RESULT:      -4.4     10.856     13.332
REMARK  5 active torsions:
REMARK  status: ('A' for Active; 'I' for Inactive)
REMARK       I    between atoms: C_2  and  N_4 
REMARK    1  A    between atoms: C_5  and  N_4 
REMARK    2  A    between atoms: C_5  and  C_6 
REMARK    3  A    between atoms: C_5  and  C_8 
REMARK    4  A    between atoms: C_6  and  O_7 
REMARK    5  A    between atoms: C_8  and  O_9 
ROOT
HETATM    1  C   UNK N   1      22.874  12.837  10.592  0.00  0.00     0.206 C 
ENDROOT
BRANCH   1   2
HETATM    2  N   UNK N   1      22.079  13.827   9.873  0.00  0.00    -0.345 N 
HETATM    3  C   UNK N   1      20.739  13.980   9.722  0.00  0.00     0.214 C 
HETATM    4  C   UNK N   1      20.236  15.120   8.908  0.00  0.00     0.117 C 
HETATM    5  O   UNK N   1      19.937  13.218  10.230  0.00  0.00    -0.274 OA
HETATM    6  H   UNK N   1      22.614  14.512   9.411  0.00  0.00     0.163 HD
ENDBRANCH   1   2
BRANCH   1   7
HETATM    7  C   UNK N   1      24.232  12.612   9.914  0.00  0.00     0.200 C 
BRANCH   7   8
HETATM    8  O   UNK N   1      25.320  12.892  10.740  0.00  0.00    -0.398 OA
HETATM    9  H   UNK N   1      25.238  13.558  11.440  0.00  0.00     0.209 HD
ENDBRANCH   7   8
ENDBRANCH   1   7
BRANCH   1  10
HETATM   10  C   UNK N   1      22.444  12.098  11.861  0.00  0.00     0.165 C 
HETATM   11  O   UNK N   1      23.236  11.963  12.779  0.00  0.00    -0.648 OA
BRANCH  10  12
HETATM   12  O   UNK N   1      21.211  11.586  12.006  0.00  0.00    -0.775 OA
HETATM   13  H   UNK N   1      20.460  12.111  11.811  0.00  0.00     0.167 HD
ENDBRANCH  10  12
ENDBRANCH   1  10
TORSDOF 5
ENDMDL
MODEL 6
REMARK VINA RESULT:      -4.4      2.922      4.653
REMARK  5 active torsions:
REMARK  status: ('A' for Active; 'I' for Inactive)
REMARK       I    between atoms: C_2  and  N_4 
REMARK    1  A    between atoms: C_5  and  N_4 
REMARK    2  A    between atoms: C_5  and  C_6 
REMARK    3  A    between atoms: C_5  and  C_8 
REMARK    4  A    between atoms: C_6  and  O_7 
REMARK    5  A    between atoms: C_8  and  O_9 
ROOT
HETATM    1  C   UNK N   1      36.274  15.337  11.030  0.00  0.00     0.206 C 
ENDROOT
BRANCH   1   2
HETATM    2  N   UNK N   1      36.572  14.959  12.408  0.00  0.00    -0.345 N 
HETATM    3  C   UNK N   1      35.898  14.196  13.306  0.00  0.00     0.214 C 
HETATM    4  C   UNK N   1      36.486  14.001  14.660  0.00  0.00     0.117 C 
HETATM    5  O   UNK N   1      34.834  13.669  13.043  0.00  0.00    -0.274 OA
HETATM    6  H   UNK N   1      37.419  15.325  12.750  0.00  0.00     0.163 HD
ENDBRANCH   1   2
BRANCH   1   7
HETATM    7  C   UNK N   1      37.137  14.548  10.036  0.00  0.00     0.200 C 
BRANCH   7   8
HETATM    8  O   UNK N   1      38.475  14.940  10.029  0.00  0.00    -0.398 OA
HETATM    9  H   UNK N   1      39.051  14.683   9.292  0.00  0.00     0.209 HD
ENDBRANCH   7   8
ENDBRANCH   1   7
BRANCH   1  10
HETATM   10  C   UNK N   1      35.242  16.378  10.594  0.00  0.00     0.165 C 
HETATM   11  O   UNK N   1      35.604  17.513  10.330  0.00  0.00    -0.648 OA
BRANCH  10  12
HETATM   12  O   UNK N   1      33.934  16.089  10.490  0.00  0.00    -0.775 OA
HETATM   13  H   UNK N   1      33.433  16.438   9.779  0.00  0.00     0.167 HD
ENDBRANCH  10  12
ENDBRANCH   1  10
TORSDOF 5
ENDMDL
MODEL 7
REMARK VINA RESULT:      -4.3      2.447      3.438
REMARK  5 active torsions:
REMARK  status: ('A' for Active; 'I' for Inactive)
REMARK       I    between atoms: C_2  and  N_4 
REMARK    1  A    between atoms: C_5  and  N_4 
REMARK    2  A    between atoms: C_5  and  C_6 
REMARK    3  A    between atoms: C_5  and  C_8 
REMARK    4  A    between atoms: C_6  and  O_7 
REMARK    5  A    between atoms: C_8  and  O_9 
ROOT
HETATM    1  C   UNK N   1      34.617  15.294  10.675  0.00  0.00     0.206 C 
ENDROOT
BRANCH   1   2
HETATM    2  N   UNK N   1      34.472  14.240  11.675  0.00  0.00    -0.345 N 
HETATM    3  C   UNK N   1      35.319  13.268  12.099  0.00  0.00     0.214 C 
HETATM    4  C   UNK N   1      34.856  12.330  13.157  0.00  0.00     0.117 C 
HETATM    5  O   UNK N   1      36.440  13.140  11.644  0.00  0.00    -0.274 OA
HETATM    6  H   UNK N   1      33.597  14.232  12.124  0.00  0.00     0.163 HD
ENDBRANCH   1   2
BRANCH   1   7
HETATM    7  C   UNK N   1      33.497  15.229   9.628  0.00  0.00     0.200 C 
BRANCH   7   8
HETATM    8  O   UNK N   1      32.904  16.464   9.370  0.00  0.00    -0.398 OA
HETATM    9  H   UNK N   1      32.046  16.505   8.920  0.00  0.00     0.209 HD
ENDBRANCH   7   8
ENDBRANCH   1   7
BRANCH   1  10
HETATM   10  C   UNK N   1      35.728  16.345  10.643  0.00  0.00     0.165 C 
HETATM   11  O   UNK N   1      35.456  17.503  10.367  0.00  0.00    -0.648 OA
BRANCH  10  12
HETATM   12  O   UNK N   1      37.008  16.041  10.910  0.00  0.00    -0.775 OA
HETATM   13  H   UNK N   1      37.590  16.703  11.229  0.00  0.00     0.167 HD
ENDBRANCH  10  12
ENDBRANCH   1  10
TORSDOF 5
ENDMDL
MODEL 8
REMARK VINA RESULT:      -4.2      2.508      3.854
REMARK  5 active torsions:
REMARK  status: ('A' for Active; 'I' for Inactive)
REMARK       I    between atoms: C_2  and  N_4 
REMARK    1  A    between atoms: C_5  and  N_4 
REMARK    2  A    between atoms: C_5  and  C_6 
REMARK    3  A    between atoms: C_5  and  C_8 
REMARK    4  A    between atoms: C_6  and  O_7 
REMARK    5  A    between atoms: C_8  and  O_9 
ROOT
HETATM    1  C   UNK N   1      34.991  15.201   9.538  0.00  0.00     0.206 C 
ENDROOT
BRANCH   1   2
HETATM    2  N   UNK N   1      35.314  14.830   8.164  0.00  0.00    -0.345 N 
HETATM    3  C   UNK N   1      35.191  15.499   6.990  0.00  0.00     0.214 C 
HETATM    4  C   UNK N   1      35.622  14.825   5.735  0.00  0.00     0.117 C 
HETATM    5  O   UNK N   1      34.742  16.628   6.930  0.00  0.00    -0.274 OA
HETATM    6  H   UNK N   1      35.691  13.925   8.072  0.00  0.00     0.163 HD
ENDBRANCH   1   2
BRANCH   1   7
HETATM    7  C   UNK N   1      33.779  14.416  10.058  0.00  0.00     0.200 C 
BRANCH   7   8
HETATM    8  O   UNK N   1      33.142  15.026  11.138  0.00  0.00    -0.398 OA
HETATM    9  H   UNK N   1      33.629  15.652  11.697  0.00  0.00     0.209 HD
ENDBRANCH   7   8
ENDBRANCH   1   7
BRANCH   1  10
HETATM   10  C   UNK N   1      35.739  16.234  10.383  0.00  0.00     0.165 C 
HETATM   11  O   UNK N   1      35.195  17.288  10.670  0.00  0.00    -0.648 OA
BRANCH  10  12
HETATM   12  O   UNK N   1      36.989  16.023  10.827  0.00  0.00    -0.775 OA
HETATM   13  H   UNK N   1      37.287  15.150  10.991  0.00  0.00     0.167 HD
ENDBRANCH  10  12
ENDBRANCH   1  10
TORSDOF 5
ENDMDL
MODEL 9
REMARK VINA RESULT:      -4.1     11.464     12.566
REMARK  5 active torsions:
REMARK  status: ('A' for Active; 'I' for Inactive)
REMARK       I    between atoms: C_2  and  N_4 
REMARK    1  A    between atoms: C_5  and  N_4 
REMARK    2  A    between atoms: C_5  and  C_6 
REMARK    3  A    between atoms: C_5  and  C_8 
REMARK    4  A    between atoms: C_6  and  O_7 
REMARK    5  A    between atoms: C_8  and  O_9 
ROOT
HETATM    1  C   UNK N   1      22.608  11.907  11.005  0.00  0.00     0.206 C 
ENDROOT
BRANCH   1   2
HETATM    2  N   UNK N   1      22.859  11.317   9.694  0.00  0.00    -0.345 N 
HETATM    3  C   UNK N   1      23.768  11.606   8.728  0.00  0.00     0.214 C 
HETATM    4  C   UNK N   1      23.762  10.798   7.478  0.00  0.00     0.117 C 
HETATM    5  O   UNK N   1      24.585  12.499   8.850  0.00  0.00    -0.274 OA
HETATM    6  H   UNK N   1      22.258  10.572   9.468  0.00  0.00     0.163 HD
ENDBRANCH   1   2
BRANCH   1   7
HETATM    7  C   UNK N   1      21.154  12.381  11.134  0.00  0.00     0.200 C 
BRANCH   7   8
HETATM    8  O   UNK N   1      20.616  12.859   9.940  0.00  0.00    -0.398 OA
HETATM    9  H   UNK N   1      20.043  13.641   9.945  0.00  0.00     0.209 HD
ENDBRANCH   7   8
ENDBRANCH   1   7
BRANCH   1  10
HETATM   10  C   UNK N   1      23.634  12.052  12.130  0.00  0.00     0.165 C 
HETATM   11  O   UNK N   1      23.276  11.948  13.292  0.00  0.00    -0.648 OA
BRANCH  10  12
HETATM   12  O   UNK N   1      24.933  12.293  11.886  0.00  0.00    -0.775 OA
HETATM   13  H   UNK N   1      25.275  13.159  11.985  0.00  0.00     0.167 HD
ENDBRANCH  10  12
ENDBRANCH   1  10
TORSDOF 5
ENDMDL
