MODEL 1
REMARK VINA RESULT:      -3.9      0.000      0.000
REMARK  4 active torsions:
REMARK  status: ('A' for Active; 'I' for Inactive)
REMARK    1  A    between atoms: C_2  and  C_3 
REMARK    2  A    between atoms: C_3  and  C_4 
REMARK    3  A    between atoms: C_4  and  C_5 
REMARK    4  A    between atoms: C_5  and  O_6 
ROOT
HETATM    1  C   UNK N   1      22.930  11.581  10.830  0.00  0.00     0.110 C 
ENDROOT
BRANCH   1   2
HETATM    2  C   UNK N   1      21.664  12.424  10.837  0.00  0.00     0.010 C 
BRANCH   2   3
HETATM    3  C   UNK N   1      21.795  13.607   9.906  0.00  0.00    -0.004 C 
HETATM    4  C   UNK N   1      20.416  14.186   9.671  0.00  0.00     0.005 C 
ENDBRANCH   2   3
ENDBRANCH   1   2
BRANCH   1   5
HETATM    5  C   UNK N   1      23.903  12.038  11.880  0.00  0.00     0.139 C 
HETATM    6  O   UNK N   1      23.604  12.014  13.065  0.00  0.00    -0.650 OA
BRANCH   5   7
HETATM    7  O   UNK N   1      25.119  12.479  11.511  0.00  0.00    -0.776 OA
HETATM    8  H   UNK N   1      25.280  12.716  10.619  0.00  0.00     0.167 HD
ENDBRANCH   5   7
ENDBRANCH   1   5
TORSDOF 4
ENDMDL
MODEL 2
REMARK VINA RESULT:      -3.8     11.208     12.054
REMARK  4 active torsions:
REMARK  status: ('A' for Active; 'I' for Inactive)
REMARK    1  A    between atoms: C_2  and  C_3 
REMARK    2  A    between atoms: C_3  and  C_4 
REMARK    3  A    between atoms: C_4  and  C_5 
REMARK    4  A    between atoms: C_5  and  O_6 
ROOT
HETATM    1  C   UNK N   1      33.266  17.630   8.669  0.00  0.00     0.110 C 
ENDROOT
BRANCH   1   2
HETATM    2  C   UNK N   1      31.959  17.675   7.892  0.00  0.00     0.010 C 
BRANCH   2   3
HETATM    3  C   UNK N   1      30.784  17.367   8.789  0.00  0.00    -0.004 C 
HETATM    4  C   UNK N   1      30.139  18.674   9.199  0.00  0.00     0.005 C 
ENDBRANCH   2   3
ENDBRANCH   1   2
BRANCH   1   5
HETATM    5  C   UNK N   1      34.392  18.248   7.891  0.00  0.00     0.139 C 
HETATM    6  O   UNK N   1      34.568  17.971   6.712  0.00  0.00    -0.650 OA
BRANCH   5   7
HETATM    7  O   UNK N   1      35.218  19.119   8.497  0.00  0.00    -0.776 OA
HETATM    8  H   UNK N   1      35.713  19.729   7.986  0.00  0.00     0.167 HD
ENDBRANCH   5   7
ENDBRANCH   1   5
TORSDOF 4
ENDMDL
MODEL 3
REMARK VINA RESULT:      -3.6     20.776     21.939
REMARK  4 active torsions:
REMARK  status: ('A' for Active; 'I' for Inactive)
REMARK    1  A    between atoms: C_2  and  C_3 
REMARK    2  A    between atoms: C_3  and  C_4 
REMARK    3  A    between atoms: C_4  and  C_5 
REMARK    4  A    between atoms: C_5  and  O_6 
ROOT
HETATM    1  C   UNK N   1      26.008  27.958  -5.270  0.00  0.00     0.110 C 
ENDROOT
BRANCH   1   2
HETATM    2  C   UNK N   1      24.913  26.964  -5.627  0.00  0.00     0.010 C 
BRANCH   2   3
HETATM    3  C   UNK N   1      25.499  25.697  -6.204  0.00  0.00    -0.004 C 
HETATM    4  C   UNK N   1      25.641  24.683  -5.088  0.00  0.00     0.005 C 
ENDBRANCH   2   3
ENDBRANCH   1   2
BRANCH   1   5
HETATM    5  C   UNK N   1      25.819  28.512  -3.886  0.00  0.00     0.139 C 
HETATM    6  O   UNK N   1      25.472  27.790  -2.962  0.00  0.00    -0.650 OA
BRANCH   5   7
HETATM    7  O   UNK N   1      26.035  29.820  -3.660  0.00  0.00    -0.776 OA
HETATM    8  H   UNK N   1      25.860  30.184  -2.815  0.00  0.00     0.167 HD
ENDBRANCH   5   7
ENDBRANCH   1   5
TORSDOF 4
ENDMDL
MODEL 4
REMARK VINA RESULT:      -3.6      1.168      1.726
REMARK  4 active torsions:
REMARK  status: ('A' for Active; 'I' for Inactive)
REMARK    1  A    between atoms: C_2  and  C_3 
REMARK    2  A    between atoms: C_3  and  C_4 
REMARK    3  A    between atoms: C_4  and  C_5 
REMARK    4  A    between atoms: C_5  and  O_6 
ROOT
HETATM    1  C   UNK N   1      23.182  11.644  10.416  0.00  0.00     0.110 C 
ENDROOT
BRANCH   1   2
HETATM    2  C   UNK N   1      22.082  12.397  11.148  0.00  0.00     0.010 C 
BRANCH   2   3
HETATM    3  C   UNK N   1      20.988  12.819  10.196  0.00  0.00    -0.004 C 
HETATM    4  C   UNK N   1      21.321  14.197   9.665  0.00  0.00     0.005 C 
ENDBRANCH   2   3
ENDBRANCH   1   2
BRANCH   1   5
HETATM    5  C   UNK N   1      24.480  12.400  10.442  0.00  0.00     0.139 C 
HETATM    6  O   UNK N   1      24.870  13.012   9.457  0.00  0.00    -0.650 OA
BRANCH   5   7
HETATM    7  O   UNK N   1      25.223  12.404  11.562  0.00  0.00    -0.776 OA
HETATM    8  H   UNK N   1      26.013  11.902  11.602  0.00  0.00     0.167 HD
ENDBRANCH   5   7
ENDBRANCH   1   5
TORSDOF 4
ENDMDL
MODEL 5
REMARK VINA RESULT:      -3.5     11.069     12.497
REMARK  4 active torsions:
REMARK  status: ('A' for Active; 'I' for Inactive)
REMARK    1  A    between atoms: C_2  and  C_3 
REMARK    2  A    between atoms: C_3  and  C_4 
REMARK    3  A    between atoms: C_4  and  C_5 
REMARK    4  A    between atoms: C_5  and  O_6 
ROOT
HETATM    1  C   UNK N   1      21.003  20.714   2.388  0.00  0.00     0.110 C 
ENDROOT
BRANCH   1   2
HETATM    2  C   UNK N   1      20.048  19.570   2.686  0.00  0.00     0.010 C 
BRANCH   2   3
HETATM    3  C   UNK N   1      20.790  18.373   3.234  0.00  0.00    -0.004 C 
HETATM    4  C   UNK N   1      19.783  17.283   3.536  0.00  0.00     0.005 C 
ENDBRANCH   2   3
ENDBRANCH   1   2
BRANCH   1   5
HETATM    5  C   UNK N   1      20.828  21.228   0.987  0.00  0.00     0.139 C 
HETATM    6  O   UNK N   1      21.105  20.528   0.022  0.00  0.00    -0.650 OA
BRANCH   5   7
HETATM    7  O   UNK N   1      20.360  22.473   0.790  0.00  0.00    -0.776 OA
HETATM    8  H   UNK N   1      19.627  22.614   0.224  0.00  0.00     0.167 HD
ENDBRANCH   5   7
ENDBRANCH   1   5
TORSDOF 4
ENDMDL
MODEL 6
REMARK VINA RESULT:      -3.4      3.047      4.063
REMARK  4 active torsions:
REMARK  status: ('A' for Active; 'I' for Inactive)
REMARK    1  A    between atoms: C_2  and  C_3 
REMARK    2  A    between atoms: C_3  and  C_4 
REMARK    3  A    between atoms: C_4  and  C_5 
REMARK    4  A    between atoms: C_5  and  O_6 
ROOT
HETATM    1  C   UNK N   1      21.180  12.804  10.009  0.00  0.00     0.110 C 
ENDROOT
BRANCH   1   2
HETATM    2  C   UNK N   1      22.665  12.999  10.276  0.00  0.00     0.010 C 
BRANCH   2   3
HETATM    3  C   UNK N   1      23.259  11.785  10.950  0.00  0.00    -0.004 C 
HETATM    4  C   UNK N   1      23.089  11.937  12.446  0.00  0.00     0.005 C 
ENDBRANCH   2   3
ENDBRANCH   1   2
BRANCH   1   5
HETATM    5  C   UNK N   1      20.507  14.101   9.661  0.00  0.00     0.139 C 
HETATM    6  O   UNK N   1      19.301  14.241   9.807  0.00  0.00    -0.650 OA
BRANCH   5   7
HETATM    7  O   UNK N   1      21.240  15.122   9.184  0.00  0.00    -0.776 OA
HETATM    8  H   UNK N   1      21.365  15.892   9.704  0.00  0.00     0.167 HD
ENDBRANCH   5   7
ENDBRANCH   1   5
TORSDOF 4
ENDMDL
MODEL 7
REMARK VINA RESULT:      -3.4     13.262     13.998
REMARK  4 active torsions:
REMARK  status: ('A' for Active; 'I' for Inactive)
REMARK    1  A    between atoms: C_2  and  C_3 
REMARK    2  A    between atoms: C_3  and  C_4 
REMARK    3  A    between atoms: C_4  and  C_5 
REMARK    4  A    between atoms: C_5  and  O_6 
ROOT
HETATM    1  C   UNK N   1      36.232  13.340  15.575  0.00  0.00     0.110 C 
ENDROOT
BRANCH   1   2
HETATM    2  C   UNK N   1      35.012  12.731  16.249  0.00  0.00     0.010 C 
BRANCH   2   3
HETATM    3  C   UNK N   1      35.101  12.862  17.751  0.00  0.00    -0.004 C 
HETATM    4  C   UNK N   1      35.395  14.308  18.089  0.00  0.00     0.005 C 
ENDBRANCH   2   3
ENDBRANCH   1   2
BRANCH   1   5
HETATM    5  C   UNK N   1      35.916  13.810  14.184  0.00  0.00     0.139 C 
HETATM    6  O   UNK N   1      34.865  13.500  13.640  0.00  0.00    -0.650 OA
BRANCH   5   7
HETATM    7  O   UNK N   1      36.801  14.582  13.527  0.00  0.00    -0.776 OA
HETATM    8  H   UNK N   1      37.692  14.618  13.813  0.00  0.00     0.167 HD
ENDBRANCH   5   7
ENDBRANCH   1   5
TORSDOF 4
ENDMDL
MODEL 8
REMARK VINA RESULT:      -3.2     18.833     19.460
REMARK  4 active torsions:
REMARK  status: ('A' for Active; 'I' for Inactive)
REMARK    1  A    between atoms: C_2  and  C_3 
REMARK    2  A    between atoms: C_3  and  C_4 
REMARK    3  A    between atoms: C_4  and  C_5 
REMARK    4  A    between atoms: C_5  and  O_6 
ROOT
HETATM    1  C   UNK N   1      31.125  21.838  -4.081  0.00  0.00     0.110 C 
ENDROOT
BRANCH   1   2
HETATM    2  C   UNK N   1      31.170  20.368  -4.468  0.00  0.00     0.010 C 
BRANCH   2   3
HETATM    3  C   UNK N   1      30.998  20.195  -5.959  0.00  0.00    -0.004 C 
HETATM    4  C   UNK N   1      30.054  21.267  -6.459  0.00  0.00     0.005 C 
ENDBRANCH   2   3
ENDBRANCH   1   2
BRANCH   1   5
HETATM    5  C   UNK N   1      31.528  22.043  -2.648  0.00  0.00     0.139 C 
HETATM    6  O   UNK N   1      30.939  22.847  -1.939  0.00  0.00    -0.650 OA
BRANCH   5   7
HETATM    7  O   UNK N   1      32.551  21.335  -2.138  0.00  0.00    -0.776 OA
HETATM    8  H   UNK N   1      32.402  20.745  -1.426  0.00  0.00     0.167 HD
ENDBRANCH   5   7
ENDBRANCH   1   5
TORSDOF 4
ENDMDL
MODEL 9
REMARK VINA RESULT:      -3.2     11.940     13.242
REMARK  4 active torsions:
REMARK  status: ('A' for Active; 'I' for Inactive)
REMARK    1  A    between atoms: C_2  and  C_3 
REMARK    2  A    between atoms: C_3  and  C_4 
REMARK    3  A    between atoms: C_4  and  C_5 
REMARK    4  A    between atoms: C_5  and  O_6 
ROOT
HETATM    1  C   UNK N   1      36.111  12.891  14.981  0.00  0.00     0.110 C 
ENDROOT
BRANCH   1   2
HETATM    2  C   UNK N   1      34.811  12.526  15.680  0.00  0.00     0.010 C 
BRANCH   2   3
HETATM    3  C   UNK N   1      34.576  11.034  15.644  0.00  0.00    -0.004 C 
HETATM    4  C   UNK N   1      33.590  10.732  14.535  0.00  0.00     0.005 C 
ENDBRANCH   2   3
ENDBRANCH   1   2
BRANCH   1   5
HETATM    5  C   UNK N   1      35.878  13.843  13.843  0.00  0.00     0.139 C 
HETATM    6  O   UNK N   1      34.907  13.718  13.109  0.00  0.00    -0.650 OA
BRANCH   5   7
HETATM    7  O   UNK N   1      36.747  14.846  13.628  0.00  0.00    -0.776 OA
HETATM    8  H   UNK N   1      37.538  14.686  13.152  0.00  0.00     0.167 HD
ENDBRANCH   5   7
ENDBRANCH   1   5
TORSDOF 4
ENDMDL
