MODEL 1
REMARK VINA RESULT:      -4.4      0.000      0.000
REMARK  2 active torsions:
REMARK  status: ('A' for Active; 'I' for Inactive)
REMARK    1  A    between atoms: O_1  and  C_2 
REMARK    2  A    between atoms: C_7  and  O_8 
ROOT
HETATM    1  C   UNK N   1      22.621  11.949  11.901  0.00  0.00     0.098 A 
HETATM    2  C   UNK N   1      21.356  12.181  11.354  0.00  0.00     0.039 A 
HETATM    3  C   UNK N   1      21.237  12.806  10.109  0.00  0.00     0.003 A 
HETATM    4  C   UNK N   1      22.383  13.200   9.409  0.00  0.00     0.003 A 
HETATM    5  C   UNK N   1      23.648  12.969   9.956  0.00  0.00     0.039 A 
HETATM    6  C   UNK N   1      23.769  12.343  11.202  0.00  0.00     0.098 A 
ENDROOT
BRANCH   1   7
HETATM    7  O   UNK N   1      22.734  11.348  13.098  0.00  0.00    -0.358 OA
HETATM    8  H   UNK N   1      22.104  10.706  13.361  0.00  0.00     0.217 HD
ENDBRANCH   1   7
BRANCH   6   9
HETATM    9  O   UNK N   1      24.987  12.123  11.722  0.00  0.00    -0.358 OA
HETATM   10  H   UNK N   1      25.752  12.398  11.256  0.00  0.00     0.217 HD
ENDBRANCH   6   9
TORSDOF 2
ENDMDL
MODEL 2
REMARK VINA RESULT:      -4.4      0.005      2.198
REMARK  2 active torsions:
REMARK  status: ('A' for Active; 'I' for Inactive)
REMARK    1  A    between atoms: O_1  and  C_2 
REMARK    2  A    between atoms: C_7  and  O_8 
ROOT
HETATM    1  C   UNK N   1      23.768  12.342  11.202  0.00  0.00     0.098 A 
HETATM    2  C   UNK N   1      23.645  12.966   9.957  0.00  0.00     0.039 A 
HETATM    3  C   UNK N   1      22.378  13.198   9.414  0.00  0.00     0.003 A 
HETATM    4  C   UNK N   1      21.232  12.806  10.114  0.00  0.00     0.003 A 
HETATM    5  C   UNK N   1      21.354  12.183  11.359  0.00  0.00     0.039 A 
HETATM    6  C   UNK N   1      22.622  11.949  11.904  0.00  0.00     0.098 A 
ENDROOT
BRANCH   1   7
HETATM    7  O   UNK N   1      24.988  12.119  11.722  0.00  0.00    -0.358 OA
HETATM    8  H   UNK N   1      25.563  11.499  11.319  0.00  0.00     0.217 HD
ENDBRANCH   1   7
BRANCH   6   9
HETATM    9  O   UNK N   1      22.734  11.350  13.100  0.00  0.00    -0.358 OA
HETATM   10  H   UNK N   1      23.504  10.858  13.307  0.00  0.00     0.217 HD
ENDBRANCH   6   9
TORSDOF 2
ENDMDL
MODEL 3
REMARK VINA RESULT:      -4.3     18.771     19.293
REMARK  2 active torsions:
REMARK  status: ('A' for Active; 'I' for Inactive)
REMARK    1  A    between atoms: O_1  and  C_2 
REMARK    2  A    between atoms: C_7  and  O_8 
ROOT
HETATM    1  C   UNK N   1      31.829  21.471  -2.945  0.00  0.00     0.098 A 
HETATM    2  C   UNK N   1      31.942  20.802  -4.167  0.00  0.00     0.039 A 
HETATM    3  C   UNK N   1      31.012  21.041  -5.184  0.00  0.00     0.003 A 
HETATM    4  C   UNK N   1      29.968  21.949  -4.979  0.00  0.00     0.003 A 
HETATM    5  C   UNK N   1      29.853  22.618  -3.758  0.00  0.00     0.039 A 
HETATM    6  C   UNK N   1      30.783  22.380  -2.739  0.00  0.00     0.098 A 
ENDROOT
BRANCH   1   7
HETATM    7  O   UNK N   1      32.724  21.240  -1.969  0.00  0.00    -0.358 OA
HETATM    8  H   UNK N   1      33.641  21.311  -2.148  0.00  0.00     0.217 HD
ENDBRANCH   1   7
BRANCH   6   9
HETATM    9  O   UNK N   1      30.669  23.026  -1.568  0.00  0.00    -0.358 OA
HETATM   10  H   UNK N   1      30.633  23.962  -1.550  0.00  0.00     0.217 HD
ENDBRANCH   6   9
TORSDOF 2
ENDMDL
MODEL 4
REMARK VINA RESULT:      -4.3     18.752     19.223
REMARK  2 active torsions:
REMARK  status: ('A' for Active; 'I' for Inactive)
REMARK    1  A    between atoms: O_1  and  C_2 
REMARK    2  A    between atoms: C_7  and  O_8 
ROOT
HETATM    1  C   UNK N   1      30.747  22.385  -2.737  0.00  0.00     0.098 A 
HETATM    2  C   UNK N   1      29.815  22.644  -3.746  0.00  0.00     0.039 A 
HETATM    3  C   UNK N   1      29.919  21.992  -4.979  0.00  0.00     0.003 A 
HETATM    4  C   UNK N   1      30.955  21.080  -5.204  0.00  0.00     0.003 A 
HETATM    5  C   UNK N   1      31.888  20.820  -4.196  0.00  0.00     0.039 A 
HETATM    6  C   UNK N   1      31.785  21.471  -2.962  0.00  0.00     0.098 A 
ENDROOT
BRANCH   1   7
HETATM    7  O   UNK N   1      30.645  23.013  -1.553  0.00  0.00    -0.358 OA
HETATM    8  H   UNK N   1      30.600  22.514  -0.761  0.00  0.00     0.217 HD
ENDBRANCH   1   7
BRANCH   6   9
HETATM    9  O   UNK N   1      32.683  21.218  -1.996  0.00  0.00    -0.358 OA
HETATM   10  H   UNK N   1      33.332  20.554  -2.123  0.00  0.00     0.217 HD
ENDBRANCH   6   9
TORSDOF 2
ENDMDL
MODEL 5
REMARK VINA RESULT:      -4.2     10.857     12.016
REMARK  2 active torsions:
REMARK  status: ('A' for Active; 'I' for Inactive)
REMARK    1  A    between atoms: O_1  and  C_2 
REMARK    2  A    between atoms: C_7  and  O_8 
ROOT
HETATM    1  C   UNK N   1      21.096  20.452   2.472  0.00  0.00     0.098 A 
HETATM    2  C   UNK N   1      21.099  19.700   3.650  0.00  0.00     0.039 A 
HETATM    3  C   UNK N   1      20.720  18.354   3.621  0.00  0.00     0.003 A 
HETATM    4  C   UNK N   1      20.337  17.760   2.415  0.00  0.00     0.003 A 
HETATM    5  C   UNK N   1      20.334  18.510   1.236  0.00  0.00     0.039 A 
HETATM    6  C   UNK N   1      20.713  19.857   1.263  0.00  0.00     0.098 A 
ENDROOT
BRANCH   1   7
HETATM    7  O   UNK N   1      21.461  21.746   2.502  0.00  0.00    -0.358 OA
HETATM    8  H   UNK N   1      22.123  22.059   1.917  0.00  0.00     0.217 HD
ENDBRANCH   1   7
BRANCH   6   9
HETATM    9  O   UNK N   1      20.708  20.575   0.128  0.00  0.00    -0.358 OA
HETATM   10  H   UNK N   1      20.415  20.184  -0.672  0.00  0.00     0.217 HD
ENDBRANCH   6   9
TORSDOF 2
ENDMDL
MODEL 6
REMARK VINA RESULT:      -4.2      1.041      2.447
REMARK  2 active torsions:
REMARK  status: ('A' for Active; 'I' for Inactive)
REMARK    1  A    between atoms: O_1  and  C_2 
REMARK    2  A    between atoms: C_7  and  O_8 
ROOT
HETATM    1  C   UNK N   1      23.830  13.027   9.871  0.00  0.00     0.098 A 
HETATM    2  C   UNK N   1      22.579  13.280   9.302  0.00  0.00     0.039 A 
HETATM    3  C   UNK N   1      21.416  12.868   9.961  0.00  0.00     0.003 A 
HETATM    4  C   UNK N   1      21.504  12.202  11.188  0.00  0.00     0.003 A 
HETATM    5  C   UNK N   1      22.754  11.950  11.757  0.00  0.00     0.039 A 
HETATM    6  C   UNK N   1      23.919  12.361  11.100  0.00  0.00     0.098 A 
ENDROOT
BRANCH   1   7
HETATM    7  O   UNK N   1      24.947  13.425   9.236  0.00  0.00    -0.358 OA
HETATM    8  H   UNK N   1      25.756  12.976   9.387  0.00  0.00     0.217 HD
ENDBRANCH   1   7
BRANCH   6   9
HETATM    9  O   UNK N   1      25.119  12.116  11.651  0.00  0.00    -0.358 OA
HETATM   10  H   UNK N   1      25.864  11.965  11.103  0.00  0.00     0.217 HD
ENDBRANCH   6   9
TORSDOF 2
ENDMDL
MODEL 7
REMARK VINA RESULT:      -4.2     14.147     14.562
REMARK  2 active torsions:
REMARK  status: ('A' for Active; 'I' for Inactive)
REMARK    1  A    between atoms: O_1  and  C_2 
REMARK    2  A    between atoms: C_7  and  O_8 
ROOT
HETATM    1  C   UNK N   1      35.208  12.815  19.282  0.00  0.00     0.098 A 
HETATM    2  C   UNK N   1      35.319  11.468  18.926  0.00  0.00     0.039 A 
HETATM    3  C   UNK N   1      35.478  11.111  17.583  0.00  0.00     0.003 A 
HETATM    4  C   UNK N   1      35.526  12.100  16.595  0.00  0.00     0.003 A 
HETATM    5  C   UNK N   1      35.415  13.447  16.950  0.00  0.00     0.039 A 
HETATM    6  C   UNK N   1      35.255  13.806  18.293  0.00  0.00     0.098 A 
ENDROOT
BRANCH   1   7
HETATM    7  O   UNK N   1      35.055  13.156  20.573  0.00  0.00    -0.358 OA
HETATM    8  H   UNK N   1      35.790  13.464  21.066  0.00  0.00     0.217 HD
ENDBRANCH   1   7
BRANCH   6   9
HETATM    9  O   UNK N   1      35.149  15.102  18.629  0.00  0.00    -0.358 OA
HETATM   10  H   UNK N   1      35.707  15.462  19.290  0.00  0.00     0.217 HD
ENDBRANCH   6   9
TORSDOF 2
ENDMDL
MODEL 8
REMARK VINA RESULT:      -4.2     14.117     14.646
REMARK  2 active torsions:
REMARK  status: ('A' for Active; 'I' for Inactive)
REMARK    1  A    between atoms: O_1  and  C_2 
REMARK    2  A    between atoms: C_7  and  O_8 
ROOT
HETATM    1  C   UNK N   1      35.262  13.758  18.265  0.00  0.00     0.098 A 
HETATM    2  C   UNK N   1      35.395  13.402  16.920  0.00  0.00     0.039 A 
HETATM    3  C   UNK N   1      35.500  12.054  16.561  0.00  0.00     0.003 A 
HETATM    4  C   UNK N   1      35.472  11.062  17.547  0.00  0.00     0.003 A 
HETATM    5  C   UNK N   1      35.339  11.417  18.892  0.00  0.00     0.039 A 
HETATM    6  C   UNK N   1      35.233  12.765  19.253  0.00  0.00     0.098 A 
ENDROOT
BRANCH   1   7
HETATM    7  O   UNK N   1      35.160  15.054  18.608  0.00  0.00    -0.358 OA
HETATM    8  H   UNK N   1      35.497  15.348  19.432  0.00  0.00     0.217 HD
ENDBRANCH   1   7
BRANCH   6   9
HETATM    9  O   UNK N   1      35.105  13.102  20.546  0.00  0.00    -0.358 OA
HETATM   10  H   UNK N   1      35.805  13.543  20.987  0.00  0.00     0.217 HD
ENDBRANCH   6   9
TORSDOF 2
ENDMDL
MODEL 9
REMARK VINA RESULT:      -4.1     11.692     12.749
REMARK  2 active torsions:
REMARK  status: ('A' for Active; 'I' for Inactive)
REMARK    1  A    between atoms: O_1  and  C_2 
REMARK    2  A    between atoms: C_7  and  O_8 
ROOT
HETATM    1  C   UNK N   1      34.507  18.072   8.280  0.00  0.00     0.098 A 
HETATM    2  C   UNK N   1      33.884  17.904   7.040  0.00  0.00     0.039 A 
HETATM    3  C   UNK N   1      33.096  16.774   6.800  0.00  0.00     0.003 A 
HETATM    4  C   UNK N   1      32.930  15.810   7.800  0.00  0.00     0.003 A 
HETATM    5  C   UNK N   1      33.552  15.977   9.040  0.00  0.00     0.039 A 
HETATM    6  C   UNK N   1      34.341  17.107   9.282  0.00  0.00     0.098 A 
ENDROOT
BRANCH   1   7
HETATM    7  O   UNK N   1      35.264  19.159   8.508  0.00  0.00    -0.358 OA
HETATM    8  H   UNK N   1      34.914  20.014   8.351  0.00  0.00     0.217 HD
ENDBRANCH   1   7
BRANCH   6   9
HETATM    9  O   UNK N   1      34.937  17.262  10.475  0.00  0.00    -0.358 OA
HETATM   10  H   UNK N   1      34.452  17.117  11.264  0.00  0.00     0.217 HD
ENDBRANCH   6   9
TORSDOF 2
ENDMDL
