REMARK  12 active torsions:
REMARK  status: ('A' for Active; 'I' for Inactive)
REMARK    1  A    between atoms: C_4  and  C_2 
REMARK    2  A    between atoms: O_14  and  C_2 
REMARK    3  A    between atoms: C_5  and  C_3 
REMARK    4  A    between atoms: O_15  and  C_3 
REMARK    5  A    between atoms: C_6  and  O_16 
REMARK    6  A    between atoms: C_7  and  O_17 
REMARK    7  A    between atoms: C_8  and  O_18 
REMARK    8  A    between atoms: C_9  and  O_19 
REMARK    9  A    between atoms: C_10  and  O_20 
REMARK   10  A    between atoms: C_11  and  S_24 
REMARK   11  A    between atoms: C_12  and  O_21 
REMARK   12  A    between atoms: C_13  and  S_24 
ROOT
HETATM    1  S   UNK N   1      -2.855   1.786  -1.144  0.00  0.00    -0.122 SA
ENDROOT
BRANCH   1   2
HETATM    2  C   UNK N   1      -1.177   2.478  -0.752  0.00  0.00     0.136 C 
HETATM    3  C   UNK N   1      -1.164   3.882  -0.136  0.00  0.00     0.168 C 
HETATM    4  C   UNK N   1       0.283   4.407  -0.018  0.00  0.00     0.179 C 
HETATM    5  C   UNK N   1       1.308   3.244  -0.046  0.00  0.00     0.179 C 
HETATM    6  O   UNK N   1       0.849   2.156   0.724  0.00  0.00    -0.350 OA
HETATM    7  C   UNK N   1      -0.323   1.538   0.159  0.00  0.00     0.276 C 
BRANCH   3   8
HETATM    8  O   UNK N   1      -1.921   4.787  -0.880  0.00  0.00    -0.392 OA
HETATM    9  H   UNK N   1      -1.639   5.558  -1.398  0.00  0.00     0.210 HD
ENDBRANCH   3   8
BRANCH   4  10
HETATM   10  O   UNK N   1       0.390   5.161   1.156  0.00  0.00    -0.390 OA
HETATM   11  H   UNK N   1       0.879   5.359   1.969  0.00  0.00     0.210 HD
ENDBRANCH   4  10
BRANCH   5  12
HETATM   12  C   UNK N   1       2.683   3.686   0.449  0.00  0.00     0.198 C 
BRANCH  12  13
HETATM   13  O   UNK N   1       3.187   4.716  -0.348  0.00  0.00    -0.398 OA
HETATM   14  H   UNK N   1       3.981   4.771  -0.901  0.00  0.00     0.209 HD
ENDBRANCH  12  13
ENDBRANCH   5  12
BRANCH   7  15
HETATM   15  O   UNK N   1       0.022   0.382  -0.569  0.00  0.00    -0.365 OA
HETATM   16  C   UNK N   1       0.544  -0.561   0.328  0.00  0.00     0.204 C 
ENDBRANCH   7  15
ENDBRANCH   1   2
BRANCH   1  17
HETATM   17  C   UNK N   1      -3.753   1.886   0.479  0.00  0.00     0.215 C 
HETATM   18  C   UNK N   1      -5.155   1.230   0.429  0.00  0.00     0.188 C 
HETATM   19  C   UNK N   1      -6.113   2.081  -0.419  0.00  0.00     0.181 C 
HETATM   20  C   UNK N   1      -6.121   3.521   0.113  0.00  0.00     0.180 C 
HETATM   21  C   UNK N   1      -4.671   4.030   0.132  0.00  0.00     0.178 C 
HETATM   22  O   UNK N   1      -3.864   3.215   0.971  0.00  0.00    -0.363 OA
BRANCH  18  23
HETATM   23  O   UNK N   1      -5.076  -0.071  -0.074  0.00  0.00    -0.389 OA
HETATM   24  H   UNK N   1      -5.831  -0.570  -0.424  0.00  0.00     0.210 HD
ENDBRANCH  18  23
BRANCH  19  25
HETATM   25  O   UNK N   1      -7.404   1.546  -0.384  0.00  0.00    -0.390 OA
HETATM   26  H   UNK N   1      -8.173   2.137  -0.359  0.00  0.00     0.210 HD
ENDBRANCH  19  25
BRANCH  20  27
HETATM   27  O   UNK N   1      -6.656   3.560   1.406  0.00  0.00    -0.390 OA
HETATM   28  H   UNK N   1      -6.818   3.895   2.302  0.00  0.00     0.210 HD
ENDBRANCH  20  27
BRANCH  21  29
HETATM   29  C   UNK N   1      -4.582   5.464   0.643  0.00  0.00     0.198 C 
BRANCH  29  30
HETATM   30  O   UNK N   1      -5.169   6.347  -0.264  0.00  0.00    -0.398 OA
HETATM   31  H   UNK N   1      -4.841   7.007  -0.895  0.00  0.00     0.209 HD
ENDBRANCH  29  30
ENDBRANCH  21  29
ENDBRANCH   1  17
TORSDOF 12
