MODEL 1
REMARK VINA RESULT:      -7.3      0.000      0.000
REMARK  16 active torsions:
REMARK  status: ('A' for Active; 'I' for Inactive)
REMARK    1  A    between atoms: C_4  and  C_2 
REMARK    2  A    between atoms: C_9  and  C_2 
REMARK    3  A    between atoms: C_13  and  C_4 
REMARK    4  A    between atoms: C_14  and  C_6 
REMARK    5  A    between atoms: N_18  and  C_6 
REMARK    6  A    between atoms: C_10  and  C_7 
REMARK    7  A    between atoms: S_32  and  C_7 
REMARK    8  A    between atoms: N_20  and  C_8 
REMARK    9  A    between atoms: C_16  and  C_9 
REMARK   10  A    between atoms: C_9  and  N_17 
REMARK   11  A    between atoms: C_15  and  C_10 
REMARK   12  A    between atoms: C_10  and  N_19 
REMARK   13  A    between atoms: N_21  and  C_11 
REMARK   14  A    between atoms: S_32  and  C_12 
REMARK       I    between atoms: N_19  and  C_13 
REMARK   15  A    between atoms: O_23  and  C_14 
REMARK       I    between atoms: N_18  and  C_15 
REMARK   16  A    between atoms: O_26  and  C_16 
ROOT
HETATM    1  C   UNK N   1      20.068  15.443   7.479  0.00  0.00     0.186 C 
ENDROOT
BRANCH   1   2
HETATM    2  C   UNK N   1      20.324  16.463   6.408  0.00  0.00     0.114 C 
BRANCH   2   3
HETATM    3  S   UNK N   1      20.382  15.608   4.797  0.00  0.00    -0.125 SA
BRANCH   3   4
HETATM    4  C   UNK N   1      21.238  17.019   4.233  0.00  0.00     0.033 A 
HETATM    5  C   UNK N   1      20.472  18.005   3.613  0.00  0.00     0.023 A 
HETATM    6  C   UNK N   1      21.072  19.156   3.139  0.00  0.00     0.037 A 
HETATM    7  C   UNK N   1      22.448  19.336   3.280  0.00  0.00     0.105 A 
HETATM    8  C   UNK N   1      23.231  18.317   3.847  0.00  0.00     0.073 A 
HETATM    9  C   UNK N   1      22.646  17.140   4.328  0.00  0.00     0.122 A 
BRANCH   7  10
HETATM   10  N   UNK N   1      23.037  20.578   2.937  0.00  0.00    -0.116 N 
HETATM   11  O   UNK N   1      24.172  20.615   2.558  0.00  0.00    -0.532 OA
HETATM   12  O   UNK N   1      22.365  21.559   2.871  0.00  0.00    -0.532 OA
ENDBRANCH   7  10
BRANCH   9  13
HETATM   13  N   UNK N   1      23.487  16.122   4.899  0.00  0.00    -0.114 N 
HETATM   14  O   UNK N   1      23.764  16.124   6.062  0.00  0.00    -0.532 OA
HETATM   15  O   UNK N   1      23.926  15.256   4.207  0.00  0.00    -0.532 OA
ENDBRANCH   9  13
ENDBRANCH   3   4
ENDBRANCH   2   3
ENDBRANCH   1   2
BRANCH   1  16
HETATM   16  C   UNK N   1      19.323  16.083   8.638  0.00  0.00     0.241 C 
HETATM   17  N   UNK N   1      19.220  17.423   8.704  0.00  0.00    -0.349 N 
HETATM   18  H   UNK N   1      19.675  17.979   8.031  0.00  0.00     0.163 HD
HETATM   19  O   UNK N   1      18.814  15.390   9.514  0.00  0.00    -0.271 OA
BRANCH  17  20
HETATM   20  C   UNK N   1      18.453  18.051   9.746  0.00  0.00     0.232 C 
BRANCH  20  21
HETATM   21  C   UNK N   1      19.243  19.173  10.299  0.00  0.00     0.158 C 
HETATM   22  O   UNK N   1      20.230  19.571   9.707  0.00  0.00    -0.649 OA
BRANCH  21  23
HETATM   23  O   UNK N   1      18.864  19.757  11.451  0.00  0.00    -0.775 OA
HETATM   24  H   UNK N   1      18.020  20.108  11.660  0.00  0.00     0.167 HD
ENDBRANCH  21  23
ENDBRANCH  20  21
ENDBRANCH  17  20
ENDBRANCH   1  16
BRANCH   1  25
HETATM   25  N   UNK N   1      21.369  14.861   7.778  0.00  0.00    -0.347 N 
HETATM   26  C   UNK N   1      21.676  13.564   8.053  0.00  0.00     0.218 C 
HETATM   27  O   UNK N   1      20.825  12.692   8.038  0.00  0.00    -0.274 OA
HETATM   28  H   UNK N   1      22.127  15.489   7.782  0.00  0.00     0.163 HD
BRANCH  26  29
HETATM   29  C   UNK N   1      23.067  13.219   8.488  0.00  0.00     0.105 C 
BRANCH  29  30
HETATM   30  C   UNK N   1      23.112  12.094   9.525  0.00  0.00     0.044 C 
BRANCH  30  31
HETATM   31  C   UNK N   1      22.586  12.521  10.894  0.00  0.00     0.173 C 
BRANCH  31  32
HETATM   32  C   UNK N   1      23.548  12.122  11.974  0.00  0.00     0.163 C 
HETATM   33  O   UNK N   1      23.132  11.770  13.065  0.00  0.00    -0.648 OA
BRANCH  32  34
HETATM   34  O   UNK N   1      24.876  12.179  11.751  0.00  0.00    -0.775 OA
HETATM   35  H   UNK N   1      25.527  11.506  11.778  0.00  0.00     0.167 HD
ENDBRANCH  32  34
ENDBRANCH  31  32
BRANCH  31  36
HETATM   36  N   UNK N   1      21.301  11.888  11.126  0.00  0.00    -0.418 N 
HETATM   37  H   UNK N   1      20.441  11.723  10.602  0.00  0.00     0.150 HD
HETATM   38  H   UNK N   1      21.240  11.504  12.069  0.00  0.00     0.150 HD
ENDBRANCH  31  36
ENDBRANCH  30  31
ENDBRANCH  29  30
ENDBRANCH  26  29
ENDBRANCH   1  25
TORSDOF 16
ENDMDL
MODEL 2
REMARK VINA RESULT:      -7.3      2.027      8.004
REMARK  16 active torsions:
REMARK  status: ('A' for Active; 'I' for Inactive)
REMARK    1  A    between atoms: C_4  and  C_2 
REMARK    2  A    between atoms: C_9  and  C_2 
REMARK    3  A    between atoms: C_13  and  C_4 
REMARK    4  A    between atoms: C_14  and  C_6 
REMARK    5  A    between atoms: N_18  and  C_6 
REMARK    6  A    between atoms: C_10  and  C_7 
REMARK    7  A    between atoms: S_32  and  C_7 
REMARK    8  A    between atoms: N_20  and  C_8 
REMARK    9  A    between atoms: C_16  and  C_9 
REMARK   10  A    between atoms: C_9  and  N_17 
REMARK   11  A    between atoms: C_15  and  C_10 
REMARK   12  A    between atoms: C_10  and  N_19 
REMARK   13  A    between atoms: N_21  and  C_11 
REMARK   14  A    between atoms: S_32  and  C_12 
REMARK       I    between atoms: N_19  and  C_13 
REMARK   15  A    between atoms: O_23  and  C_14 
REMARK       I    between atoms: N_18  and  C_15 
REMARK   16  A    between atoms: O_26  and  C_16 
ROOT
HETATM    1  C   UNK N   1      20.534  16.092   7.627  0.00  0.00     0.186 C 
ENDROOT
BRANCH   1   2
HETATM    2  C   UNK N   1      20.498  14.592   7.624  0.00  0.00     0.114 C 
BRANCH   2   3
HETATM    3  S   UNK N   1      21.959  13.981   6.718  0.00  0.00    -0.125 SA
BRANCH   3   4
HETATM    4  C   UNK N   1      22.532  13.444   8.276  0.00  0.00     0.033 A 
HETATM    5  C   UNK N   1      21.564  13.233   9.256  0.00  0.00     0.023 A 
HETATM    6  C   UNK N   1      21.932  12.805  10.517  0.00  0.00     0.037 A 
HETATM    7  C   UNK N   1      23.277  12.581  10.814  0.00  0.00     0.105 A 
HETATM    8  C   UNK N   1      24.260  12.853   9.848  0.00  0.00     0.073 A 
HETATM    9  C   UNK N   1      23.910  13.293   8.566  0.00  0.00     0.122 A 
BRANCH   7  10
HETATM   10  N   UNK N   1      23.639  11.995  12.052  0.00  0.00    -0.116 N 
HETATM   11  O   UNK N   1      22.789  11.689  12.838  0.00  0.00    -0.532 OA
HETATM   12  O   UNK N   1      24.765  11.659  12.248  0.00  0.00    -0.532 OA
ENDBRANCH   7  10
BRANCH   9  13
HETATM   13  N   UNK N   1      24.950  13.562   7.609  0.00  0.00    -0.114 N 
HETATM   14  O   UNK N   1      25.487  14.629   7.557  0.00  0.00    -0.532 OA
HETATM   15  O   UNK N   1      25.288  12.712   6.844  0.00  0.00    -0.532 OA
ENDBRANCH   9  13
ENDBRANCH   3   4
ENDBRANCH   2   3
ENDBRANCH   1   2
BRANCH   1  16
HETATM   16  C   UNK N   1      19.199  16.642   8.102  0.00  0.00     0.241 C 
HETATM   17  N   UNK N   1      19.143  17.361   9.238  0.00  0.00    -0.349 N 
HETATM   18  H   UNK N   1      19.956  17.476   9.781  0.00  0.00     0.163 HD
HETATM   19  O   UNK N   1      18.173  16.437   7.460  0.00  0.00    -0.271 OA
BRANCH  17  20
HETATM   20  C   UNK N   1      17.908  17.959   9.668  0.00  0.00     0.232 C 
BRANCH  20  21
HETATM   21  C   UNK N   1      18.211  18.964  10.711  0.00  0.00     0.158 C 
HETATM   22  O   UNK N   1      17.504  19.045  11.699  0.00  0.00    -0.649 OA
BRANCH  21  23
HETATM   23  O   UNK N   1      19.272  19.780  10.569  0.00  0.00    -0.775 OA
HETATM   24  H   UNK N   1      19.273  20.717  10.569  0.00  0.00     0.167 HD
ENDBRANCH  21  23
ENDBRANCH  20  21
ENDBRANCH  17  20
ENDBRANCH   1  16
BRANCH   1  25
HETATM   25  N   UNK N   1      20.960  16.473   6.288  0.00  0.00    -0.347 N 
HETATM   26  C   UNK N   1      21.316  17.702   5.828  0.00  0.00     0.218 C 
HETATM   27  O   UNK N   1      21.348  18.673   6.565  0.00  0.00    -0.274 OA
HETATM   28  H   UNK N   1      20.995  15.744   5.628  0.00  0.00     0.163 HD
BRANCH  26  29
HETATM   29  C   UNK N   1      21.572  17.889   4.364  0.00  0.00     0.105 C 
BRANCH  29  30
HETATM   30  C   UNK N   1      20.928  19.156   3.797  0.00  0.00     0.044 C 
BRANCH  30  31
HETATM   31  C   UNK N   1      20.460  18.995   2.351  0.00  0.00     0.173 C 
BRANCH  31  32
HETATM   32  C   UNK N   1      20.828  20.204   1.543  0.00  0.00     0.163 C 
HETATM   33  O   UNK N   1      21.266  21.199   2.097  0.00  0.00    -0.648 OA
BRANCH  32  34
HETATM   34  O   UNK N   1      20.647  20.206   0.208  0.00  0.00    -0.775 OA
HETATM   35  H   UNK N   1      21.153  20.602  -0.474  0.00  0.00     0.167 HD
ENDBRANCH  32  34
ENDBRANCH  31  32
BRANCH  31  36
HETATM   36  N   UNK N   1      19.020  18.815   2.336  0.00  0.00    -0.418 N 
HETATM   37  H   UNK N   1      18.341  18.168   2.738  0.00  0.00     0.150 HD
HETATM   38  H   UNK N   1      18.563  19.528   1.769  0.00  0.00     0.150 HD
ENDBRANCH  31  36
ENDBRANCH  30  31
ENDBRANCH  29  30
ENDBRANCH  26  29
ENDBRANCH   1  25
TORSDOF 16
ENDMDL
MODEL 3
REMARK VINA RESULT:      -7.1      1.895      2.292
REMARK  16 active torsions:
REMARK  status: ('A' for Active; 'I' for Inactive)
REMARK    1  A    between atoms: C_4  and  C_2 
REMARK    2  A    between atoms: C_9  and  C_2 
REMARK    3  A    between atoms: C_13  and  C_4 
REMARK    4  A    between atoms: C_14  and  C_6 
REMARK    5  A    between atoms: N_18  and  C_6 
REMARK    6  A    between atoms: C_10  and  C_7 
REMARK    7  A    between atoms: S_32  and  C_7 
REMARK    8  A    between atoms: N_20  and  C_8 
REMARK    9  A    between atoms: C_16  and  C_9 
REMARK   10  A    between atoms: C_9  and  N_17 
REMARK   11  A    between atoms: C_15  and  C_10 
REMARK   12  A    between atoms: C_10  and  N_19 
REMARK   13  A    between atoms: N_21  and  C_11 
REMARK   14  A    between atoms: S_32  and  C_12 
REMARK       I    between atoms: N_19  and  C_13 
REMARK   15  A    between atoms: O_23  and  C_14 
REMARK       I    between atoms: N_18  and  C_15 
REMARK   16  A    between atoms: O_26  and  C_16 
ROOT
HETATM    1  C   UNK N   1      20.238  15.691   7.013  0.00  0.00     0.186 C 
ENDROOT
BRANCH   1   2
HETATM    2  C   UNK N   1      21.012  16.672   6.182  0.00  0.00     0.114 C 
BRANCH   2   3
HETATM    3  S   UNK N   1      20.692  16.318   4.421  0.00  0.00    -0.125 SA
BRANCH   3   4
HETATM    4  C   UNK N   1      21.831  17.598   4.096  0.00  0.00     0.033 A 
HETATM    5  C   UNK N   1      23.020  17.572   4.823  0.00  0.00     0.023 A 
HETATM    6  C   UNK N   1      23.978  18.548   4.626  0.00  0.00     0.037 A 
HETATM    7  C   UNK N   1      23.759  19.565   3.695  0.00  0.00     0.105 A 
HETATM    8  C   UNK N   1      22.536  19.628   3.006  0.00  0.00     0.073 A 
HETATM    9  C   UNK N   1      21.549  18.654   3.196  0.00  0.00     0.122 A 
BRANCH   7  10
HETATM   10  N   UNK N   1      24.801  20.471   3.380  0.00  0.00    -0.116 N 
HETATM   11  O   UNK N   1      25.702  20.634   4.151  0.00  0.00    -0.532 OA
HETATM   12  O   UNK N   1      24.869  20.947   2.291  0.00  0.00    -0.532 OA
ENDBRANCH   7  10
BRANCH   9  13
HETATM   13  N   UNK N   1      20.310  18.761   2.472  0.00  0.00    -0.114 N 
HETATM   14  O   UNK N   1      19.384  19.378   2.911  0.00  0.00    -0.532 OA
HETATM   15  O   UNK N   1      20.191  18.223   1.415  0.00  0.00    -0.532 OA
ENDBRANCH   9  13
ENDBRANCH   3   4
ENDBRANCH   2   3
ENDBRANCH   1   2
BRANCH   1  16
HETATM   16  C   UNK N   1      19.117  16.405   7.749  0.00  0.00     0.241 C 
HETATM   17  N   UNK N   1      19.388  17.075   8.884  0.00  0.00    -0.349 N 
HETATM   18  H   UNK N   1      20.298  17.051   9.257  0.00  0.00     0.163 HD
HETATM   19  O   UNK N   1      17.968  16.376   7.320  0.00  0.00    -0.271 OA
BRANCH  17  20
HETATM   20  C   UNK N   1      18.363  17.824   9.558  0.00  0.00     0.232 C 
BRANCH  20  21
HETATM   21  C   UNK N   1      18.983  19.011  10.186  0.00  0.00     0.158 C 
HETATM   22  O   UNK N   1      20.121  19.329   9.891  0.00  0.00    -0.649 OA
BRANCH  21  23
HETATM   23  O   UNK N   1      18.286  19.743  11.075  0.00  0.00    -0.775 OA
HETATM   24  H   UNK N   1      18.628  20.300  11.746  0.00  0.00     0.167 HD
ENDBRANCH  21  23
ENDBRANCH  20  21
ENDBRANCH  17  20
ENDBRANCH   1  16
BRANCH   1  25
HETATM   25  N   UNK N   1      21.229  15.009   7.833  0.00  0.00    -0.347 N 
HETATM   26  C   UNK N   1      21.030  14.161   8.877  0.00  0.00     0.218 C 
HETATM   27  O   UNK N   1      19.909  13.838   9.230  0.00  0.00    -0.274 OA
HETATM   28  H   UNK N   1      22.170  15.186   7.600  0.00  0.00     0.163 HD
BRANCH  26  29
HETATM   29  C   UNK N   1      22.208  13.697   9.677  0.00  0.00     0.105 C 
BRANCH  29  30
HETATM   30  C   UNK N   1      21.845  12.649  10.732  0.00  0.00     0.044 C 
BRANCH  30  31
HETATM   31  C   UNK N   1      22.917  11.573  10.901  0.00  0.00     0.173 C 
BRANCH  31  32
HETATM   32  C   UNK N   1      23.918  11.989  11.938  0.00  0.00     0.163 C 
HETATM   33  O   UNK N   1      23.590  12.057  13.111  0.00  0.00    -0.648 OA
BRANCH  32  34
HETATM   34  O   UNK N   1      25.174  12.315  11.575  0.00  0.00    -0.775 OA
HETATM   35  H   UNK N   1      25.855  12.741  12.056  0.00  0.00     0.167 HD
ENDBRANCH  32  34
ENDBRANCH  31  32
BRANCH  31  36
HETATM   36  N   UNK N   1      23.587  11.368   9.629  0.00  0.00    -0.418 N 
HETATM   37  H   UNK N   1      23.683  11.865   8.744  0.00  0.00     0.150 HD
HETATM   38  H   UNK N   1      24.101  10.487   9.618  0.00  0.00     0.150 HD
ENDBRANCH  31  36
ENDBRANCH  30  31
ENDBRANCH  29  30
ENDBRANCH  26  29
ENDBRANCH   1  25
TORSDOF 16
ENDMDL
MODEL 4
REMARK VINA RESULT:      -6.9      2.648      8.212
REMARK  16 active torsions:
REMARK  status: ('A' for Active; 'I' for Inactive)
REMARK    1  A    between atoms: C_4  and  C_2 
REMARK    2  A    between atoms: C_9  and  C_2 
REMARK    3  A    between atoms: C_13  and  C_4 
REMARK    4  A    between atoms: C_14  and  C_6 
REMARK    5  A    between atoms: N_18  and  C_6 
REMARK    6  A    between atoms: C_10  and  C_7 
REMARK    7  A    between atoms: S_32  and  C_7 
REMARK    8  A    between atoms: N_20  and  C_8 
REMARK    9  A    between atoms: C_16  and  C_9 
REMARK   10  A    between atoms: C_9  and  N_17 
REMARK   11  A    between atoms: C_15  and  C_10 
REMARK   12  A    between atoms: C_10  and  N_19 
REMARK   13  A    between atoms: N_21  and  C_11 
REMARK   14  A    between atoms: S_32  and  C_12 
REMARK       I    between atoms: N_19  and  C_13 
REMARK   15  A    between atoms: O_23  and  C_14 
REMARK       I    between atoms: N_18  and  C_15 
REMARK   16  A    between atoms: O_26  and  C_16 
ROOT
HETATM    1  C   UNK N   1      22.795  16.345   4.858  0.00  0.00     0.186 C 
ENDROOT
BRANCH   1   2
HETATM    2  C   UNK N   1      22.017  16.411   6.140  0.00  0.00     0.114 C 
BRANCH   2   3
HETATM    3  S   UNK N   1      20.362  15.701   5.850  0.00  0.00    -0.125 SA
BRANCH   3   4
HETATM    4  C   UNK N   1      20.647  14.786   7.307  0.00  0.00     0.033 A 
HETATM    5  C   UNK N   1      21.281  13.554   7.153  0.00  0.00     0.023 A 
HETATM    6  C   UNK N   1      21.548  12.766   8.257  0.00  0.00     0.037 A 
HETATM    7  C   UNK N   1      21.183  13.202   9.531  0.00  0.00     0.105 A 
HETATM    8  C   UNK N   1      20.489  14.414   9.682  0.00  0.00     0.073 A 
HETATM    9  C   UNK N   1      20.202  15.225   8.578  0.00  0.00     0.122 A 
BRANCH   7  10
HETATM   10  N   UNK N   1      21.595  12.471  10.673  0.00  0.00    -0.116 N 
HETATM   11  O   UNK N   1      20.785  12.127  11.484  0.00  0.00    -0.532 OA
HETATM   12  O   UNK N   1      22.710  12.060  10.749  0.00  0.00    -0.532 OA
ENDBRANCH   7  10
BRANCH   9  13
HETATM   13  N   UNK N   1      19.486  16.456   8.779  0.00  0.00    -0.114 N 
HETATM   14  O   UNK N   1      18.291  16.493   8.744  0.00  0.00    -0.532 OA
HETATM   15  O   UNK N   1      20.086  17.467   8.979  0.00  0.00    -0.532 OA
ENDBRANCH   9  13
ENDBRANCH   3   4
ENDBRANCH   2   3
ENDBRANCH   1   2
BRANCH   1  16
HETATM   16  C   UNK N   1      23.004  17.744   4.305  0.00  0.00     0.241 C 
HETATM   17  N   UNK N   1      21.994  18.367   3.672  0.00  0.00    -0.349 N 
HETATM   18  H   UNK N   1      21.146  17.890   3.523  0.00  0.00     0.163 HD
HETATM   19  O   UNK N   1      24.085  18.312   4.431  0.00  0.00    -0.271 OA
BRANCH  17  20
HETATM   20  C   UNK N   1      22.139  19.720   3.209  0.00  0.00     0.232 C 
BRANCH  20  21
HETATM   21  C   UNK N   1      20.794  20.270   2.932  0.00  0.00     0.158 C 
HETATM   22  O   UNK N   1      20.195  20.875   3.803  0.00  0.00    -0.649 OA
BRANCH  21  23
HETATM   23  O   UNK N   1      20.240  20.108   1.716  0.00  0.00    -0.775 OA
HETATM   24  H   UNK N   1      19.624  19.452   1.455  0.00  0.00     0.167 HD
ENDBRANCH  21  23
ENDBRANCH  20  21
ENDBRANCH  17  20
ENDBRANCH   1  16
BRANCH   1  25
HETATM   25  N   UNK N   1      22.069  15.408   4.012  0.00  0.00    -0.347 N 
HETATM   26  C   UNK N   1      22.546  14.626   3.007  0.00  0.00     0.218 C 
HETATM   27  O   UNK N   1      23.731  14.609   2.721  0.00  0.00    -0.274 OA
HETATM   28  H   UNK N   1      21.104  15.331   4.191  0.00  0.00     0.163 HD
BRANCH  26  29
HETATM   29  C   UNK N   1      21.582  13.850   2.163  0.00  0.00     0.105 C 
BRANCH  29  30
HETATM   30  C   UNK N   1      21.302  14.507   0.809  0.00  0.00     0.044 C 
BRANCH  30  31
HETATM   31  C   UNK N   1      19.937  15.191   0.746  0.00  0.00     0.173 C 
BRANCH  31  32
HETATM   32  C   UNK N   1      20.073  16.659   1.020  0.00  0.00     0.163 C 
HETATM   33  O   UNK N   1      19.975  17.081   2.161  0.00  0.00    -0.648 OA
BRANCH  32  34
HETATM   34  O   UNK N   1      20.274  17.521   0.004  0.00  0.00    -0.775 OA
HETATM   35  H   UNK N   1      20.011  17.476  -0.893  0.00  0.00     0.167 HD
ENDBRANCH  32  34
ENDBRANCH  31  32
BRANCH  31  36
HETATM   36  N   UNK N   1      19.059  14.588   1.733  0.00  0.00    -0.418 N 
HETATM   37  H   UNK N   1      18.977  14.568   2.750  0.00  0.00     0.150 HD
HETATM   38  H   UNK N   1      18.325  14.035   1.290  0.00  0.00     0.150 HD
ENDBRANCH  31  36
ENDBRANCH  30  31
ENDBRANCH  29  30
ENDBRANCH  26  29
ENDBRANCH   1  25
TORSDOF 16
ENDMDL
MODEL 5
REMARK VINA RESULT:      -6.8      9.894     12.049
REMARK  16 active torsions:
REMARK  status: ('A' for Active; 'I' for Inactive)
REMARK    1  A    between atoms: C_4  and  C_2 
REMARK    2  A    between atoms: C_9  and  C_2 
REMARK    3  A    between atoms: C_13  and  C_4 
REMARK    4  A    between atoms: C_14  and  C_6 
REMARK    5  A    between atoms: N_18  and  C_6 
REMARK    6  A    between atoms: C_10  and  C_7 
REMARK    7  A    between atoms: S_32  and  C_7 
REMARK    8  A    between atoms: N_20  and  C_8 
REMARK    9  A    between atoms: C_16  and  C_9 
REMARK   10  A    between atoms: C_9  and  N_17 
REMARK   11  A    between atoms: C_15  and  C_10 
REMARK   12  A    between atoms: C_10  and  N_19 
REMARK   13  A    between atoms: N_21  and  C_11 
REMARK   14  A    between atoms: S_32  and  C_12 
REMARK       I    between atoms: N_19  and  C_13 
REMARK   15  A    between atoms: O_23  and  C_14 
REMARK       I    between atoms: N_18  and  C_15 
REMARK   16  A    between atoms: O_26  and  C_16 
ROOT
HETATM    1  C   UNK N   1      33.828  17.612   8.445  0.00  0.00     0.186 C 
ENDROOT
BRANCH   1   2
HETATM    2  C   UNK N   1      32.364  17.937   8.460  0.00  0.00     0.114 C 
BRANCH   2   3
HETATM    3  S   UNK N   1      31.426  16.378   8.598  0.00  0.00    -0.125 SA
BRANCH   3   4
HETATM    4  C   UNK N   1      30.325  17.097   7.452  0.00  0.00     0.033 A 
HETATM    5  C   UNK N   1      30.696  17.038   6.111  0.00  0.00     0.023 A 
HETATM    6  C   UNK N   1      29.880  17.582   5.137  0.00  0.00     0.037 A 
HETATM    7  C   UNK N   1      28.677  18.192   5.496  0.00  0.00     0.105 A 
HETATM    8  C   UNK N   1      28.330  18.308   6.852  0.00  0.00     0.073 A 
HETATM    9  C   UNK N   1      29.146  17.771   7.854  0.00  0.00     0.122 A 
BRANCH   7  10
HETATM   10  N   UNK N   1      27.769  18.608   4.491  0.00  0.00    -0.116 N 
HETATM   11  O   UNK N   1      27.564  19.775   4.319  0.00  0.00    -0.532 OA
HETATM   12  O   UNK N   1      27.334  17.816   3.715  0.00  0.00    -0.532 OA
ENDBRANCH   7  10
BRANCH   9  13
HETATM   13  N   UNK N   1      28.752  17.916   9.231  0.00  0.00    -0.114 N 
HETATM   14  O   UNK N   1      29.252  18.742   9.937  0.00  0.00    -0.532 OA
HETATM   15  O   UNK N   1      27.916  17.200   9.689  0.00  0.00    -0.532 OA
ENDBRANCH   9  13
ENDBRANCH   3   4
ENDBRANCH   2   3
ENDBRANCH   1   2
BRANCH   1  16
HETATM   16  C   UNK N   1      34.235  17.114   7.068  0.00  0.00     0.241 C 
HETATM   17  N   UNK N   1      34.633  15.838   6.914  0.00  0.00    -0.349 N 
HETATM   18  H   UNK N   1      34.710  15.254   7.702  0.00  0.00     0.163 HD
HETATM   19  O   UNK N   1      34.205  17.863   6.097  0.00  0.00    -0.271 OA
BRANCH  17  20
HETATM   20  C   UNK N   1      34.947  15.319   5.611  0.00  0.00     0.232 C 
BRANCH  20  21
HETATM   21  C   UNK N   1      33.828  14.461   5.163  0.00  0.00     0.158 C 
HETATM   22  O   UNK N   1      33.656  14.259   3.974  0.00  0.00    -0.649 OA
BRANCH  21  23
HETATM   23  O   UNK N   1      33.009  13.898   6.070  0.00  0.00    -0.775 OA
HETATM   24  H   UNK N   1      32.073  13.941   6.095  0.00  0.00     0.167 HD
ENDBRANCH  21  23
ENDBRANCH  20  21
ENDBRANCH  17  20
ENDBRANCH   1  16
BRANCH   1  25
HETATM   25  N   UNK N   1      34.035  16.697   9.559  0.00  0.00    -0.347 N 
HETATM   26  C   UNK N   1      35.058  16.668  10.455  0.00  0.00     0.218 C 
HETATM   27  O   UNK N   1      35.953  17.495  10.428  0.00  0.00    -0.274 OA
HETATM   28  H   UNK N   1      33.342  16.009   9.680  0.00  0.00     0.163 HD
BRANCH  26  29
HETATM   29  C   UNK N   1      35.143  15.533  11.429  0.00  0.00     0.105 C 
BRANCH  29  30
HETATM   30  C   UNK N   1      36.167  14.469  11.026  0.00  0.00     0.044 C 
BRANCH  30  31
HETATM   31  C   UNK N   1      35.523  13.167  10.552  0.00  0.00     0.173 C 
BRANCH  31  32
HETATM   32  C   UNK N   1      35.068  13.295   9.129  0.00  0.00     0.163 C 
HETATM   33  O   UNK N   1      35.864  13.147   8.216  0.00  0.00    -0.648 OA
BRANCH  32  34
HETATM   34  O   UNK N   1      33.785  13.603   8.853  0.00  0.00    -0.775 OA
HETATM   35  H   UNK N   1      33.172  13.196   8.274  0.00  0.00     0.167 HD
ENDBRANCH  32  34
ENDBRANCH  31  32
BRANCH  31  36
HETATM   36  N   UNK N   1      34.387  12.863  11.404  0.00  0.00    -0.418 N 
HETATM   37  H   UNK N   1      34.199  12.288  12.225  0.00  0.00     0.150 HD
HETATM   38  H   UNK N   1      33.550  13.358  11.097  0.00  0.00     0.150 HD
ENDBRANCH  31  36
ENDBRANCH  30  31
ENDBRANCH  29  30
ENDBRANCH  26  29
ENDBRANCH   1  25
TORSDOF 16
ENDMDL
MODEL 6
REMARK VINA RESULT:      -6.8      2.963      7.818
REMARK  16 active torsions:
REMARK  status: ('A' for Active; 'I' for Inactive)
REMARK    1  A    between atoms: C_4  and  C_2 
REMARK    2  A    between atoms: C_9  and  C_2 
REMARK    3  A    between atoms: C_13  and  C_4 
REMARK    4  A    between atoms: C_14  and  C_6 
REMARK    5  A    between atoms: N_18  and  C_6 
REMARK    6  A    between atoms: C_10  and  C_7 
REMARK    7  A    between atoms: S_32  and  C_7 
REMARK    8  A    between atoms: N_20  and  C_8 
REMARK    9  A    between atoms: C_16  and  C_9 
REMARK   10  A    between atoms: C_9  and  N_17 
REMARK   11  A    between atoms: C_15  and  C_10 
REMARK   12  A    between atoms: C_10  and  N_19 
REMARK   13  A    between atoms: N_21  and  C_11 
REMARK   14  A    between atoms: S_32  and  C_12 
REMARK       I    between atoms: N_19  and  C_13 
REMARK   15  A    between atoms: O_23  and  C_14 
REMARK       I    between atoms: N_18  and  C_15 
REMARK   16  A    between atoms: O_26  and  C_16 
ROOT
HETATM    1  C   UNK N   1      22.876  18.020   5.398  0.00  0.00     0.186 C 
ENDROOT
BRANCH   1   2
HETATM    2  C   UNK N   1      22.702  16.608   5.876  0.00  0.00     0.114 C 
BRANCH   2   3
HETATM    3  S   UNK N   1      20.917  16.239   5.953  0.00  0.00    -0.125 SA
BRANCH   3   4
HETATM    4  C   UNK N   1      21.322  15.234   7.321  0.00  0.00     0.033 A 
HETATM    5  C   UNK N   1      22.237  14.209   7.089  0.00  0.00     0.023 A 
HETATM    6  C   UNK N   1      22.615  13.368   8.119  0.00  0.00     0.037 A 
HETATM    7  C   UNK N   1      22.082  13.544   9.396  0.00  0.00     0.105 A 
HETATM    8  C   UNK N   1      21.113  14.537   9.617  0.00  0.00     0.073 A 
HETATM    9  C   UNK N   1      20.710  15.395   8.587  0.00  0.00     0.122 A 
BRANCH   7  10
HETATM   10  N   UNK N   1      22.585  12.786  10.482  0.00  0.00    -0.116 N 
HETATM   11  O   UNK N   1      21.826  12.232  11.224  0.00  0.00    -0.532 OA
HETATM   12  O   UNK N   1      23.752  12.566  10.567  0.00  0.00    -0.532 OA
ENDBRANCH   7  10
BRANCH   9  13
HETATM   13  N   UNK N   1      19.712  16.395   8.859  0.00  0.00    -0.114 N 
HETATM   14  O   UNK N   1      18.549  16.120   8.894  0.00  0.00    -0.532 OA
HETATM   15  O   UNK N   1      20.040  17.526   9.047  0.00  0.00    -0.532 OA
ENDBRANCH   9  13
ENDBRANCH   3   4
ENDBRANCH   2   3
ENDBRANCH   1   2
BRANCH   1  16
HETATM   16  C   UNK N   1      22.119  18.225   4.097  0.00  0.00     0.241 C 
HETATM   17  N   UNK N   1      21.357  19.322   3.936  0.00  0.00    -0.349 N 
HETATM   18  H   UNK N   1      21.252  19.954   4.684  0.00  0.00     0.163 HD
HETATM   19  O   UNK N   1      22.197  17.401   3.191  0.00  0.00    -0.271 OA
BRANCH  17  20
HETATM   20  C   UNK N   1      20.695  19.581   2.687  0.00  0.00     0.232 C 
BRANCH  20  21
HETATM   21  C   UNK N   1      21.193  20.865   2.147  0.00  0.00     0.158 C 
HETATM   22  O   UNK N   1      20.786  21.270   1.073  0.00  0.00    -0.649 OA
BRANCH  21  23
HETATM   23  O   UNK N   1      22.088  21.586   2.847  0.00  0.00    -0.775 OA
HETATM   24  H   UNK N   1      21.910  22.227   3.507  0.00  0.00     0.167 HD
ENDBRANCH  21  23
ENDBRANCH  20  21
ENDBRANCH  17  20
ENDBRANCH   1  16
BRANCH   1  25
HETATM   25  N   UNK N   1      24.314  18.244   5.362  0.00  0.00    -0.347 N 
HETATM   26  C   UNK N   1      25.010  19.182   4.666  0.00  0.00     0.218 C 
HETATM   27  O   UNK N   1      24.445  20.014   3.978  0.00  0.00    -0.274 OA
HETATM   28  H   UNK N   1      24.854  17.635   5.916  0.00  0.00     0.163 HD
BRANCH  26  29
HETATM   29  C   UNK N   1      26.507  19.126   4.660  0.00  0.00     0.105 C 
BRANCH  29  30
HETATM   30  C   UNK N   1      27.091  18.459   5.907  0.00  0.00     0.044 C 
BRANCH  30  31
HETATM   31  C   UNK N   1      27.718  19.456   6.881  0.00  0.00     0.173 C 
BRANCH  31  32
HETATM   32  C   UNK N   1      28.250  18.744   8.090  0.00  0.00     0.163 C 
HETATM   33  O   UNK N   1      29.419  18.397   8.129  0.00  0.00    -0.648 OA
BRANCH  32  34
HETATM   34  O   UNK N   1      27.433  18.460   9.123  0.00  0.00    -0.775 OA
HETATM   35  H   UNK N   1      26.640  18.873   9.403  0.00  0.00     0.167 HD
ENDBRANCH  32  34
ENDBRANCH  31  32
BRANCH  31  36
HETATM   36  N   UNK N   1      26.711  20.420   7.285  0.00  0.00    -0.418 N 
HETATM   37  H   UNK N   1      25.729  20.610   7.081  0.00  0.00     0.150 HD
HETATM   38  H   UNK N   1      27.087  21.092   7.955  0.00  0.00     0.150 HD
ENDBRANCH  31  36
ENDBRANCH  30  31
ENDBRANCH  29  30
ENDBRANCH  26  29
ENDBRANCH   1  25
TORSDOF 16
ENDMDL
MODEL 7
REMARK VINA RESULT:      -6.8     10.416     12.532
REMARK  16 active torsions:
REMARK  status: ('A' for Active; 'I' for Inactive)
REMARK    1  A    between atoms: C_4  and  C_2 
REMARK    2  A    between atoms: C_9  and  C_2 
REMARK    3  A    between atoms: C_13  and  C_4 
REMARK    4  A    between atoms: C_14  and  C_6 
REMARK    5  A    between atoms: N_18  and  C_6 
REMARK    6  A    between atoms: C_10  and  C_7 
REMARK    7  A    between atoms: S_32  and  C_7 
REMARK    8  A    between atoms: N_20  and  C_8 
REMARK    9  A    between atoms: C_16  and  C_9 
REMARK   10  A    between atoms: C_9  and  N_17 
REMARK   11  A    between atoms: C_15  and  C_10 
REMARK   12  A    between atoms: C_10  and  N_19 
REMARK   13  A    between atoms: N_21  and  C_11 
REMARK   14  A    between atoms: S_32  and  C_12 
REMARK       I    between atoms: N_19  and  C_13 
REMARK   15  A    between atoms: O_23  and  C_14 
REMARK       I    between atoms: N_18  and  C_15 
REMARK   16  A    between atoms: O_26  and  C_16 
ROOT
HETATM    1  C   UNK N   1      33.703  17.571   8.472  0.00  0.00     0.186 C 
ENDROOT
BRANCH   1   2
HETATM    2  C   UNK N   1      32.248  17.916   8.342  0.00  0.00     0.114 C 
BRANCH   2   3
HETATM    3  S   UNK N   1      31.277  16.375   8.458  0.00  0.00    -0.125 SA
BRANCH   3   4
HETATM    4  C   UNK N   1      30.144  17.170   7.395  0.00  0.00     0.033 A 
HETATM    5  C   UNK N   1      30.457  17.165   6.037  0.00  0.00     0.023 A 
HETATM    6  C   UNK N   1      29.612  17.770   5.126  0.00  0.00     0.037 A 
HETATM    7  C   UNK N   1      28.440  18.388   5.563  0.00  0.00     0.105 A 
HETATM    8  C   UNK N   1      28.154  18.449   6.937  0.00  0.00     0.073 A 
HETATM    9  C   UNK N   1      28.999  17.849   7.878  0.00  0.00     0.122 A 
BRANCH   7  10
HETATM   10  N   UNK N   1      27.500  18.869   4.619  0.00  0.00    -0.116 N 
HETATM   11  O   UNK N   1      27.210  18.196   3.672  0.00  0.00    -0.532 OA
HETATM   12  O   UNK N   1      26.881  19.861   4.843  0.00  0.00    -0.532 OA
ENDBRANCH   7  10
BRANCH   9  13
HETATM   13  N   UNK N   1      28.668  17.938   9.275  0.00  0.00    -0.114 N 
HETATM   14  O   UNK N   1      27.855  17.214   9.769  0.00  0.00    -0.532 OA
HETATM   15  O   UNK N   1      29.206  18.751   9.962  0.00  0.00    -0.532 OA
ENDBRANCH   9  13
ENDBRANCH   3   4
ENDBRANCH   2   3
ENDBRANCH   1   2
BRANCH   1  16
HETATM   16  C   UNK N   1      34.250  17.116   7.129  0.00  0.00     0.241 C 
HETATM   17  N   UNK N   1      34.689  15.852   6.984  0.00  0.00    -0.349 N 
HETATM   18  H   UNK N   1      34.704  15.251   7.763  0.00  0.00     0.163 HD
HETATM   19  O   UNK N   1      34.296  17.888   6.177  0.00  0.00    -0.271 OA
BRANCH  17  20
HETATM   20  C   UNK N   1      35.138  15.372   5.706  0.00  0.00     0.232 C 
BRANCH  20  21
HETATM   21  C   UNK N   1      36.326  14.516   5.916  0.00  0.00     0.158 C 
HETATM   22  O   UNK N   1      37.409  14.864   5.479  0.00  0.00    -0.649 OA
BRANCH  21  23
HETATM   23  O   UNK N   1      36.210  13.361   6.596  0.00  0.00    -0.775 OA
HETATM   24  H   UNK N   1      36.567  13.159   7.439  0.00  0.00     0.167 HD
ENDBRANCH  21  23
ENDBRANCH  20  21
ENDBRANCH  17  20
ENDBRANCH   1  16
BRANCH   1  25
HETATM   25  N   UNK N   1      33.780  16.616   9.568  0.00  0.00    -0.347 N 
HETATM   26  C   UNK N   1      34.786  16.432  10.464  0.00  0.00     0.218 C 
HETATM   27  O   UNK N   1      35.785  17.131  10.453  0.00  0.00    -0.274 OA
HETATM   28  H   UNK N   1      32.999  16.026   9.675  0.00  0.00     0.163 HD
BRANCH  26  29
HETATM   29  C   UNK N   1      34.714  15.277  11.416  0.00  0.00     0.105 C 
BRANCH  29  30
HETATM   30  C   UNK N   1      35.986  15.103  12.249  0.00  0.00     0.044 C 
BRANCH  30  31
HETATM   31  C   UNK N   1      36.223  13.658  12.686  0.00  0.00     0.173 C 
BRANCH  31  32
HETATM   32  C   UNK N   1      36.154  13.543  14.180  0.00  0.00     0.163 C 
HETATM   33  O   UNK N   1      35.074  13.420  14.734  0.00  0.00    -0.648 OA
BRANCH  32  34
HETATM   34  O   UNK N   1      37.280  13.605  14.916  0.00  0.00    -0.775 OA
HETATM   35  H   UNK N   1      37.719  12.944  15.414  0.00  0.00     0.167 HD
ENDBRANCH  32  34
ENDBRANCH  31  32
BRANCH  31  36
HETATM   36  N   UNK N   1      37.531  13.231  12.222  0.00  0.00    -0.418 N 
HETATM   37  H   UNK N   1      37.910  12.503  11.617  0.00  0.00     0.150 HD
HETATM   38  H   UNK N   1      38.271  13.818  12.607  0.00  0.00     0.150 HD
ENDBRANCH  31  36
ENDBRANCH  30  31
ENDBRANCH  29  30
ENDBRANCH  26  29
ENDBRANCH   1  25
TORSDOF 16
ENDMDL
MODEL 8
REMARK VINA RESULT:      -6.6      2.652      7.553
REMARK  16 active torsions:
REMARK  status: ('A' for Active; 'I' for Inactive)
REMARK    1  A    between atoms: C_4  and  C_2 
REMARK    2  A    between atoms: C_9  and  C_2 
REMARK    3  A    between atoms: C_13  and  C_4 
REMARK    4  A    between atoms: C_14  and  C_6 
REMARK    5  A    between atoms: N_18  and  C_6 
REMARK    6  A    between atoms: C_10  and  C_7 
REMARK    7  A    between atoms: S_32  and  C_7 
REMARK    8  A    between atoms: N_20  and  C_8 
REMARK    9  A    between atoms: C_16  and  C_9 
REMARK   10  A    between atoms: C_9  and  N_17 
REMARK   11  A    between atoms: C_15  and  C_10 
REMARK   12  A    between atoms: C_10  and  N_19 
REMARK   13  A    between atoms: N_21  and  C_11 
REMARK   14  A    between atoms: S_32  and  C_12 
REMARK       I    between atoms: N_19  and  C_13 
REMARK   15  A    between atoms: O_23  and  C_14 
REMARK       I    between atoms: N_18  and  C_15 
REMARK   16  A    between atoms: O_26  and  C_16 
ROOT
HETATM    1  C   UNK N   1      20.403  16.263   8.267  0.00  0.00     0.186 C 
ENDROOT
BRANCH   1   2
HETATM    2  C   UNK N   1      20.443  14.765   8.208  0.00  0.00     0.114 C 
BRANCH   2   3
HETATM    3  S   UNK N   1      21.343  14.152   9.672  0.00  0.00    -0.125 SA
BRANCH   3   4
HETATM    4  C   UNK N   1      21.938  12.899   8.614  0.00  0.00     0.033 A 
HETATM    5  C   UNK N   1      21.199  12.660   7.457  0.00  0.00     0.023 A 
HETATM    6  C   UNK N   1      21.602  11.686   6.563  0.00  0.00     0.037 A 
HETATM    7  C   UNK N   1      22.753  10.939   6.816  0.00  0.00     0.105 A 
HETATM    8  C   UNK N   1      23.465  11.135   8.011  0.00  0.00     0.073 A 
HETATM    9  C   UNK N   1      23.070  12.111   8.934  0.00  0.00     0.122 A 
BRANCH   7  10
HETATM   10  N   UNK N   1      23.252  10.054   5.828  0.00  0.00    -0.116 N 
HETATM   11  O   UNK N   1      22.874   8.918   5.800  0.00  0.00    -0.532 OA
HETATM   12  O   UNK N   1      23.917  10.471   4.933  0.00  0.00    -0.532 OA
ENDBRANCH   7  10
BRANCH   9  13
HETATM   13  N   UNK N   1      23.827  12.276  10.146  0.00  0.00    -0.114 N 
HETATM   14  O   UNK N   1      24.828  12.931  10.171  0.00  0.00    -0.532 OA
HETATM   15  O   UNK N   1      23.462  11.748  11.151  0.00  0.00    -0.532 OA
ENDBRANCH   9  13
ENDBRANCH   3   4
ENDBRANCH   2   3
ENDBRANCH   1   2
BRANCH   1  16
HETATM   16  C   UNK N   1      19.050  16.727   8.778  0.00  0.00     0.241 C 
HETATM   17  N   UNK N   1      18.980  17.778   9.616  0.00  0.00    -0.349 N 
HETATM   18  H   UNK N   1      19.810  18.201   9.935  0.00  0.00     0.163 HD
HETATM   19  O   UNK N   1      18.021  16.154   8.435  0.00  0.00    -0.271 OA
BRANCH  17  20
HETATM   20  C   UNK N   1      17.708  18.287  10.052  0.00  0.00     0.232 C 
BRANCH  20  21
HETATM   21  C   UNK N   1      17.921  19.112  11.261  0.00  0.00     0.158 C 
HETATM   22  O   UNK N   1      17.058  19.167  12.119  0.00  0.00    -0.649 OA
BRANCH  21  23
HETATM   23  O   UNK N   1      19.071  19.794  11.415  0.00  0.00    -0.775 OA
HETATM   24  H   UNK N   1      19.934  19.515  11.176  0.00  0.00     0.167 HD
ENDBRANCH  21  23
ENDBRANCH  20  21
ENDBRANCH  17  20
ENDBRANCH   1  16
BRANCH   1  25
HETATM   25  N   UNK N   1      20.792  16.715   6.938  0.00  0.00    -0.347 N 
HETATM   26  C   UNK N   1      21.022  17.984   6.506  0.00  0.00     0.218 C 
HETATM   27  O   UNK N   1      20.954  18.937   7.264  0.00  0.00    -0.274 OA
HETATM   28  H   UNK N   1      20.902  16.008   6.263  0.00  0.00     0.163 HD
BRANCH  26  29
HETATM   29  C   UNK N   1      21.260  18.228   5.048  0.00  0.00     0.105 C 
BRANCH  29  30
HETATM   30  C   UNK N   1      20.503  17.253   4.143  0.00  0.00     0.044 C 
BRANCH  30  31
HETATM   31  C   UNK N   1      20.465  17.699   2.682  0.00  0.00     0.173 C 
BRANCH  31  32
HETATM   32  C   UNK N   1      19.628  18.935   2.532  0.00  0.00     0.163 C 
HETATM   33  O   UNK N   1      20.160  20.032   2.489  0.00  0.00    -0.648 OA
BRANCH  32  34
HETATM   34  O   UNK N   1      18.285  18.840   2.474  0.00  0.00    -0.775 OA
HETATM   35  H   UNK N   1      17.662  18.615   3.137  0.00  0.00     0.167 HD
ENDBRANCH  32  34
ENDBRANCH  31  32
BRANCH  31  36
HETATM   36  N   UNK N   1      19.908  16.630   1.874  0.00  0.00    -0.418 N 
HETATM   37  H   UNK N   1      20.007  15.617   1.800  0.00  0.00     0.150 HD
HETATM   38  H   UNK N   1      19.236  16.988   1.196  0.00  0.00     0.150 HD
ENDBRANCH  31  36
ENDBRANCH  30  31
ENDBRANCH  29  30
ENDBRANCH  26  29
ENDBRANCH   1  25
TORSDOF 16
ENDMDL
MODEL 9
REMARK VINA RESULT:      -6.5      3.246      8.127
REMARK  16 active torsions:
REMARK  status: ('A' for Active; 'I' for Inactive)
REMARK    1  A    between atoms: C_4  and  C_2 
REMARK    2  A    between atoms: C_9  and  C_2 
REMARK    3  A    between atoms: C_13  and  C_4 
REMARK    4  A    between atoms: C_14  and  C_6 
REMARK    5  A    between atoms: N_18  and  C_6 
REMARK    6  A    between atoms: C_10  and  C_7 
REMARK    7  A    between atoms: S_32  and  C_7 
REMARK    8  A    between atoms: N_20  and  C_8 
REMARK    9  A    between atoms: C_16  and  C_9 
REMARK   10  A    between atoms: C_9  and  N_17 
REMARK   11  A    between atoms: C_15  and  C_10 
REMARK   12  A    between atoms: C_10  and  N_19 
REMARK   13  A    between atoms: N_21  and  C_11 
REMARK   14  A    between atoms: S_32  and  C_12 
REMARK       I    between atoms: N_19  and  C_13 
REMARK   15  A    between atoms: O_23  and  C_14 
REMARK       I    between atoms: N_18  and  C_15 
REMARK   16  A    between atoms: O_26  and  C_16 
ROOT
HETATM    1  C   UNK N   1      21.252  16.456   4.019  0.00  0.00     0.186 C 
ENDROOT
BRANCH   1   2
HETATM    2  C   UNK N   1      20.742  16.003   5.355  0.00  0.00     0.114 C 
BRANCH   2   3
HETATM    3  S   UNK N   1      21.248  17.225   6.612  0.00  0.00    -0.125 SA
BRANCH   3   4
HETATM    4  C   UNK N   1      21.077  15.918   7.755  0.00  0.00     0.033 A 
HETATM    5  C   UNK N   1      22.046  14.917   7.704  0.00  0.00     0.023 A 
HETATM    6  C   UNK N   1      21.986  13.846   8.576  0.00  0.00     0.037 A 
HETATM    7  C   UNK N   1      20.956  13.765   9.513  0.00  0.00     0.105 A 
HETATM    8  C   UNK N   1      19.944  14.740   9.525  0.00  0.00     0.073 A 
HETATM    9  C   UNK N   1      19.981  15.829   8.646  0.00  0.00     0.122 A 
BRANCH   7  10
HETATM   10  N   UNK N   1      20.982  12.755  10.506  0.00  0.00    -0.116 N 
HETATM   11  O   UNK N   1      22.031  12.301  10.866  0.00  0.00    -0.532 OA
HETATM   12  O   UNK N   1      19.988  12.470  11.096  0.00  0.00    -0.532 OA
ENDBRANCH   7  10
BRANCH   9  13
HETATM   13  N   UNK N   1      18.922  16.802   8.692  0.00  0.00    -0.114 N 
HETATM   14  O   UNK N   1      19.048  17.830   9.290  0.00  0.00    -0.532 OA
HETATM   15  O   UNK N   1      17.893  16.587   8.131  0.00  0.00    -0.532 OA
ENDBRANCH   9  13
ENDBRANCH   3   4
ENDBRANCH   2   3
ENDBRANCH   1   2
BRANCH   1  16
HETATM   16  C   UNK N   1      20.374  17.573   3.479  0.00  0.00     0.241 C 
HETATM   17  N   UNK N   1      20.945  18.686   2.981  0.00  0.00    -0.349 N 
HETATM   18  H   UNK N   1      21.923  18.790   3.023  0.00  0.00     0.163 HD
HETATM   19  O   UNK N   1      19.152  17.470   3.492  0.00  0.00    -0.271 OA
BRANCH  17  20
HETATM   20  C   UNK N   1      20.142  19.722   2.393  0.00  0.00     0.232 C 
BRANCH  20  21
HETATM   21  C   UNK N   1      21.042  20.730   1.791  0.00  0.00     0.158 C 
HETATM   22  O   UNK N   1      21.308  20.674   0.603  0.00  0.00    -0.649 OA
BRANCH  21  23
HETATM   23  O   UNK N   1      21.558  21.711   2.553  0.00  0.00    -0.775 OA
HETATM   24  H   UNK N   1      21.536  21.776   3.488  0.00  0.00     0.167 HD
ENDBRANCH  21  23
ENDBRANCH  20  21
ENDBRANCH  17  20
ENDBRANCH   1  16
BRANCH   1  25
HETATM   25  N   UNK N   1      21.348  15.250   3.209  0.00  0.00    -0.347 N 
HETATM   26  C   UNK N   1      22.452  14.691   2.644  0.00  0.00     0.218 C 
HETATM   27  O   UNK N   1      23.562  15.170   2.806  0.00  0.00    -0.274 OA
HETATM   28  H   UNK N   1      20.501  14.775   3.050  0.00  0.00     0.163 HD
BRANCH  26  29
HETATM   29  C   UNK N   1      22.289  13.526   1.717  0.00  0.00     0.105 C 
BRANCH  29  30
HETATM   30  C   UNK N   1      21.173  13.726   0.689  0.00  0.00     0.044 C 
BRANCH  30  31
HETATM   31  C   UNK N   1      20.007  12.756   0.874  0.00  0.00     0.173 C 
BRANCH  31  32
HETATM   32  C   UNK N   1      18.784  13.489   1.340  0.00  0.00     0.163 C 
HETATM   33  O   UNK N   1      17.684  12.971   1.237  0.00  0.00    -0.648 OA
BRANCH  32  34
HETATM   34  O   UNK N   1      18.892  14.733   1.846  0.00  0.00    -0.775 OA
HETATM   35  H   UNK N   1      19.086  15.546   1.425  0.00  0.00     0.167 HD
ENDBRANCH  32  34
ENDBRANCH  31  32
BRANCH  31  36
HETATM   36  N   UNK N   1      20.378  11.751   1.854  0.00  0.00    -0.418 N 
HETATM   37  H   UNK N   1      21.170  11.132   2.030  0.00  0.00     0.150 HD
HETATM   38  H   UNK N   1      19.649  11.630   2.556  0.00  0.00     0.150 HD
ENDBRANCH  31  36
ENDBRANCH  30  31
ENDBRANCH  29  30
ENDBRANCH  26  29
ENDBRANCH   1  25
TORSDOF 16
ENDMDL
