MODEL 1
REMARK VINA RESULT:      -6.0      0.000      0.000
REMARK  6 active torsions:
REMARK  status: ('A' for Active; 'I' for Inactive)
REMARK    1  A    between atoms: C_6  and  C_4 
REMARK    2  A    between atoms: C_8  and  C_4 
REMARK    3  A    between atoms: N_12  and  C_7 
REMARK    4  A    between atoms: C_11  and  C_8 
REMARK    5  A    between atoms: C_8  and  N_13 
REMARK    6  A    between atoms: O_16  and  C_11 
ROOT
HETATM    1  C   UNK N   1      34.527  10.778  15.994  0.00  0.00     0.005 A 
HETATM    2  C   UNK N   1      34.100  10.593  14.661  0.00  0.00     0.030 A 
HETATM    3  C   UNK N   1      35.350  11.868  16.332  0.00  0.00     0.030 A 
HETATM    4  C   UNK N   1      36.541  14.411  14.215  0.00  0.00     0.096 A 
HETATM    5  C   UNK N   1      35.821  13.641  13.306  0.00  0.00    -0.026 A 
HETATM    6  C   UNK N   1      34.487  11.501  13.658  0.00  0.00     0.038 A 
HETATM    7  C   UNK N   1      35.716  12.745  15.316  0.00  0.00     0.045 A 
HETATM    8  C   UNK N   1      35.301  12.581  14.021  0.00  0.00     0.025 A 
HETATM    9  N   UNK N   1      36.476  13.848  15.446  0.00  0.00    -0.365 N 
HETATM   10  H   UNK N   1      36.900  14.180  16.271  0.00  0.00     0.165 HD
ENDROOT
BRANCH   5  11
HETATM   11  C   UNK N   1      35.594  13.972  11.854  0.00  0.00     0.076 C 
BRANCH  11  12
HETATM   12  C   UNK N   1      34.766  15.237  11.601  0.00  0.00     0.177 C 
BRANCH  12  13
HETATM   13  C   UNK N   1      35.626  16.263  10.907  0.00  0.00     0.163 C 
HETATM   14  O   UNK N   1      35.123  17.247  10.384  0.00  0.00    -0.648 OA
BRANCH  13  15
HETATM   15  O   UNK N   1      36.962  16.104  10.868  0.00  0.00    -0.775 OA
HETATM   16  H   UNK N   1      37.523  16.753  11.248  0.00  0.00     0.167 HD
ENDBRANCH  13  15
ENDBRANCH  12  13
BRANCH  12  17
HETATM   17  N   UNK N   1      33.606  14.921  10.778  0.00  0.00    -0.417 N 
HETATM   18  H   UNK N   1      32.817  14.416  11.181  0.00  0.00     0.150 HD
HETATM   19  H   UNK N   1      33.584  15.205   9.798  0.00  0.00     0.150 HD
ENDBRANCH  12  17
ENDBRANCH  11  12
ENDBRANCH   5  11
BRANCH   6  20
HETATM   20  N   UNK N   1      34.063  11.316  12.327  0.00  0.00    -0.398 N 
HETATM   21  H   UNK N   1      34.203  12.026  11.658  0.00  0.00     0.156 HD
HETATM   22  H   UNK N   1      33.626  10.474  12.063  0.00  0.00     0.156 HD
ENDBRANCH   6  20
TORSDOF 6
ENDMDL
MODEL 2
REMARK VINA RESULT:      -5.6     10.912     13.138
REMARK  6 active torsions:
REMARK  status: ('A' for Active; 'I' for Inactive)
REMARK    1  A    between atoms: C_6  and  C_4 
REMARK    2  A    between atoms: C_8  and  C_4 
REMARK    3  A    between atoms: N_12  and  C_7 
REMARK    4  A    between atoms: C_11  and  C_8 
REMARK    5  A    between atoms: C_8  and  N_13 
REMARK    6  A    between atoms: O_16  and  C_11 
ROOT
HETATM    1  C   UNK N   1      29.657  17.158   7.166  0.00  0.00     0.005 A 
HETATM    2  C   UNK N   1      29.532  17.163   5.759  0.00  0.00     0.030 A 
HETATM    3  C   UNK N   1      28.937  18.082   7.946  0.00  0.00     0.030 A 
HETATM    4  C   UNK N   1      26.672  20.536   6.842  0.00  0.00     0.096 A 
HETATM    5  C   UNK N   1      27.056  19.979   5.625  0.00  0.00    -0.026 A 
HETATM    6  C   UNK N   1      28.682  18.085   5.124  0.00  0.00     0.038 A 
HETATM    7  C   UNK N   1      28.107  18.983   7.285  0.00  0.00     0.045 A 
HETATM    8  C   UNK N   1      27.971  18.990   5.922  0.00  0.00     0.025 A 
HETATM    9  N   UNK N   1      27.329  19.921   7.856  0.00  0.00    -0.365 N 
HETATM   10  H   UNK N   1      27.254  20.122   8.817  0.00  0.00     0.165 HD
ENDROOT
BRANCH   5  11
HETATM   11  C   UNK N   1      26.496  20.341   4.274  0.00  0.00     0.076 C 
BRANCH  11  12
HETATM   12  C   UNK N   1      25.041  19.918   4.043  0.00  0.00     0.177 C 
BRANCH  12  13
HETATM   13  C   UNK N   1      24.488  20.665   2.856  0.00  0.00     0.163 C 
HETATM   14  O   UNK N   1      25.130  20.754   1.819  0.00  0.00    -0.648 OA
BRANCH  13  15
HETATM   15  O   UNK N   1      23.271  21.236   2.930  0.00  0.00    -0.775 OA
HETATM   16  H   UNK N   1      23.070  21.984   2.401  0.00  0.00     0.167 HD
ENDBRANCH  13  15
ENDBRANCH  12  13
BRANCH  12  17
HETATM   17  N   UNK N   1      24.968  18.482   3.805  0.00  0.00    -0.417 N 
HETATM   18  H   UNK N   1      25.563  18.051   3.098  0.00  0.00     0.150 HD
HETATM   19  H   UNK N   1      24.320  17.908   4.346  0.00  0.00     0.150 HD
ENDBRANCH  12  17
ENDBRANCH  11  12
ENDBRANCH   5  11
BRANCH   6  20
HETATM   20  N   UNK N   1      28.558  18.091   3.720  0.00  0.00    -0.398 N 
HETATM   21  H   UNK N   1      29.206  17.602   3.162  0.00  0.00     0.156 HD
HETATM   22  H   UNK N   1      27.821  18.585   3.294  0.00  0.00     0.156 HD
ENDBRANCH   6  20
TORSDOF 6
ENDMDL
MODEL 3
REMARK VINA RESULT:      -5.6      8.420     10.376
REMARK  6 active torsions:
REMARK  status: ('A' for Active; 'I' for Inactive)
REMARK    1  A    between atoms: C_6  and  C_4 
REMARK    2  A    between atoms: C_8  and  C_4 
REMARK    3  A    between atoms: N_12  and  C_7 
REMARK    4  A    between atoms: C_11  and  C_8 
REMARK    5  A    between atoms: C_8  and  N_13 
REMARK    6  A    between atoms: O_16  and  C_11 
ROOT
HETATM    1  C   UNK N   1      33.108  16.982   3.971  0.00  0.00     0.005 A 
HETATM    2  C   UNK N   1      31.777  17.254   3.583  0.00  0.00     0.030 A 
HETATM    3  C   UNK N   1      33.441  16.860   5.332  0.00  0.00     0.030 A 
HETATM    4  C   UNK N   1      31.293  17.090   8.107  0.00  0.00     0.096 A 
HETATM    5  C   UNK N   1      30.392  17.317   7.070  0.00  0.00    -0.026 A 
HETATM    6  C   UNK N   1      30.769  17.397   4.554  0.00  0.00     0.038 A 
HETATM    7  C   UNK N   1      32.420  17.010   6.266  0.00  0.00     0.045 A 
HETATM    8  C   UNK N   1      31.125  17.264   5.902  0.00  0.00     0.025 A 
HETATM    9  N   UNK N   1      32.538  16.909   7.603  0.00  0.00    -0.365 N 
HETATM   10  H   UNK N   1      33.363  16.739   8.112  0.00  0.00     0.165 HD
ENDROOT
BRANCH   5  11
HETATM   11  C   UNK N   1      28.903  17.490   7.217  0.00  0.00     0.076 C 
BRANCH  11  12
HETATM   12  C   UNK N   1      28.469  18.774   7.933  0.00  0.00     0.177 C 
BRANCH  12  13
HETATM   13  C   UNK N   1      27.689  19.639   6.975  0.00  0.00     0.163 C 
HETATM   14  O   UNK N   1      27.978  19.673   5.788  0.00  0.00    -0.648 OA
BRANCH  13  15
HETATM   15  O   UNK N   1      26.657  20.378   7.425  0.00  0.00    -0.775 OA
HETATM   16  H   UNK N   1      26.814  21.217   7.813  0.00  0.00     0.167 HD
ENDBRANCH  13  15
ENDBRANCH  12  13
BRANCH  12  17
HETATM   17  N   UNK N   1      27.648  18.450   9.092  0.00  0.00    -0.417 N 
HETATM   18  H   UNK N   1      27.818  17.590   9.612  0.00  0.00     0.150 HD
HETATM   19  H   UNK N   1      26.903  19.084   9.382  0.00  0.00     0.150 HD
ENDBRANCH  12  17
ENDBRANCH  11  12
ENDBRANCH   5  11
BRANCH   6  20
HETATM   20  N   UNK N   1      29.441  17.669   4.168  0.00  0.00    -0.398 N 
HETATM   21  H   UNK N   1      29.258  18.219   3.372  0.00  0.00     0.156 HD
HETATM   22  H   UNK N   1      28.693  17.308   4.696  0.00  0.00     0.156 HD
ENDBRANCH   6  20
TORSDOF 6
ENDMDL
MODEL 4
REMARK VINA RESULT:      -5.5      0.914      2.385
REMARK  6 active torsions:
REMARK  status: ('A' for Active; 'I' for Inactive)
REMARK    1  A    between atoms: C_6  and  C_4 
REMARK    2  A    between atoms: C_8  and  C_4 
REMARK    3  A    between atoms: N_12  and  C_7 
REMARK    4  A    between atoms: C_11  and  C_8 
REMARK    5  A    between atoms: C_8  and  N_13 
REMARK    6  A    between atoms: O_16  and  C_11 
ROOT
HETATM    1  C   UNK N   1      35.895  12.157  16.309  0.00  0.00     0.005 A 
HETATM    2  C   UNK N   1      36.399  13.364  15.777  0.00  0.00     0.030 A 
HETATM    3  C   UNK N   1      35.169  11.269  15.494  0.00  0.00     0.030 A 
HETATM    4  C   UNK N   1      34.417  11.603  12.075  0.00  0.00     0.096 A 
HETATM    5  C   UNK N   1      35.118  12.786  12.297  0.00  0.00    -0.026 A 
HETATM    6  C   UNK N   1      36.187  13.688  14.424  0.00  0.00     0.038 A 
HETATM    7  C   UNK N   1      34.975  11.621  14.162  0.00  0.00     0.045 A 
HETATM    8  C   UNK N   1      35.467  12.785  13.633  0.00  0.00     0.025 A 
HETATM    9  N   UNK N   1      34.329  10.898  13.229  0.00  0.00    -0.365 N 
HETATM   10  H   UNK N   1      33.882  10.031  13.359  0.00  0.00     0.165 HD
ENDROOT
BRANCH   5  11
HETATM   11  C   UNK N   1      35.488  13.802  11.249  0.00  0.00     0.076 C 
BRANCH  11  12
HETATM   12  C   UNK N   1      34.690  15.110  11.307  0.00  0.00     0.177 C 
BRANCH  12  13
HETATM   13  C   UNK N   1      35.549  16.240  10.798  0.00  0.00     0.163 C 
HETATM   14  O   UNK N   1      35.041  17.235  10.301  0.00  0.00    -0.648 OA
BRANCH  13  15
HETATM   15  O   UNK N   1      36.889  16.162  10.897  0.00  0.00    -0.775 OA
HETATM   16  H   UNK N   1      37.412  16.055  10.125  0.00  0.00     0.167 HD
ENDBRANCH  13  15
ENDBRANCH  12  13
BRANCH  12  17
HETATM   17  N   UNK N   1      33.484  14.998  10.497  0.00  0.00    -0.417 N 
HETATM   18  H   UNK N   1      33.058  15.834  10.098  0.00  0.00     0.150 HD
HETATM   19  H   UNK N   1      33.067  14.082  10.328  0.00  0.00     0.150 HD
ENDBRANCH  12  17
ENDBRANCH  11  12
ENDBRANCH   5  11
BRANCH   6  20
HETATM   20  N   UNK N   1      36.688  14.893  13.893  0.00  0.00    -0.398 N 
HETATM   21  H   UNK N   1      37.031  14.924  12.970  0.00  0.00     0.156 HD
HETATM   22  H   UNK N   1      36.695  15.708  14.445  0.00  0.00     0.156 HD
ENDBRANCH   6  20
TORSDOF 6
ENDMDL
MODEL 5
REMARK VINA RESULT:      -5.5      2.631      4.359
REMARK  6 active torsions:
REMARK  status: ('A' for Active; 'I' for Inactive)
REMARK    1  A    between atoms: C_6  and  C_4 
REMARK    2  A    between atoms: C_8  and  C_4 
REMARK    3  A    between atoms: N_12  and  C_7 
REMARK    4  A    between atoms: C_11  and  C_8 
REMARK    5  A    between atoms: C_8  and  N_13 
REMARK    6  A    between atoms: O_16  and  C_11 
ROOT
HETATM    1  C   UNK N   1      35.343  10.904  20.151  0.00  0.00     0.005 A 
HETATM    2  C   UNK N   1      35.396  12.304  19.966  0.00  0.00     0.030 A 
HETATM    3  C   UNK N   1      35.201  10.046  19.046  0.00  0.00     0.030 A 
HETATM    4  C   UNK N   1      35.000  10.923  15.646  0.00  0.00     0.096 A 
HETATM    5  C   UNK N   1      35.106  12.184  16.227  0.00  0.00    -0.026 A 
HETATM    6  C   UNK N   1      35.316  12.853  18.674  0.00  0.00     0.038 A 
HETATM    7  C   UNK N   1      35.121  10.623  17.782  0.00  0.00     0.045 A 
HETATM    8  C   UNK N   1      35.181  11.978  17.590  0.00  0.00     0.025 A 
HETATM    9  N   UNK N   1      35.004   9.971  16.611  0.00  0.00    -0.365 N 
HETATM   10  H   UNK N   1      34.934   8.997  16.481  0.00  0.00     0.165 HD
ENDROOT
BRANCH   5  11
HETATM   11  C   UNK N   1      35.208  13.490  15.485  0.00  0.00     0.076 C 
BRANCH  11  12
HETATM   12  C   UNK N   1      36.491  13.670  14.666  0.00  0.00     0.177 C 
BRANCH  12  13
HETATM   13  C   UNK N   1      36.134  13.820  13.208  0.00  0.00     0.163 C 
HETATM   14  O   UNK N   1      34.965  13.847  12.852  0.00  0.00    -0.648 OA
BRANCH  13  15
HETATM   15  O   UNK N   1      37.108  13.933  12.286  0.00  0.00    -0.775 OA
HETATM   16  H   UNK N   1      37.328  14.775  11.936  0.00  0.00     0.167 HD
ENDBRANCH  13  15
ENDBRANCH  12  13
BRANCH  12  17
HETATM   17  N   UNK N   1      37.218  14.847  15.123  0.00  0.00    -0.417 N 
HETATM   18  H   UNK N   1      36.895  15.779  14.864  0.00  0.00     0.150 HD
HETATM   19  H   UNK N   1      38.051  14.738  15.703  0.00  0.00     0.150 HD
ENDBRANCH  12  17
ENDBRANCH  11  12
ENDBRANCH   5  11
BRANCH   6  20
HETATM   20  N   UNK N   1      35.367  14.249  18.488  0.00  0.00    -0.398 N 
HETATM   21  H   UNK N   1      36.118  14.658  17.999  0.00  0.00     0.156 HD
HETATM   22  H   UNK N   1      34.649  14.819  18.848  0.00  0.00     0.156 HD
ENDBRANCH   6  20
TORSDOF 6
ENDMDL
MODEL 6
REMARK VINA RESULT:      -5.4     22.837     24.983
REMARK  6 active torsions:
REMARK  status: ('A' for Active; 'I' for Inactive)
REMARK    1  A    between atoms: C_6  and  C_4 
REMARK    2  A    between atoms: C_8  and  C_4 
REMARK    3  A    between atoms: N_12  and  C_7 
REMARK    4  A    between atoms: C_11  and  C_8 
REMARK    5  A    between atoms: C_8  and  N_13 
REMARK    6  A    between atoms: O_16  and  C_11 
ROOT
HETATM    1  C   UNK N   1      27.725  30.951  -4.150  0.00  0.00     0.005 A 
HETATM    2  C   UNK N   1      26.804  30.130  -3.463  0.00  0.00     0.030 A 
HETATM    3  C   UNK N   1      28.230  30.559  -5.403  0.00  0.00     0.030 A 
HETATM    4  C   UNK N   1      27.444  27.661  -7.234  0.00  0.00     0.096 A 
HETATM    5  C   UNK N   1      26.659  27.465  -6.101  0.00  0.00    -0.026 A 
HETATM    6  C   UNK N   1      26.376  28.915  -4.028  0.00  0.00     0.038 A 
HETATM    7  C   UNK N   1      27.788  29.349  -5.932  0.00  0.00     0.045 A 
HETATM    8  C   UNK N   1      26.889  28.549  -5.279  0.00  0.00     0.025 A 
HETATM    9  N   UNK N   1      28.140  28.818  -7.117  0.00  0.00    -0.365 N 
HETATM   10  H   UNK N   1      28.775  29.194  -7.768  0.00  0.00     0.165 HD
ENDROOT
BRANCH   5  11
HETATM   11  C   UNK N   1      25.690  26.333  -5.884  0.00  0.00     0.076 C 
BRANCH  11  12
HETATM   12  C   UNK N   1      26.336  24.955  -5.699  0.00  0.00     0.177 C 
BRANCH  12  13
HETATM   13  C   UNK N   1      27.002  24.895  -4.348  0.00  0.00     0.163 C 
HETATM   14  O   UNK N   1      28.163  24.530  -4.240  0.00  0.00    -0.648 OA
BRANCH  13  15
HETATM   15  O   UNK N   1      26.317  25.254  -3.245  0.00  0.00    -0.775 OA
HETATM   16  H   UNK N   1      26.745  25.732  -2.561  0.00  0.00     0.167 HD
ENDBRANCH  13  15
ENDBRANCH  12  13
BRANCH  12  17
HETATM   17  N   UNK N   1      25.326  23.910  -5.804  0.00  0.00    -0.417 N 
HETATM   18  H   UNK N   1      25.187  23.422  -6.688  0.00  0.00     0.150 HD
HETATM   19  H   UNK N   1      24.759  23.666  -4.991  0.00  0.00     0.150 HD
ENDBRANCH  12  17
ENDBRANCH  11  12
ENDBRANCH   5  11
BRANCH   6  20
HETATM   20  N   UNK N   1      25.459  28.094  -3.342  0.00  0.00    -0.398 N 
HETATM   21  H   UNK N   1      24.512  28.074  -3.611  0.00  0.00     0.156 HD
HETATM   22  H   UNK N   1      25.766  27.537  -2.590  0.00  0.00     0.156 HD
ENDBRANCH   6  20
TORSDOF 6
ENDMDL
MODEL 7
REMARK VINA RESULT:      -5.4      8.081     10.067
REMARK  6 active torsions:
REMARK  status: ('A' for Active; 'I' for Inactive)
REMARK    1  A    between atoms: C_6  and  C_4 
REMARK    2  A    between atoms: C_8  and  C_4 
REMARK    3  A    between atoms: N_12  and  C_7 
REMARK    4  A    between atoms: C_11  and  C_8 
REMARK    5  A    between atoms: C_8  and  N_13 
REMARK    6  A    between atoms: O_16  and  C_11 
ROOT
HETATM    1  C   UNK N   1      34.018  17.486   7.384  0.00  0.00     0.005 A 
HETATM    2  C   UNK N   1      33.109  17.640   8.453  0.00  0.00     0.030 A 
HETATM    3  C   UNK N   1      33.548  17.258   6.077  0.00  0.00     0.030 A 
HETATM    4  C   UNK N   1      30.209  17.060   4.991  0.00  0.00     0.096 A 
HETATM    5  C   UNK N   1      30.020  17.270   6.354  0.00  0.00    -0.026 A 
HETATM    6  C   UNK N   1      31.723  17.576   8.222  0.00  0.00     0.038 A 
HETATM    7  C   UNK N   1      32.171  17.198   5.884  0.00  0.00     0.045 A 
HETATM    8  C   UNK N   1      31.279  17.356   6.912  0.00  0.00     0.025 A 
HETATM    9  N   UNK N   1      31.535  17.010   4.713  0.00  0.00    -0.365 N 
HETATM   10  H   UNK N   1      31.949  16.865   3.832  0.00  0.00     0.165 HD
ENDROOT
BRANCH   5  11
HETATM   11  C   UNK N   1      28.693  17.456   7.042  0.00  0.00     0.076 C 
BRANCH  11  12
HETATM   12  C   UNK N   1      28.270  18.915   7.248  0.00  0.00     0.177 C 
BRANCH  12  13
HETATM   13  C   UNK N   1      27.473  19.376   6.053  0.00  0.00     0.163 C 
HETATM   14  O   UNK N   1      28.019  19.953   5.124  0.00  0.00    -0.648 OA
BRANCH  13  15
HETATM   15  O   UNK N   1      26.148  19.144   6.000  0.00  0.00    -0.775 OA
HETATM   16  H   UNK N   1      25.725  18.676   6.694  0.00  0.00     0.167 HD
ENDBRANCH  13  15
ENDBRANCH  12  13
BRANCH  12  17
HETATM   17  N   UNK N   1      27.469  19.039   8.458  0.00  0.00    -0.417 N 
HETATM   18  H   UNK N   1      27.926  19.150   9.363  0.00  0.00     0.150 HD
HETATM   19  H   UNK N   1      26.450  19.016   8.399  0.00  0.00     0.150 HD
ENDBRANCH  12  17
ENDBRANCH  11  12
ENDBRANCH   5  11
BRANCH   6  20
HETATM   20  N   UNK N   1      30.814  17.729   9.288  0.00  0.00    -0.398 N 
HETATM   21  H   UNK N   1      31.112  18.119  10.142  0.00  0.00     0.156 HD
HETATM   22  H   UNK N   1      29.878  17.445   9.179  0.00  0.00     0.156 HD
ENDBRANCH   6  20
TORSDOF 6
ENDMDL
MODEL 8
REMARK VINA RESULT:      -5.2      2.965      4.077
REMARK  6 active torsions:
REMARK  status: ('A' for Active; 'I' for Inactive)
REMARK    1  A    between atoms: C_6  and  C_4 
REMARK    2  A    between atoms: C_8  and  C_4 
REMARK    3  A    between atoms: N_12  and  C_7 
REMARK    4  A    between atoms: C_11  and  C_8 
REMARK    5  A    between atoms: C_8  and  N_13 
REMARK    6  A    between atoms: O_16  and  C_11 
ROOT
HETATM    1  C   UNK N   1      35.241  10.039  19.575  0.00  0.00     0.005 A 
HETATM    2  C   UNK N   1      35.282   9.654  18.217  0.00  0.00     0.030 A 
HETATM    3  C   UNK N   1      35.256  11.400  19.929  0.00  0.00     0.030 A 
HETATM    4  C   UNK N   1      35.330  14.187  17.784  0.00  0.00     0.096 A 
HETATM    5  C   UNK N   1      35.353  13.150  16.855  0.00  0.00    -0.026 A 
HETATM    6  C   UNK N   1      35.331  10.629  17.203  0.00  0.00     0.038 A 
HETATM    7  C   UNK N   1      35.308  12.338  18.902  0.00  0.00     0.045 A 
HETATM    8  C   UNK N   1      35.339  11.977  17.581  0.00  0.00     0.025 A 
HETATM    9  N   UNK N   1      35.310  13.677  19.040  0.00  0.00    -0.365 N 
HETATM   10  H   UNK N   1      35.299  14.184  19.884  0.00  0.00     0.165 HD
ENDROOT
BRANCH   5  11
HETATM   11  C   UNK N   1      35.307  13.308  15.357  0.00  0.00     0.076 C 
BRANCH  11  12
HETATM   12  C   UNK N   1      36.671  13.497  14.685  0.00  0.00     0.177 C 
BRANCH  12  13
HETATM   13  C   UNK N   1      36.751  12.616  13.464  0.00  0.00     0.163 C 
HETATM   14  O   UNK N   1      36.562  13.078  12.348  0.00  0.00    -0.648 OA
BRANCH  13  15
HETATM   15  O   UNK N   1      37.041  11.308  13.597  0.00  0.00    -0.775 OA
HETATM   16  H   UNK N   1      37.592  11.019  14.298  0.00  0.00     0.167 HD
ENDBRANCH  13  15
ENDBRANCH  12  13
BRANCH  12  17
HETATM   17  N   UNK N   1      36.853  14.892  14.305  0.00  0.00    -0.417 N 
HETATM   18  H   UNK N   1      36.532  15.636  14.925  0.00  0.00     0.150 HD
HETATM   19  H   UNK N   1      37.303  15.124  13.419  0.00  0.00     0.150 HD
ENDBRANCH  12  17
ENDBRANCH  11  12
ENDBRANCH   5  11
BRANCH   6  20
HETATM   20  N   UNK N   1      35.374  10.246  15.848  0.00  0.00    -0.398 N 
HETATM   21  H   UNK N   1      35.909  10.763  15.202  0.00  0.00     0.156 HD
HETATM   22  H   UNK N   1      34.868   9.458  15.544  0.00  0.00     0.156 HD
ENDBRANCH   6  20
TORSDOF 6
ENDMDL
MODEL 9
REMARK VINA RESULT:      -5.2      3.233      6.140
REMARK  6 active torsions:
REMARK  status: ('A' for Active; 'I' for Inactive)
REMARK    1  A    between atoms: C_6  and  C_4 
REMARK    2  A    between atoms: C_8  and  C_4 
REMARK    3  A    between atoms: N_12  and  C_7 
REMARK    4  A    between atoms: C_11  and  C_8 
REMARK    5  A    between atoms: C_8  and  N_13 
REMARK    6  A    between atoms: O_16  and  C_11 
ROOT
HETATM    1  C   UNK N   1      32.087  16.492   7.446  0.00  0.00     0.005 A 
HETATM    2  C   UNK N   1      31.974  15.130   7.801  0.00  0.00     0.030 A 
HETATM    3  C   UNK N   1      32.989  17.331   8.125  0.00  0.00     0.030 A 
HETATM    4  C   UNK N   1      35.204  16.469  10.717  0.00  0.00     0.096 A 
HETATM    5  C   UNK N   1      34.585  15.242  10.494  0.00  0.00    -0.026 A 
HETATM    6  C   UNK N   1      32.769  14.595   8.831  0.00  0.00     0.038 A 
HETATM    7  C   UNK N   1      33.759  16.771   9.140  0.00  0.00     0.045 A 
HETATM    8  C   UNK N   1      33.665  15.449   9.486  0.00  0.00     0.025 A 
HETATM    9  N   UNK N   1      34.684  17.403   9.884  0.00  0.00    -0.365 N 
HETATM   10  H   UNK N   1      34.934  18.355   9.835  0.00  0.00     0.165 HD
ENDROOT
BRANCH   5  11
HETATM   11  C   UNK N   1      34.935  13.942  11.169  0.00  0.00     0.076 C 
BRANCH  11  12
HETATM   12  C   UNK N   1      35.993  14.050  12.272  0.00  0.00     0.177 C 
BRANCH  12  13
HETATM   13  C   UNK N   1      35.622  13.134  13.410  0.00  0.00     0.163 C 
HETATM   14  O   UNK N   1      36.470  12.741  14.198  0.00  0.00    -0.648 OA
BRANCH  13  15
HETATM   15  O   UNK N   1      34.342  12.747  13.571  0.00  0.00    -0.775 OA
HETATM   16  H   UNK N   1      33.827  12.507  12.825  0.00  0.00     0.167 HD
ENDBRANCH  13  15
ENDBRANCH  12  13
BRANCH  12  17
HETATM   17  N   UNK N   1      37.303  13.686  11.748  0.00  0.00    -0.417 N 
HETATM   18  H   UNK N   1      37.530  13.867  10.770  0.00  0.00     0.150 HD
HETATM   19  H   UNK N   1      37.994  13.251  12.360  0.00  0.00     0.150 HD
ENDBRANCH  12  17
ENDBRANCH  11  12
ENDBRANCH   5  11
BRANCH   6  20
HETATM   20  N   UNK N   1      32.656  13.236   9.186  0.00  0.00    -0.398 N 
HETATM   21  H   UNK N   1      32.097  12.968   9.951  0.00  0.00     0.156 HD
HETATM   22  H   UNK N   1      33.137  12.552   8.667  0.00  0.00     0.156 HD
ENDBRANCH   6  20
TORSDOF 6
ENDMDL
