MODEL 1
REMARK VINA RESULT:      -5.6      0.000      0.000
REMARK  4 active torsions:
REMARK  status: ('A' for Active; 'I' for Inactive)
REMARK    1  A    between atoms: C_2  and  O_1 
REMARK    2  A    between atoms: C_5  and  C_9 
REMARK    3  A    between atoms: C_7  and  O_8 
REMARK    4  A    between atoms: C_9  and  O_10 
ROOT
HETATM    1  C   UNK N   1      34.309  15.007  10.969  0.00  0.00     0.170 A 
HETATM    2  C   UNK N   1      35.318  16.114  11.216  0.00  0.00     0.203 A 
HETATM    3  O   UNK N   1      35.424  17.171  10.269  0.00  0.00    -0.373 OA
HETATM    4  C   UNK N   1      34.579  17.154   9.123  0.00  0.00     0.221 A 
HETATM    5  C   UNK N   1      33.527  16.100   8.762  0.00  0.00     0.077 A 
HETATM    6  C   UNK N   1      33.430  15.000   9.765  0.00  0.00     0.151 A 
ENDROOT
BRANCH   4   7
HETATM    7  C   UNK N   1      34.748  18.300   8.171  0.00  0.00     0.170 C 
HETATM    8  O   UNK N   1      34.323  18.216   7.031  0.00  0.00    -0.648 OA
BRANCH   7   9
HETATM    9  O   UNK N   1      35.369  19.425   8.571  0.00  0.00    -0.774 OA
HETATM   10  H   UNK N   1      34.900  20.066   9.069  0.00  0.00     0.167 HD
ENDBRANCH   7   9
ENDBRANCH   4   7
BRANCH   6  11
HETATM   11  O   UNK N   1      32.512  13.971   9.563  0.00  0.00    -0.393 OA
HETATM   12  H   UNK N   1      31.592  14.077   9.854  0.00  0.00     0.210 HD
ENDBRANCH   6  11
BRANCH   1  13
HETATM   13  O   UNK N   1      34.204  13.970  11.896  0.00  0.00    -0.391 OA
HETATM   14  H   UNK N   1      34.694  14.016  12.732  0.00  0.00     0.210 HD
ENDBRANCH   1  13
TORSDOF 4
ENDMDL
MODEL 2
REMARK VINA RESULT:      -5.1      1.169      2.181
REMARK  4 active torsions:
REMARK  status: ('A' for Active; 'I' for Inactive)
REMARK    1  A    between atoms: C_2  and  O_1 
REMARK    2  A    between atoms: C_5  and  C_9 
REMARK    3  A    between atoms: C_7  and  O_8 
REMARK    4  A    between atoms: C_9  and  O_10 
ROOT
HETATM    1  C   UNK N   1      34.288  14.818  10.972  0.00  0.00     0.170 A 
HETATM    2  C   UNK N   1      33.362  14.990   9.782  0.00  0.00     0.203 A 
HETATM    3  O   UNK N   1      33.556  16.102   8.915  0.00  0.00    -0.373 OA
HETATM    4  C   UNK N   1      34.611  17.017   9.195  0.00  0.00     0.221 A 
HETATM    5  C   UNK N   1      35.607  16.954  10.358  0.00  0.00     0.077 A 
HETATM    6  C   UNK N   1      35.389  15.782  11.254  0.00  0.00     0.151 A 
ENDROOT
BRANCH   4   7
HETATM    7  C   UNK N   1      34.753  18.162   8.239  0.00  0.00     0.170 C 
HETATM    8  O   UNK N   1      34.334  18.062   7.098  0.00  0.00    -0.648 OA
BRANCH   7   9
HETATM    9  O   UNK N   1      35.342  19.305   8.636  0.00  0.00    -0.774 OA
HETATM   10  H   UNK N   1      34.919  20.128   8.482  0.00  0.00     0.167 HD
ENDBRANCH   7   9
ENDBRANCH   4   7
BRANCH   6  11
HETATM   11  O   UNK N   1      36.226  15.601  12.355  0.00  0.00    -0.393 OA
HETATM   12  H   UNK N   1      36.560  14.716  12.570  0.00  0.00     0.210 HD
ENDBRANCH   6  11
BRANCH   1  13
HETATM   13  O   UNK N   1      34.100  13.729  11.822  0.00  0.00    -0.391 OA
HETATM   14  H   UNK N   1      34.857  13.337  12.283  0.00  0.00     0.210 HD
ENDBRANCH   1  13
TORSDOF 4
ENDMDL
MODEL 3
REMARK VINA RESULT:      -4.9     11.167     12.891
REMARK  4 active torsions:
REMARK  status: ('A' for Active; 'I' for Inactive)
REMARK    1  A    between atoms: C_2  and  O_1 
REMARK    2  A    between atoms: C_5  and  C_9 
REMARK    3  A    between atoms: C_7  and  O_8 
REMARK    4  A    between atoms: C_9  and  O_10 
ROOT
HETATM    1  C   UNK N   1      24.037  12.253  11.120  0.00  0.00     0.170 A 
HETATM    2  C   UNK N   1      24.103  13.023   9.813  0.00  0.00     0.203 A 
HETATM    3  O   UNK N   1      22.892  13.486   9.227  0.00  0.00    -0.373 OA
HETATM    4  C   UNK N   1      21.660  13.212   9.885  0.00  0.00     0.221 A 
HETATM    5  C   UNK N   1      21.462  12.450  11.200  0.00  0.00     0.077 A 
HETATM    6  C   UNK N   1      22.740  11.972  11.800  0.00  0.00     0.151 A 
ENDROOT
BRANCH   4   7
HETATM    7  C   UNK N   1      20.428  13.731   9.208  0.00  0.00     0.170 C 
HETATM    8  O   UNK N   1      19.478  14.111   9.872  0.00  0.00    -0.648 OA
BRANCH   7   9
HETATM    9  O   UNK N   1      20.365  13.781   7.864  0.00  0.00    -0.774 OA
HETATM   10  H   UNK N   1      19.675  14.258   7.445  0.00  0.00     0.167 HD
ENDBRANCH   7   9
ENDBRANCH   4   7
BRANCH   6  11
HETATM   11  O   UNK N   1      22.708  11.263  13.000  0.00  0.00    -0.393 OA
HETATM   12  H   UNK N   1      23.352  10.556  13.163  0.00  0.00     0.210 HD
ENDBRANCH   6  11
BRANCH   1  13
HETATM   13  O   UNK N   1      25.223  11.798  11.696  0.00  0.00    -0.391 OA
HETATM   14  H   UNK N   1      26.068  11.942  11.243  0.00  0.00     0.210 HD
ENDBRANCH   1  13
TORSDOF 4
ENDMDL
MODEL 4
REMARK VINA RESULT:      -4.9     14.290     15.792
REMARK  4 active torsions:
REMARK  status: ('A' for Active; 'I' for Inactive)
REMARK    1  A    between atoms: C_2  and  O_1 
REMARK    2  A    between atoms: C_5  and  C_9 
REMARK    3  A    between atoms: C_7  and  O_8 
REMARK    4  A    between atoms: C_9  and  O_10 
ROOT
HETATM    1  C   UNK N   1      20.826  20.088   1.231  0.00  0.00     0.170 A 
HETATM    2  C   UNK N   1      21.133  20.844   2.511  0.00  0.00     0.203 A 
HETATM    3  O   UNK N   1      21.193  20.126   3.737  0.00  0.00    -0.373 OA
HETATM    4  C   UNK N   1      20.963  18.721   3.723  0.00  0.00     0.221 A 
HETATM    5  C   UNK N   1      20.646  17.846   2.504  0.00  0.00     0.077 A 
HETATM    6  C   UNK N   1      20.587  18.616   1.229  0.00  0.00     0.151 A 
ENDROOT
BRANCH   4   7
HETATM    7  C   UNK N   1      21.043  18.032   5.051  0.00  0.00     0.170 C 
HETATM    8  O   UNK N   1      20.831  16.834   5.134  0.00  0.00    -0.648 OA
BRANCH   7   9
HETATM    9  O   UNK N   1      21.348  18.733   6.159  0.00  0.00    -0.774 OA
HETATM   10  H   UNK N   1      20.687  18.906   6.801  0.00  0.00     0.167 HD
ENDBRANCH   7   9
ENDBRANCH   4   7
BRANCH   6  11
HETATM   11  O   UNK N   1      20.307  17.945   0.039  0.00  0.00    -0.393 OA
HETATM   12  H   UNK N   1      20.072  17.005   0.056  0.00  0.00     0.210 HD
ENDBRANCH   6  11
BRANCH   1  13
HETATM   13  O   UNK N   1      20.767  20.791   0.029  0.00  0.00    -0.391 OA
HETATM   14  H   UNK N   1      21.584  21.097  -0.395  0.00  0.00     0.210 HD
ENDBRANCH   1  13
TORSDOF 4
ENDMDL
MODEL 5
REMARK VINA RESULT:      -4.8      2.851      4.688
REMARK  4 active torsions:
REMARK  status: ('A' for Active; 'I' for Inactive)
REMARK    1  A    between atoms: C_2  and  O_1 
REMARK    2  A    between atoms: C_5  and  C_9 
REMARK    3  A    between atoms: C_7  and  O_8 
REMARK    4  A    between atoms: C_9  and  O_10 
ROOT
HETATM    1  C   UNK N   1      31.866  17.151   5.302  0.00  0.00     0.170 A 
HETATM    2  C   UNK N   1      33.317  17.513   5.041  0.00  0.00     0.203 A 
HETATM    3  O   UNK N   1      34.152  17.845   6.144  0.00  0.00    -0.373 OA
HETATM    4  C   UNK N   1      33.598  17.828   7.456  0.00  0.00     0.221 A 
HETATM    5  C   UNK N   1      32.157  17.482   7.848  0.00  0.00     0.077 A 
HETATM    6  C   UNK N   1      31.297  17.136   6.680  0.00  0.00     0.151 A 
ENDROOT
BRANCH   4   7
HETATM    7  C   UNK N   1      34.537  18.189   8.566  0.00  0.00     0.170 C 
HETATM    8  O   UNK N   1      35.283  19.147   8.450  0.00  0.00    -0.648 OA
BRANCH   7   9
HETATM    9  O   UNK N   1      34.561  17.459   9.696  0.00  0.00    -0.774 OA
HETATM   10  H   UNK N   1      34.398  17.870  10.523  0.00  0.00     0.167 HD
ENDBRANCH   7   9
ENDBRANCH   4   7
BRANCH   6  11
HETATM   11  O   UNK N   1      29.961  16.801   6.892  0.00  0.00    -0.393 OA
HETATM   12  H   UNK N   1      29.672  16.487   7.763  0.00  0.00     0.210 HD
ENDBRANCH   6  11
BRANCH   1  13
HETATM   13  O   UNK N   1      31.047  16.825   4.222  0.00  0.00    -0.391 OA
HETATM   14  H   UNK N   1      31.136  17.304   3.384  0.00  0.00     0.210 HD
ENDBRANCH   1  13
TORSDOF 4
ENDMDL
MODEL 6
REMARK VINA RESULT:      -4.7      1.533      4.462
REMARK  4 active torsions:
REMARK  status: ('A' for Active; 'I' for Inactive)
REMARK    1  A    between atoms: C_2  and  O_1 
REMARK    2  A    between atoms: C_5  and  C_9 
REMARK    3  A    between atoms: C_7  and  O_8 
REMARK    4  A    between atoms: C_9  and  O_10 
ROOT
HETATM    1  C   UNK N   1      34.591  18.053   8.387  0.00  0.00     0.170 A 
HETATM    2  C   UNK N   1      33.662  17.795   7.215  0.00  0.00     0.203 A 
HETATM    3  O   UNK N   1      32.969  16.555   7.147  0.00  0.00    -0.373 OA
HETATM    4  C   UNK N   1      33.171  15.596   8.181  0.00  0.00     0.221 A 
HETATM    5  C   UNK N   1      34.078  15.736   9.409  0.00  0.00     0.077 A 
HETATM    6  C   UNK N   1      34.795  17.042   9.463  0.00  0.00     0.151 A 
ENDROOT
BRANCH   4   7
HETATM    7  C   UNK N   1      32.408  14.314   8.041  0.00  0.00     0.170 C 
HETATM    8  O   UNK N   1      31.874  14.032   6.981  0.00  0.00    -0.648 OA
BRANCH   7   9
HETATM    9  O   UNK N   1      32.309  13.469   9.084  0.00  0.00    -0.774 OA
HETATM   10  H   UNK N   1      31.466  13.249   9.429  0.00  0.00     0.167 HD
ENDBRANCH   7   9
ENDBRANCH   4   7
BRANCH   6  11
HETATM   11  O   UNK N   1      35.655  17.304  10.529  0.00  0.00    -0.393 OA
HETATM   12  H   UNK N   1      36.584  17.526  10.359  0.00  0.00     0.210 HD
ENDBRANCH   6  11
BRANCH   1  13
HETATM   13  O   UNK N   1      35.271  19.269   8.455  0.00  0.00    -0.391 OA
HETATM   14  H   UNK N   1      35.872  19.448   9.195  0.00  0.00     0.210 HD
ENDBRANCH   1  13
TORSDOF 4
ENDMDL
MODEL 7
REMARK VINA RESULT:      -4.6     10.451     12.292
REMARK  4 active torsions:
REMARK  status: ('A' for Active; 'I' for Inactive)
REMARK    1  A    between atoms: C_2  and  O_1 
REMARK    2  A    between atoms: C_5  and  C_9 
REMARK    3  A    between atoms: C_7  and  O_8 
REMARK    4  A    between atoms: C_9  and  O_10 
ROOT
HETATM    1  C   UNK N   1      40.637  21.449   2.319  0.00  0.00     0.170 A 
HETATM    2  C   UNK N   1      40.964  22.837   1.799  0.00  0.00     0.203 A 
HETATM    3  O   UNK N   1      42.235  23.401   2.097  0.00  0.00    -0.373 OA
HETATM    4  C   UNK N   1      43.159  22.645   2.873  0.00  0.00     0.221 A 
HETATM    5  C   UNK N   1      42.949  21.241   3.453  0.00  0.00     0.077 A 
HETATM    6  C   UNK N   1      41.612  20.666   3.131  0.00  0.00     0.151 A 
ENDROOT
BRANCH   4   7
HETATM    7  C   UNK N   1      44.476  23.304   3.147  0.00  0.00     0.170 C 
HETATM    8  O   UNK N   1      44.626  24.492   2.914  0.00  0.00    -0.648 OA
BRANCH   7   9
HETATM    9  O   UNK N   1      45.499  22.589   3.651  0.00  0.00    -0.774 OA
HETATM   10  H   UNK N   1      46.203  22.322   3.093  0.00  0.00     0.167 HD
ENDBRANCH   7   9
ENDBRANCH   4   7
BRANCH   6  11
HETATM   11  O   UNK N   1      41.287  19.393   3.596  0.00  0.00    -0.393 OA
HETATM   12  H   UNK N   1      40.424  19.004   3.382  0.00  0.00     0.210 HD
ENDBRANCH   6  11
BRANCH   1  13
HETATM   13  O   UNK N   1      39.391  20.894   2.027  0.00  0.00    -0.391 OA
HETATM   14  H   UNK N   1      38.607  21.175   2.524  0.00  0.00     0.210 HD
ENDBRANCH   1  13
TORSDOF 4
ENDMDL
MODEL 8
REMARK VINA RESULT:      -4.4     10.269     12.343
REMARK  4 active torsions:
REMARK  status: ('A' for Active; 'I' for Inactive)
REMARK    1  A    between atoms: C_2  and  O_1 
REMARK    2  A    between atoms: C_5  and  C_9 
REMARK    3  A    between atoms: C_7  and  O_8 
REMARK    4  A    between atoms: C_9  and  O_10 
ROOT
HETATM    1  C   UNK N   1      45.469  19.958   3.406  0.00  0.00     0.170 A 
HETATM    2  C   UNK N   1      44.561  18.834   2.942  0.00  0.00     0.203 A 
HETATM    3  O   UNK N   1      43.155  19.052   2.918  0.00  0.00    -0.373 OA
HETATM    4  C   UNK N   1      42.648  20.317   3.331  0.00  0.00     0.221 A 
HETATM    5  C   UNK N   1      43.456  21.524   3.819  0.00  0.00     0.077 A 
HETATM    6  C   UNK N   1      44.926  21.278   3.837  0.00  0.00     0.151 A 
ENDROOT
BRANCH   4   7
HETATM    7  C   UNK N   1      41.158  20.471   3.280  0.00  0.00     0.170 C 
HETATM    8  O   UNK N   1      40.652  21.266   2.506  0.00  0.00    -0.648 OA
BRANCH   7   9
HETATM    9  O   UNK N   1      40.373  19.734   4.087  0.00  0.00    -0.774 OA
HETATM   10  H   UNK N   1      40.750  19.260   4.802  0.00  0.00     0.167 HD
ENDBRANCH   7   9
ENDBRANCH   4   7
BRANCH   6  11
HETATM   11  O   UNK N   1      45.783  22.293   4.259  0.00  0.00    -0.393 OA
HETATM   12  H   UNK N   1      45.956  23.054   3.682  0.00  0.00     0.210 HD
ENDBRANCH   6  11
BRANCH   1  13
HETATM   13  O   UNK N   1      46.847  19.746   3.430  0.00  0.00    -0.391 OA
HETATM   14  H   UNK N   1      47.264  19.351   4.211  0.00  0.00     0.210 HD
ENDBRANCH   1  13
TORSDOF 4
ENDMDL
MODEL 9
REMARK VINA RESULT:      -4.4     10.824     12.720
REMARK  4 active torsions:
REMARK  status: ('A' for Active; 'I' for Inactive)
REMARK    1  A    between atoms: C_2  and  O_1 
REMARK    2  A    between atoms: C_5  and  C_9 
REMARK    3  A    between atoms: C_7  and  O_8 
REMARK    4  A    between atoms: C_9  and  O_10 
ROOT
HETATM    1  C   UNK N   1      44.559  22.088   3.633  0.00  0.00     0.170 A 
HETATM    2  C   UNK N   1      43.852  20.746   3.687  0.00  0.00     0.203 A 
HETATM    3  O   UNK N   1      42.551  20.631   3.124  0.00  0.00    -0.373 OA
HETATM    4  C   UNK N   1      41.955  21.780   2.529  0.00  0.00     0.221 A 
HETATM    5  C   UNK N   1      42.562  23.183   2.413  0.00  0.00     0.077 A 
HETATM    6  C   UNK N   1      43.925  23.283   3.007  0.00  0.00     0.151 A 
ENDROOT
BRANCH   4   7
HETATM    7  C   UNK N   1      40.583  21.582   1.958  0.00  0.00     0.170 C 
HETATM    8  O   UNK N   1      40.325  21.981   0.835  0.00  0.00    -0.648 OA
BRANCH   7   9
HETATM    9  O   UNK N   1      39.631  20.965   2.682  0.00  0.00    -0.774 OA
HETATM   10  H   UNK N   1      38.951  20.487   2.250  0.00  0.00     0.167 HD
ENDBRANCH   7   9
ENDBRANCH   4   7
BRANCH   6  11
HETATM   11  O   UNK N   1      44.597  24.505   2.971  0.00  0.00    -0.393 OA
HETATM   12  H   UNK N   1      45.561  24.532   3.076  0.00  0.00     0.210 HD
ENDBRANCH   6  11
BRANCH   1  13
HETATM   13  O   UNK N   1      45.835  22.201   4.184  0.00  0.00    -0.391 OA
HETATM   14  H   UNK N   1      46.293  23.056   4.174  0.00  0.00     0.210 HD
ENDBRANCH   1  13
TORSDOF 4
ENDMDL
