MODEL 1
REMARK VINA RESULT:      -4.4      0.000      0.000
REMARK  8 active torsions:
REMARK  status: ('A' for Active; 'I' for Inactive)
REMARK    1  A    between atoms: C_2  and  N_1 
REMARK    2  A    between atoms: C_2  and  C_3 
REMARK    3  A    between atoms: C_2  and  C_8 
REMARK    4  A    between atoms: C_3  and  S_4 
REMARK    5  A    between atoms: S_4  and  C_5 
REMARK    6  A    between atoms: C_5  and  C_6 
REMARK    7  A    between atoms: C_6  and  O_7 
REMARK    8  A    between atoms: C_8  and  O_9 
ROOT
HETATM    1  C   UNK N   1      33.149  17.532   8.635  0.00  0.00     0.182 C 
ENDROOT
BRANCH   1   2
HETATM    2  N   UNK N   1      33.529  16.492   9.578  0.00  0.00    -0.417 N 
HETATM    3  H   UNK N   1      33.810  15.572   9.238  0.00  0.00     0.150 HD
HETATM    4  H   UNK N   1      33.515  16.682  10.580  0.00  0.00     0.150 HD
ENDBRANCH   1   2
BRANCH   1   5
HETATM    5  C   UNK N   1      31.693  17.954   8.492  0.00  0.00     0.109 C 
BRANCH   5   6
HETATM    6  S   UNK N   1      30.687  16.869   7.439  0.00  0.00    -0.164 SA
BRANCH   6   7
HETATM    7  C   UNK N   1      29.273  17.955   7.764  0.00  0.00     0.100 C 
BRANCH   7   8
HETATM    8  C   UNK N   1      28.902  17.938   9.227  0.00  0.00     0.174 C 
BRANCH   8   9
HETATM    9  O   UNK N   1      27.538  18.195   9.349  0.00  0.00    -0.400 OA
HETATM   10  H   UNK N   1      27.222  18.854   9.986  0.00  0.00     0.209 HD
ENDBRANCH   8   9
ENDBRANCH   7   8
ENDBRANCH   6   7
ENDBRANCH   5   6
ENDBRANCH   1   5
BRANCH   1  11
HETATM   11  C   UNK N   1      34.216  18.177   7.806  0.00  0.00     0.163 C 
HETATM   12  O   UNK N   1      34.356  17.857   6.637  0.00  0.00    -0.648 OA
BRANCH  11  13
HETATM   13  O   UNK N   1      35.024  19.109   8.345  0.00  0.00    -0.775 OA
HETATM   14  H   UNK N   1      34.693  19.696   8.996  0.00  0.00     0.167 HD
ENDBRANCH  11  13
ENDBRANCH   1  11
TORSDOF 8
ENDMDL
MODEL 2
REMARK VINA RESULT:      -4.3      3.764      4.570
REMARK  8 active torsions:
REMARK  status: ('A' for Active; 'I' for Inactive)
REMARK    1  A    between atoms: C_2  and  N_1 
REMARK    2  A    between atoms: C_2  and  C_3 
REMARK    3  A    between atoms: C_2  and  C_8 
REMARK    4  A    between atoms: C_3  and  S_4 
REMARK    5  A    between atoms: S_4  and  C_5 
REMARK    6  A    between atoms: C_5  and  C_6 
REMARK    7  A    between atoms: C_6  and  O_7 
REMARK    8  A    between atoms: C_8  and  O_9 
ROOT
HETATM    1  C   UNK N   1      34.466  17.126   9.093  0.00  0.00     0.182 C 
ENDROOT
BRANCH   1   2
HETATM    2  N   UNK N   1      34.953  17.199  10.462  0.00  0.00    -0.417 N 
HETATM    3  H   UNK N   1      35.866  17.610  10.658  0.00  0.00     0.150 HD
HETATM    4  H   UNK N   1      34.381  16.840  11.227  0.00  0.00     0.150 HD
ENDBRANCH   1   2
BRANCH   1   5
HETATM    5  C   UNK N   1      33.697  15.906   8.608  0.00  0.00     0.109 C 
BRANCH   5   6
HETATM    6  S   UNK N   1      34.733  14.492   8.133  0.00  0.00    -0.164 SA
BRANCH   6   7
HETATM    7  C   UNK N   1      33.968  13.548   9.477  0.00  0.00     0.100 C 
BRANCH   7   8
HETATM    8  C   UNK N   1      34.784  13.651  10.743  0.00  0.00     0.174 C 
BRANCH   8   9
HETATM    9  O   UNK N   1      34.067  14.392  11.681  0.00  0.00    -0.400 OA
HETATM   10  H   UNK N   1      33.623  15.213  11.415  0.00  0.00     0.209 HD
ENDBRANCH   8   9
ENDBRANCH   7   8
ENDBRANCH   6   7
ENDBRANCH   5   6
ENDBRANCH   1   5
BRANCH   1  11
HETATM   11  C   UNK N   1      34.740  18.273   8.171  0.00  0.00     0.163 C 
HETATM   12  O   UNK N   1      35.302  19.272   8.590  0.00  0.00    -0.648 OA
BRANCH  11  13
HETATM   13  O   UNK N   1      34.369  18.209   6.878  0.00  0.00    -0.775 OA
HETATM   14  H   UNK N   1      34.930  17.799   6.250  0.00  0.00     0.167 HD
ENDBRANCH  11  13
ENDBRANCH   1  11
TORSDOF 8
ENDMDL
MODEL 3
REMARK VINA RESULT:      -4.3      3.833      5.157
REMARK  8 active torsions:
REMARK  status: ('A' for Active; 'I' for Inactive)
REMARK    1  A    between atoms: C_2  and  N_1 
REMARK    2  A    between atoms: C_2  and  C_3 
REMARK    3  A    between atoms: C_2  and  C_8 
REMARK    4  A    between atoms: C_3  and  S_4 
REMARK    5  A    between atoms: S_4  and  C_5 
REMARK    6  A    between atoms: C_5  and  C_6 
REMARK    7  A    between atoms: C_6  and  O_7 
REMARK    8  A    between atoms: C_8  and  O_9 
ROOT
HETATM    1  C   UNK N   1      33.836  17.179   8.817  0.00  0.00     0.182 C 
ENDROOT
BRANCH   1   2
HETATM    2  N   UNK N   1      32.404  17.309   9.040  0.00  0.00    -0.417 N 
HETATM    3  H   UNK N   1      31.898  18.107   8.654  0.00  0.00     0.150 HD
HETATM    4  H   UNK N   1      31.906  16.602   9.581  0.00  0.00     0.150 HD
ENDBRANCH   1   2
BRANCH   1   5
HETATM    5  C   UNK N   1      34.617  16.033   9.444  0.00  0.00     0.109 C 
BRANCH   5   6
HETATM    6  S   UNK N   1      35.525  16.468  10.956  0.00  0.00    -0.164 SA
BRANCH   6   7
HETATM    7  C   UNK N   1      35.932  14.713  11.152  0.00  0.00     0.100 C 
BRANCH   7   8
HETATM    8  C   UNK N   1      35.553  14.220  12.527  0.00  0.00     0.174 C 
BRANCH   8   9
HETATM    9  O   UNK N   1      34.376  13.479  12.430  0.00  0.00    -0.400 OA
HETATM   10  H   UNK N   1      34.351  12.563  12.748  0.00  0.00     0.209 HD
ENDBRANCH   8   9
ENDBRANCH   7   8
ENDBRANCH   6   7
ENDBRANCH   5   6
ENDBRANCH   1   5
BRANCH   1  11
HETATM   11  C   UNK N   1      34.526  18.197   7.962  0.00  0.00     0.163 C 
HETATM   12  O   UNK N   1      34.436  18.133   6.747  0.00  0.00    -0.648 OA
BRANCH  11  13
HETATM   13  O   UNK N   1      35.245  19.184   8.528  0.00  0.00    -0.775 OA
HETATM   14  H   UNK N   1      35.009  19.510   9.375  0.00  0.00     0.167 HD
ENDBRANCH  11  13
ENDBRANCH   1  11
TORSDOF 8
ENDMDL
MODEL 4
REMARK VINA RESULT:      -4.2     10.770     11.352
REMARK  8 active torsions:
REMARK  status: ('A' for Active; 'I' for Inactive)
REMARK    1  A    between atoms: C_2  and  N_1 
REMARK    2  A    between atoms: C_2  and  C_3 
REMARK    3  A    between atoms: C_2  and  C_8 
REMARK    4  A    between atoms: C_3  and  S_4 
REMARK    5  A    between atoms: S_4  and  C_5 
REMARK    6  A    between atoms: C_5  and  C_6 
REMARK    7  A    between atoms: C_6  and  O_7 
REMARK    8  A    between atoms: C_8  and  O_9 
ROOT
HETATM    1  C   UNK N   1      22.601  11.910  11.232  0.00  0.00     0.182 C 
ENDROOT
BRANCH   1   2
HETATM    2  N   UNK N   1      21.252  11.883  11.778  0.00  0.00    -0.417 N 
HETATM    3  H   UNK N   1      21.083  12.189  12.737  0.00  0.00     0.150 HD
HETATM    4  H   UNK N   1      20.475  11.558  11.203  0.00  0.00     0.150 HD
ENDBRANCH   1   2
BRANCH   1   5
HETATM    5  C   UNK N   1      22.833  11.770   9.735  0.00  0.00     0.109 C 
BRANCH   5   6
HETATM    6  S   UNK N   1      23.067  13.339   8.850  0.00  0.00    -0.164 SA
BRANCH   6   7
HETATM    7  C   UNK N   1      21.301  13.311   8.445  0.00  0.00     0.100 C 
BRANCH   7   8
HETATM    8  C   UNK N   1      20.556  14.389   9.195  0.00  0.00     0.174 C 
BRANCH   8   9
HETATM    9  O   UNK N   1      19.553  13.794   9.958  0.00  0.00    -0.400 OA
HETATM   10  H   UNK N   1      18.669  13.663   9.582  0.00  0.00     0.209 HD
ENDBRANCH   8   9
ENDBRANCH   7   8
ENDBRANCH   6   7
ENDBRANCH   5   6
ENDBRANCH   1   5
BRANCH   1  11
HETATM   11  C   UNK N   1      23.753  12.076  12.173  0.00  0.00     0.163 C 
HETATM   12  O   UNK N   1      23.567  12.037  13.378  0.00  0.00    -0.648 OA
BRANCH  11  13
HETATM   13  O   UNK N   1      24.998  12.268  11.696  0.00  0.00    -0.775 OA
HETATM   14  H   UNK N   1      25.597  12.820  12.158  0.00  0.00     0.167 HD
ENDBRANCH  11  13
ENDBRANCH   1  11
TORSDOF 8
ENDMDL
MODEL 5
REMARK VINA RESULT:      -4.2      1.955      2.306
REMARK  8 active torsions:
REMARK  status: ('A' for Active; 'I' for Inactive)
REMARK    1  A    between atoms: C_2  and  N_1 
REMARK    2  A    between atoms: C_2  and  C_3 
REMARK    3  A    between atoms: C_2  and  C_8 
REMARK    4  A    between atoms: C_3  and  S_4 
REMARK    5  A    between atoms: S_4  and  C_5 
REMARK    6  A    between atoms: C_5  and  C_6 
REMARK    7  A    between atoms: C_6  and  O_7 
REMARK    8  A    between atoms: C_8  and  O_9 
ROOT
HETATM    1  C   UNK N   1      34.552  17.047   9.050  0.00  0.00     0.182 C 
ENDROOT
BRANCH   1   2
HETATM    2  N   UNK N   1      34.914  17.158  10.455  0.00  0.00    -0.417 N 
HETATM    3  H   UNK N   1      34.480  16.544  11.144  0.00  0.00     0.150 HD
HETATM    4  H   UNK N   1      35.603  17.850  10.752  0.00  0.00     0.150 HD
ENDBRANCH   1   2
BRANCH   1   5
HETATM    5  C   UNK N   1      33.990  15.746   8.496  0.00  0.00     0.109 C 
BRANCH   5   6
HETATM    6  S   UNK N   1      32.370  15.271   9.165  0.00  0.00    -0.164 SA
BRANCH   6   7
HETATM    7  C   UNK N   1      31.610  15.956   7.670  0.00  0.00     0.100 C 
BRANCH   7   8
HETATM    8  C   UNK N   1      31.033  17.326   7.934  0.00  0.00     0.174 C 
BRANCH   8   9
HETATM    9  O   UNK N   1      30.966  17.527   9.312  0.00  0.00    -0.400 OA
HETATM   10  H   UNK N   1      30.233  17.149   9.822  0.00  0.00     0.209 HD
ENDBRANCH   8   9
ENDBRANCH   7   8
ENDBRANCH   6   7
ENDBRANCH   5   6
ENDBRANCH   1   5
BRANCH   1  11
HETATM   11  C   UNK N   1      34.748  18.236   8.162  0.00  0.00     0.163 C 
HETATM   12  O   UNK N   1      34.362  18.202   7.005  0.00  0.00    -0.648 OA
BRANCH  11  13
HETATM   13  O   UNK N   1      35.347  19.345   8.633  0.00  0.00    -0.775 OA
HETATM   14  H   UNK N   1      35.102  19.691   9.469  0.00  0.00     0.167 HD
ENDBRANCH  11  13
ENDBRANCH   1  11
TORSDOF 8
ENDMDL
MODEL 6
REMARK VINA RESULT:      -4.2      3.554      4.405
REMARK  8 active torsions:
REMARK  status: ('A' for Active; 'I' for Inactive)
REMARK    1  A    between atoms: C_2  and  N_1 
REMARK    2  A    between atoms: C_2  and  C_3 
REMARK    3  A    between atoms: C_2  and  C_8 
REMARK    4  A    between atoms: C_3  and  S_4 
REMARK    5  A    between atoms: S_4  and  C_5 
REMARK    6  A    between atoms: C_5  and  C_6 
REMARK    7  A    between atoms: C_6  and  O_7 
REMARK    8  A    between atoms: C_8  and  O_9 
ROOT
HETATM    1  C   UNK N   1      34.644  15.386  10.016  0.00  0.00     0.182 C 
ENDROOT
BRANCH   1   2
HETATM    2  N   UNK N   1      33.542  15.153  10.938  0.00  0.00    -0.417 N 
HETATM    3  H   UNK N   1      33.075  15.943  11.385  0.00  0.00     0.150 HD
HETATM    4  H   UNK N   1      33.235  14.201  11.137  0.00  0.00     0.150 HD
ENDBRANCH   1   2
BRANCH   1   5
HETATM    5  C   UNK N   1      34.750  14.594   8.721  0.00  0.00     0.109 C 
BRANCH   5   6
HETATM    6  S   UNK N   1      34.944  15.604   7.225  0.00  0.00    -0.164 SA
BRANCH   6   7
HETATM    7  C   UNK N   1      33.305  16.305   7.551  0.00  0.00     0.100 C 
BRANCH   7   8
HETATM    8  C   UNK N   1      33.320  17.808   7.407  0.00  0.00     0.174 C 
BRANCH   8   9
HETATM    9  O   UNK N   1      34.644  18.243   7.378  0.00  0.00    -0.400 OA
HETATM   10  H   UNK N   1      35.047  18.626   8.172  0.00  0.00     0.209 HD
ENDBRANCH   8   9
ENDBRANCH   7   8
ENDBRANCH   6   7
ENDBRANCH   5   6
ENDBRANCH   1   5
BRANCH   1  11
HETATM   11  C   UNK N   1      35.671  16.416  10.369  0.00  0.00     0.163 C 
HETATM   12  O   UNK N   1      35.421  17.601  10.222  0.00  0.00    -0.648 OA
BRANCH  11  13
HETATM   13  O   UNK N   1      36.871  16.041  10.851  0.00  0.00    -0.775 OA
HETATM   14  H   UNK N   1      36.942  15.712  11.726  0.00  0.00     0.167 HD
ENDBRANCH  11  13
ENDBRANCH   1  11
TORSDOF 8
ENDMDL
MODEL 7
REMARK VINA RESULT:      -4.1     11.774     12.783
REMARK  8 active torsions:
REMARK  status: ('A' for Active; 'I' for Inactive)
REMARK    1  A    between atoms: C_2  and  N_1 
REMARK    2  A    between atoms: C_2  and  C_3 
REMARK    3  A    between atoms: C_2  and  C_8 
REMARK    4  A    between atoms: C_3  and  S_4 
REMARK    5  A    between atoms: S_4  and  C_5 
REMARK    6  A    between atoms: C_5  and  C_6 
REMARK    7  A    between atoms: C_6  and  O_7 
REMARK    8  A    between atoms: C_8  and  O_9 
ROOT
HETATM    1  C   UNK N   1      20.105  19.120   2.451  0.00  0.00     0.182 C 
ENDROOT
BRANCH   1   2
HETATM    2  N   UNK N   1      18.676  18.916   2.261  0.00  0.00    -0.417 N 
HETATM    3  H   UNK N   1      18.344  18.255   1.558  0.00  0.00     0.150 HD
HETATM    4  H   UNK N   1      18.007  19.433   2.830  0.00  0.00     0.150 HD
ENDBRANCH   1   2
BRANCH   1   5
HETATM    5  C   UNK N   1      20.844  18.419   3.582  0.00  0.00     0.109 C 
BRANCH   5   6
HETATM    6  S   UNK N   1      20.176  16.792   4.034  0.00  0.00    -0.164 SA
BRANCH   6   7
HETATM    7  C   UNK N   1      21.032  16.941   5.624  0.00  0.00     0.100 C 
BRANCH   7   8
HETATM    8  C   UNK N   1      21.452  18.368   5.881  0.00  0.00     0.174 C 
BRANCH   8   9
HETATM    9  O   UNK N   1      20.957  18.765   7.122  0.00  0.00    -0.400 OA
HETATM   10  H   UNK N   1      21.340  19.533   7.574  0.00  0.00     0.209 HD
ENDBRANCH   8   9
ENDBRANCH   7   8
ENDBRANCH   6   7
ENDBRANCH   5   6
ENDBRANCH   1   5
BRANCH   1  11
HETATM   11  C   UNK N   1      20.831  20.034   1.515  0.00  0.00     0.163 C 
HETATM   12  O   UNK N   1      21.599  20.873   1.956  0.00  0.00    -0.648 OA
BRANCH  11  13
HETATM   13  O   UNK N   1      20.641  19.937   0.186  0.00  0.00    -0.775 OA
HETATM   14  H   UNK N   1      20.876  20.650  -0.375  0.00  0.00     0.167 HD
ENDBRANCH  11  13
ENDBRANCH   1  11
TORSDOF 8
ENDMDL
MODEL 8
REMARK VINA RESULT:      -4.1      3.808      5.724
REMARK  8 active torsions:
REMARK  status: ('A' for Active; 'I' for Inactive)
REMARK    1  A    between atoms: C_2  and  N_1 
REMARK    2  A    between atoms: C_2  and  C_3 
REMARK    3  A    between atoms: C_2  and  C_8 
REMARK    4  A    between atoms: C_3  and  S_4 
REMARK    5  A    between atoms: S_4  and  C_5 
REMARK    6  A    between atoms: C_5  and  C_6 
REMARK    7  A    between atoms: C_6  and  O_7 
REMARK    8  A    between atoms: C_8  and  O_9 
ROOT
HETATM    1  C   UNK N   1      33.797  17.171   8.791  0.00  0.00     0.182 C 
ENDROOT
BRANCH   1   2
HETATM    2  N   UNK N   1      32.373  17.298   9.062  0.00  0.00    -0.417 N 
HETATM    3  H   UNK N   1      31.699  17.214   8.301  0.00  0.00     0.150 HD
HETATM    4  H   UNK N   1      32.049  17.470  10.014  0.00  0.00     0.150 HD
ENDBRANCH   1   2
BRANCH   1   5
HETATM    5  C   UNK N   1      34.600  16.021   9.384  0.00  0.00     0.109 C 
BRANCH   5   6
HETATM    6  S   UNK N   1      35.500  16.428  10.908  0.00  0.00    -0.164 SA
BRANCH   6   7
HETATM    7  C   UNK N   1      35.917  14.672  11.067  0.00  0.00     0.100 C 
BRANCH   7   8
HETATM    8  C   UNK N   1      36.963  14.270  10.056  0.00  0.00     0.174 C 
BRANCH   8   9
HETATM    9  O   UNK N   1      38.081  15.087  10.217  0.00  0.00    -0.400 OA
HETATM   10  H   UNK N   1      38.072  15.996   9.877  0.00  0.00     0.209 HD
ENDBRANCH   8   9
ENDBRANCH   7   8
ENDBRANCH   6   7
ENDBRANCH   5   6
ENDBRANCH   1   5
BRANCH   1  11
HETATM   11  C   UNK N   1      34.457  18.194   7.921  0.00  0.00     0.163 C 
HETATM   12  O   UNK N   1      35.057  19.129   8.426  0.00  0.00    -0.648 OA
BRANCH  11  13
HETATM   13  O   UNK N   1      34.392  18.089   6.580  0.00  0.00    -0.775 OA
HETATM   14  H   UNK N   1      34.990  17.530   6.125  0.00  0.00     0.167 HD
ENDBRANCH  11  13
ENDBRANCH   1  11
TORSDOF 8
ENDMDL
MODEL 9
REMARK VINA RESULT:      -4.0     10.564     12.517
REMARK  8 active torsions:
REMARK  status: ('A' for Active; 'I' for Inactive)
REMARK    1  A    between atoms: C_2  and  N_1 
REMARK    2  A    between atoms: C_2  and  C_3 
REMARK    3  A    between atoms: C_2  and  C_8 
REMARK    4  A    between atoms: C_3  and  S_4 
REMARK    5  A    between atoms: S_4  and  C_5 
REMARK    6  A    between atoms: C_5  and  C_6 
REMARK    7  A    between atoms: C_6  and  O_7 
REMARK    8  A    between atoms: C_8  and  O_9 
ROOT
HETATM    1  C   UNK N   1      20.332  19.313   2.499  0.00  0.00     0.182 C 
ENDROOT
BRANCH   1   2
HETATM    2  N   UNK N   1      19.086  18.593   2.284  0.00  0.00    -0.417 N 
HETATM    3  H   UNK N   1      18.464  18.865   1.522  0.00  0.00     0.150 HD
HETATM    4  H   UNK N   1      18.833  17.816   2.895  0.00  0.00     0.150 HD
ENDBRANCH   1   2
BRANCH   1   5
HETATM    5  C   UNK N   1      21.092  19.172   3.810  0.00  0.00     0.109 C 
BRANCH   5   6
HETATM    6  S   UNK N   1      22.543  18.084   3.737  0.00  0.00    -0.164 SA
BRANCH   6   7
HETATM    7  C   UNK N   1      23.581  19.536   4.050  0.00  0.00     0.100 C 
BRANCH   7   8
HETATM    8  C   UNK N   1      24.601  19.720   2.953  0.00  0.00     0.174 C 
BRANCH   8   9
HETATM    9  O   UNK N   1      24.342  20.922   2.296  0.00  0.00    -0.400 OA
HETATM   10  H   UNK N   1      25.033  21.600   2.233  0.00  0.00     0.209 HD
ENDBRANCH   8   9
ENDBRANCH   7   8
ENDBRANCH   6   7
ENDBRANCH   5   6
ENDBRANCH   1   5
BRANCH   1  11
HETATM   11  C   UNK N   1      20.850  20.195   1.406  0.00  0.00     0.163 C 
HETATM   12  O   UNK N   1      21.489  21.197   1.683  0.00  0.00    -0.648 OA
BRANCH  11  13
HETATM   13  O   UNK N   1      20.614  19.889   0.116  0.00  0.00    -0.775 OA
HETATM   14  H   UNK N   1      21.319  19.885  -0.501  0.00  0.00     0.167 HD
ENDBRANCH  11  13
ENDBRANCH   1  11
TORSDOF 8
ENDMDL
