MODEL 1
REMARK VINA RESULT:      -4.7      0.000      0.000
REMARK  1 active torsions:
REMARK  status: ('A' for Active; 'I' for Inactive)
REMARK    1  A    between atoms: C_7  and  N_8 
ROOT
HETATM    1  C   UNK N   1      21.390  13.397   7.861  0.00  0.00     0.048 C 
HETATM    2  C   UNK N   1      21.884  12.980   9.198  0.00  0.00    -0.060 A 
HETATM    3  C   UNK N   1      20.972  12.633  10.199  0.00  0.00     0.007 A 
HETATM    4  C   UNK N   1      21.434  12.241  11.458  0.00  0.00     0.009 A 
HETATM    5  C   UNK N   1      22.806  12.195  11.721  0.00  0.00    -0.036 A 
HETATM    6  C   UNK N   1      23.266  11.772  13.074  0.00  0.00     0.050 C 
HETATM    7  C   UNK N   1      23.724  12.545  10.713  0.00  0.00     0.032 A 
HETATM    8  C   UNK N   1      23.257  12.936   9.454  0.00  0.00     0.036 A 
ENDROOT
BRANCH   7   9
HETATM    9  N   UNK N   1      25.114  12.506  10.954  0.00  0.00    -0.399 N 
HETATM   10  H   UNK N   1      25.643  11.731  10.657  0.00  0.00     0.156 HD
HETATM   11  H   UNK N   1      25.554  13.253  11.419  0.00  0.00     0.156 HD
ENDBRANCH   7   9
TORSDOF 1
ENDMDL
MODEL 2
REMARK VINA RESULT:      -4.6      1.766      2.414
REMARK  1 active torsions:
REMARK  status: ('A' for Active; 'I' for Inactive)
REMARK    1  A    between atoms: C_7  and  N_8 
ROOT
HETATM    1  C   UNK N   1      23.069  12.516   7.441  0.00  0.00     0.048 C 
HETATM    2  C   UNK N   1      23.110  12.350   8.916  0.00  0.00    -0.060 A 
HETATM    3  C   UNK N   1      24.340  12.299   9.577  0.00  0.00     0.007 A 
HETATM    4  C   UNK N   1      24.380  12.143  10.964  0.00  0.00     0.009 A 
HETATM    5  C   UNK N   1      23.194  12.039  11.696  0.00  0.00    -0.036 A 
HETATM    6  C   UNK N   1      23.272  11.874  13.175  0.00  0.00     0.050 C 
HETATM    7  C   UNK N   1      21.955  12.090  11.030  0.00  0.00     0.032 A 
HETATM    8  C   UNK N   1      21.920  12.246   9.641  0.00  0.00     0.036 A 
ENDROOT
BRANCH   7   9
HETATM    9  N   UNK N   1      20.743  11.987  11.746  0.00  0.00    -0.399 N 
HETATM   10  H   UNK N   1      20.712  11.480  12.589  0.00  0.00     0.156 HD
HETATM   11  H   UNK N   1      19.930  12.421  11.402  0.00  0.00     0.156 HD
ENDBRANCH   7   9
TORSDOF 1
ENDMDL
MODEL 3
REMARK VINA RESULT:      -4.5     12.481     13.914
REMARK  1 active torsions:
REMARK  status: ('A' for Active; 'I' for Inactive)
REMARK    1  A    between atoms: C_7  and  N_8 
ROOT
HETATM    1  C   UNK N   1      33.638  10.796  14.605  0.00  0.00     0.048 C 
HETATM    2  C   UNK N   1      34.576  11.907  14.905  0.00  0.00    -0.060 A 
HETATM    3  C   UNK N   1      34.827  12.267  16.232  0.00  0.00     0.007 A 
HETATM    4  C   UNK N   1      35.710  13.312  16.516  0.00  0.00     0.009 A 
HETATM    5  C   UNK N   1      36.344  14.000  15.478  0.00  0.00    -0.036 A 
HETATM    6  C   UNK N   1      37.279  15.109  15.815  0.00  0.00     0.050 C 
HETATM    7  C   UNK N   1      36.091  13.637  14.141  0.00  0.00     0.032 A 
HETATM    8  C   UNK N   1      35.206  12.590  13.862  0.00  0.00     0.036 A 
ENDROOT
BRANCH   7   9
HETATM    9  N   UNK N   1      36.718  14.316  13.075  0.00  0.00    -0.399 N 
HETATM   10  H   UNK N   1      36.993  15.255  13.184  0.00  0.00     0.156 HD
HETATM   11  H   UNK N   1      36.881  13.851  12.223  0.00  0.00     0.156 HD
ENDBRANCH   7   9
TORSDOF 1
ENDMDL
MODEL 4
REMARK VINA RESULT:      -4.5     14.241     15.070
REMARK  1 active torsions:
REMARK  status: ('A' for Active; 'I' for Inactive)
REMARK    1  A    between atoms: C_7  and  N_8 
ROOT
HETATM    1  C   UNK N   1      35.580  13.450  15.535  0.00  0.00     0.048 C 
HETATM    2  C   UNK N   1      35.525  12.722  16.828  0.00  0.00    -0.060 A 
HETATM    3  C   UNK N   1      35.830  11.359  16.873  0.00  0.00     0.007 A 
HETATM    4  C   UNK N   1      35.778  10.672  18.089  0.00  0.00     0.009 A 
HETATM    5  C   UNK N   1      35.421  11.343  19.262  0.00  0.00    -0.036 A 
HETATM    6  C   UNK N   1      35.376  10.582  20.541  0.00  0.00     0.050 C 
HETATM    7  C   UNK N   1      35.113  12.716  19.216  0.00  0.00     0.032 A 
HETATM    8  C   UNK N   1      35.167  13.399  17.997  0.00  0.00     0.036 A 
ENDROOT
BRANCH   7   9
HETATM    9  N   UNK N   1      34.750  13.416  20.386  0.00  0.00    -0.399 N 
HETATM   10  H   UNK N   1      35.039  13.085  21.267  0.00  0.00     0.156 HD
HETATM   11  H   UNK N   1      34.208  14.234  20.322  0.00  0.00     0.156 HD
ENDBRANCH   7   9
TORSDOF 1
ENDMDL
MODEL 5
REMARK VINA RESULT:      -4.5     14.071     14.830
REMARK  1 active torsions:
REMARK  status: ('A' for Active; 'I' for Inactive)
REMARK    1  A    between atoms: C_7  and  N_8 
ROOT
HETATM    1  C   UNK N   1      35.086   9.367  16.751  0.00  0.00     0.048 C 
HETATM    2  C   UNK N   1      35.136  10.790  17.174  0.00  0.00    -0.060 A 
HETATM    3  C   UNK N   1      35.033  11.804  16.219  0.00  0.00     0.007 A 
HETATM    4  C   UNK N   1      35.079  13.143  16.615  0.00  0.00     0.009 A 
HETATM    5  C   UNK N   1      35.228  13.473  17.965  0.00  0.00    -0.036 A 
HETATM    6  C   UNK N   1      35.273  14.910  18.354  0.00  0.00     0.050 C 
HETATM    7  C   UNK N   1      35.332  12.451  18.928  0.00  0.00     0.032 A 
HETATM    8  C   UNK N   1      35.285  11.112  18.526  0.00  0.00     0.036 A 
ENDROOT
BRANCH   7   9
HETATM    9  N   UNK N   1      35.483  12.758  20.296  0.00  0.00    -0.399 N 
HETATM   10  H   UNK N   1      35.489  12.036  20.965  0.00  0.00     0.156 HD
HETATM   11  H   UNK N   1      35.582  13.694  20.582  0.00  0.00     0.156 HD
ENDBRANCH   7   9
TORSDOF 1
ENDMDL
MODEL 6
REMARK VINA RESULT:      -4.4      0.863      2.742
REMARK  1 active torsions:
REMARK  status: ('A' for Active; 'I' for Inactive)
REMARK    1  A    between atoms: C_7  and  N_8 
ROOT
HETATM    1  C   UNK N   1      20.092  11.937  12.009  0.00  0.00     0.048 C 
HETATM    2  C   UNK N   1      21.280  12.318  11.204  0.00  0.00    -0.060 A 
HETATM    3  C   UNK N   1      21.115  13.039  10.019  0.00  0.00     0.007 A 
HETATM    4  C   UNK N   1      22.232  13.399   9.260  0.00  0.00     0.009 A 
HETATM    5  C   UNK N   1      23.515  13.039   9.681  0.00  0.00    -0.036 A 
HETATM    6  C   UNK N   1      24.684  13.438   8.849  0.00  0.00     0.050 C 
HETATM    7  C   UNK N   1      23.681  12.312  10.876  0.00  0.00     0.032 A 
HETATM    8  C   UNK N   1      22.560  11.955  11.632  0.00  0.00     0.036 A 
ENDROOT
BRANCH   7   9
HETATM    9  N   UNK N   1      24.965  11.938  11.323  0.00  0.00    -0.399 N 
HETATM   10  H   UNK N   1      25.410  12.455  12.032  0.00  0.00     0.156 HD
HETATM   11  H   UNK N   1      25.417  11.159  10.925  0.00  0.00     0.156 HD
ENDBRANCH   7   9
TORSDOF 1
ENDMDL
MODEL 7
REMARK VINA RESULT:      -4.4     19.579     20.659
REMARK  1 active torsions:
REMARK  status: ('A' for Active; 'I' for Inactive)
REMARK    1  A    between atoms: C_7  and  N_8 
ROOT
HETATM    1  C   UNK N   1      25.970  28.959  -3.696  0.00  0.00     0.048 C 
HETATM    2  C   UNK N   1      25.930  27.571  -4.223  0.00  0.00    -0.060 A 
HETATM    3  C   UNK N   1      25.324  27.311  -5.454  0.00  0.00     0.007 A 
HETATM    4  C   UNK N   1      25.285  26.007  -5.952  0.00  0.00     0.009 A 
HETATM    5  C   UNK N   1      25.852  24.958  -5.222  0.00  0.00    -0.036 A 
HETATM    6  C   UNK N   1      25.794  23.578  -5.781  0.00  0.00     0.050 C 
HETATM    7  C   UNK N   1      26.463  25.220  -3.981  0.00  0.00     0.032 A 
HETATM    8  C   UNK N   1      26.499  26.528  -3.487  0.00  0.00     0.036 A 
ENDROOT
BRANCH   7   9
HETATM    9  N   UNK N   1      27.042  24.179  -3.225  0.00  0.00    -0.399 N 
HETATM   10  H   UNK N   1      26.831  24.090  -2.268  0.00  0.00     0.156 HD
HETATM   11  H   UNK N   1      27.656  23.541  -3.655  0.00  0.00     0.156 HD
ENDBRANCH   7   9
TORSDOF 1
ENDMDL
MODEL 8
REMARK VINA RESULT:      -4.3      0.959      3.293
REMARK  1 active torsions:
REMARK  status: ('A' for Active; 'I' for Inactive)
REMARK    1  A    between atoms: C_7  and  N_8 
ROOT
HETATM    1  C   UNK N   1      23.324  11.857  13.213  0.00  0.00     0.048 C 
HETATM    2  C   UNK N   1      22.901  12.092  11.810  0.00  0.00    -0.060 A 
HETATM    3  C   UNK N   1      21.551  12.302  11.515  0.00  0.00     0.007 A 
HETATM    4  C   UNK N   1      21.151  12.523  10.196  0.00  0.00     0.009 A 
HETATM    5  C   UNK N   1      22.095  12.535   9.166  0.00  0.00    -0.036 A 
HETATM    6  C   UNK N   1      21.636  12.774   7.769  0.00  0.00     0.050 C 
HETATM    7  C   UNK N   1      23.456  12.324   9.462  0.00  0.00     0.032 A 
HETATM    8  C   UNK N   1      23.851  12.103  10.785  0.00  0.00     0.036 A 
ENDROOT
BRANCH   7   9
HETATM    9  N   UNK N   1      24.429  12.331   8.441  0.00  0.00    -0.399 N 
HETATM   10  H   UNK N   1      24.708  11.486   8.021  0.00  0.00     0.156 HD
HETATM   11  H   UNK N   1      24.828  13.182   8.147  0.00  0.00     0.156 HD
ENDBRANCH   7   9
TORSDOF 1
ENDMDL
MODEL 9
REMARK VINA RESULT:      -4.2      1.746      3.195
REMARK  1 active torsions:
REMARK  status: ('A' for Active; 'I' for Inactive)
REMARK    1  A    between atoms: C_7  and  N_8 
ROOT
HETATM    1  C   UNK N   1      20.163  12.050  11.771  0.00  0.00     0.048 C 
HETATM    2  C   UNK N   1      21.389  12.395  11.007  0.00  0.00    -0.060 A 
HETATM    3  C   UNK N   1      22.635  11.949  11.452  0.00  0.00     0.007 A 
HETATM    4  C   UNK N   1      23.790  12.272  10.735  0.00  0.00     0.009 A 
HETATM    5  C   UNK N   1      23.703  13.041   9.571  0.00  0.00    -0.036 A 
HETATM    6  C   UNK N   1      24.952  13.368   8.829  0.00  0.00     0.050 C 
HETATM    7  C   UNK N   1      22.446  13.490   9.122  0.00  0.00     0.032 A 
HETATM    8  C   UNK N   1      21.294  13.164   9.844  0.00  0.00     0.036 A 
ENDROOT
BRANCH   7   9
HETATM    9  N   UNK N   1      22.332  14.267   7.950  0.00  0.00    -0.399 N 
HETATM   10  H   UNK N   1      21.721  15.039   7.929  0.00  0.00     0.156 HD
HETATM   11  H   UNK N   1      22.863  14.038   7.153  0.00  0.00     0.156 HD
ENDBRANCH   7   9
TORSDOF 1
ENDMDL
