MODEL 1
REMARK VINA RESULT:      -5.0      0.000      0.000
REMARK  18 active torsions:
REMARK  status: ('A' for Active; 'I' for Inactive)
REMARK    1  A    between atoms: C_2  and  C_3 
REMARK    2  A    between atoms: C_3  and  C_4 
REMARK    3  A    between atoms: C_4  and  C_5 
REMARK    4  A    between atoms: C_5  and  O_7 
REMARK    5  A    between atoms: O_7  and  C_8 
REMARK    6  A    between atoms: C_8  and  C_9 
REMARK    7  A    between atoms: C_9  and  C_10 
REMARK    8  A    between atoms: C_9  and  O_22 
REMARK    9  A    between atoms: C_10  and  O_11 
REMARK   10  A    between atoms: P_12  and  O_11 
REMARK   11  A    between atoms: P_12  and  O_15 
REMARK   12  A    between atoms: O_15  and  C_16 
REMARK   13  A    between atoms: C_16  and  C_17 
REMARK   14  A    between atoms: C_17  and  N_18 
REMARK   15  A    between atoms: O_22  and  C_23 
REMARK   16  A    between atoms: C_23  and  C_25 
REMARK   17  A    between atoms: C_25  and  C_26 
REMARK   18  A    between atoms: C_26  and  C_27 
ROOT
HETATM    1  C   UNK N   1      31.599  16.460   8.843  0.00  0.00     0.180 C 
ENDROOT
BRANCH   1   2
HETATM    2  C   UNK N   1      31.558  16.526   7.325  0.00  0.00     0.213 C 
BRANCH   2   3
HETATM    3  O   UNK N   1      32.254  17.631   6.893  0.00  0.00    -0.319 OA
BRANCH   3   4
HETATM    4  C   UNK N   1      33.457  17.535   6.275  0.00  0.00     0.258 C 
HETATM    5  O   UNK N   1      34.451  17.971   6.829  0.00  0.00    -0.265 OA
BRANCH   4   6
HETATM    6  C   UNK N   1      33.585  16.903   4.916  0.00  0.00     0.111 C 
BRANCH   6   7
HETATM    7  C   UNK N   1      32.669  17.595   3.918  0.00  0.00     0.009 C 
BRANCH   7   8
HETATM    8  C   UNK N   1      31.624  16.633   3.383  0.00  0.00    -0.004 C 
HETATM    9  C   UNK N   1      32.234  15.268   3.131  0.00  0.00     0.005 C 
ENDBRANCH   7   8
ENDBRANCH   6   7
ENDBRANCH   4   6
ENDBRANCH   3   4
ENDBRANCH   2   3
ENDBRANCH   1   2
BRANCH   1  10
HETATM   10  C   UNK N   1      32.246  15.164   9.320  0.00  0.00     0.212 C 
BRANCH  10  11
HETATM   11  O   UNK N   1      33.509  15.026   8.741  0.00  0.00    -0.321 OA
BRANCH  11  12
HETATM   12  P   UNK N   1      34.648  15.305  10.021  0.00  0.00     0.279 P 
HETATM   13  S   UNK N   1      34.357  13.174   9.852  0.00  0.00    -0.022 SA
HETATM   14  S   UNK N   1      36.253  14.745   9.533  0.00  0.00    -0.022 SA
BRANCH  12  15
HETATM   15  O   UNK N   1      34.223  14.674  11.585  0.00  0.00    -0.322 OA
BRANCH  15  16
HETATM   16  C   UNK N   1      35.276  13.827  11.931  0.00  0.00     0.205 C 
BRANCH  16  17
HETATM   17  C   UNK N   1      35.708  14.063  13.384  0.00  0.00     0.262 C 
BRANCH  17  18
HETATM   18  N   UNK N   1      35.804  12.858  14.223  0.00  0.00    -0.077 N 
HETATM   19  C   UNK N   1      34.659  12.022  13.919  0.00  0.00     0.271 C 
HETATM   20  C   UNK N   1      37.004  12.112  13.886  0.00  0.00     0.271 C 
HETATM   21  C   UNK N   1      35.790  13.121  15.657  0.00  0.00     0.271 C 
ENDBRANCH  17  18
ENDBRANCH  16  17
ENDBRANCH  15  16
ENDBRANCH  12  15
ENDBRANCH  11  12
ENDBRANCH  10  11
ENDBRANCH   1  10
BRANCH   1  22
HETATM   22  O   UNK N   1      30.340  16.654   9.388  0.00  0.00    -0.312 OA
BRANCH  22  23
HETATM   23  C   UNK N   1      29.650  17.826   9.354  0.00  0.00     0.259 C 
HETATM   24  O   UNK N   1      30.199  18.887   9.617  0.00  0.00    -0.265 OA
BRANCH  23  25
HETATM   25  C   UNK N   1      28.192  17.808   9.039  0.00  0.00     0.111 C 
BRANCH  25  26
HETATM   26  C   UNK N   1      27.965  17.393   7.599  0.00  0.00     0.009 C 
BRANCH  26  27
HETATM   27  C   UNK N   1      28.206  18.582   6.694  0.00  0.00    -0.004 C 
HETATM   28  C   UNK N   1      28.795  18.105   5.383  0.00  0.00     0.005 C 
ENDBRANCH  26  27
ENDBRANCH  25  26
ENDBRANCH  23  25
ENDBRANCH  22  23
ENDBRANCH   1  22
TORSDOF 18
ENDMDL
MODEL 2
REMARK VINA RESULT:      -4.9      8.924     11.007
REMARK  18 active torsions:
REMARK  status: ('A' for Active; 'I' for Inactive)
REMARK    1  A    between atoms: C_2  and  C_3 
REMARK    2  A    between atoms: C_3  and  C_4 
REMARK    3  A    between atoms: C_4  and  C_5 
REMARK    4  A    between atoms: C_5  and  O_7 
REMARK    5  A    between atoms: O_7  and  C_8 
REMARK    6  A    between atoms: C_8  and  C_9 
REMARK    7  A    between atoms: C_9  and  C_10 
REMARK    8  A    between atoms: C_9  and  O_22 
REMARK    9  A    between atoms: C_10  and  O_11 
REMARK   10  A    between atoms: P_12  and  O_11 
REMARK   11  A    between atoms: P_12  and  O_15 
REMARK   12  A    between atoms: O_15  and  C_16 
REMARK   13  A    between atoms: C_16  and  C_17 
REMARK   14  A    between atoms: C_17  and  N_18 
REMARK   15  A    between atoms: O_22  and  C_23 
REMARK   16  A    between atoms: C_23  and  C_25 
REMARK   17  A    between atoms: C_25  and  C_26 
REMARK   18  A    between atoms: C_26  and  C_27 
ROOT
HETATM    1  C   UNK N   1      23.484  18.584   3.890  0.00  0.00     0.180 C 
ENDROOT
BRANCH   1   2
HETATM    2  C   UNK N   1      22.099  18.716   4.503  0.00  0.00     0.213 C 
BRANCH   2   3
HETATM    3  O   UNK N   1      21.400  19.707   3.853  0.00  0.00    -0.319 OA
BRANCH   3   4
HETATM    4  C   UNK N   1      20.773  19.496   2.670  0.00  0.00     0.258 C 
HETATM    5  O   UNK N   1      21.069  20.182   1.706  0.00  0.00    -0.265 OA
BRANCH   4   6
HETATM    6  C   UNK N   1      19.717  18.436   2.527  0.00  0.00     0.111 C 
BRANCH   6   7
HETATM    7  C   UNK N   1      20.111  17.430   1.457  0.00  0.00     0.009 C 
BRANCH   7   8
HETATM    8  C   UNK N   1      20.325  16.053   2.058  0.00  0.00    -0.004 C 
HETATM    9  C   UNK N   1      21.338  15.268   1.247  0.00  0.00     0.005 C 
ENDBRANCH   7   8
ENDBRANCH   6   7
ENDBRANCH   4   6
ENDBRANCH   3   4
ENDBRANCH   2   3
ENDBRANCH   1   2
BRANCH   1  10
HETATM   10  C   UNK N   1      24.168  17.299   4.348  0.00  0.00     0.212 C 
BRANCH  10  11
HETATM   11  O   UNK N   1      23.499  16.777   5.456  0.00  0.00    -0.321 OA
BRANCH  11  12
HETATM   12  P   UNK N   1      24.431  15.404   5.965  0.00  0.00     0.279 P 
HETATM   13  S   UNK N   1      22.787  14.678   4.772  0.00  0.00    -0.022 SA
HETATM   14  S   UNK N   1      25.262  14.690   4.577  0.00  0.00    -0.022 SA
BRANCH  12  15
HETATM   15  O   UNK N   1      23.581  14.185   6.869  0.00  0.00    -0.322 OA
BRANCH  15  16
HETATM   16  C   UNK N   1      24.578  13.351   7.376  0.00  0.00     0.205 C 
BRANCH  16  17
HETATM   17  C   UNK N   1      24.661  13.470   8.904  0.00  0.00     0.262 C 
BRANCH  17  18
HETATM   18  N   UNK N   1      23.851  12.504   9.662  0.00  0.00    -0.077 N 
HETATM   19  C   UNK N   1      24.617  12.117  10.832  0.00  0.00     0.271 C 
HETATM   20  C   UNK N   1      22.625  13.134  10.119  0.00  0.00     0.271 C 
HETATM   21  C   UNK N   1      23.521  11.288   8.928  0.00  0.00     0.271 C 
ENDBRANCH  17  18
ENDBRANCH  16  17
ENDBRANCH  15  16
ENDBRANCH  12  15
ENDBRANCH  11  12
ENDBRANCH  10  11
ENDBRANCH   1  10
BRANCH   1  22
HETATM   22  O   UNK N   1      24.252  19.710   4.138  0.00  0.00    -0.312 OA
BRANCH  22  23
HETATM   23  C   UNK N   1      25.022  20.345   3.215  0.00  0.00     0.259 C 
HETATM   24  O   UNK N   1      24.515  20.930   2.268  0.00  0.00    -0.265 OA
BRANCH  23  25
HETATM   25  C   UNK N   1      26.508  20.285   3.335  0.00  0.00     0.111 C 
BRANCH  25  26
HETATM   26  C   UNK N   1      26.914  19.970   4.760  0.00  0.00     0.009 C 
BRANCH  26  27
HETATM   27  C   UNK N   1      27.098  21.263   5.524  0.00  0.00    -0.004 C 
HETATM   28  C   UNK N   1      26.462  21.134   6.892  0.00  0.00     0.005 C 
ENDBRANCH  26  27
ENDBRANCH  25  26
ENDBRANCH  23  25
ENDBRANCH  22  23
ENDBRANCH   1  22
TORSDOF 18
ENDMDL
MODEL 3
REMARK VINA RESULT:      -4.8      3.190     10.069
REMARK  18 active torsions:
REMARK  status: ('A' for Active; 'I' for Inactive)
REMARK    1  A    between atoms: C_2  and  C_3 
REMARK    2  A    between atoms: C_3  and  C_4 
REMARK    3  A    between atoms: C_4  and  C_5 
REMARK    4  A    between atoms: C_5  and  O_7 
REMARK    5  A    between atoms: O_7  and  C_8 
REMARK    6  A    between atoms: C_8  and  C_9 
REMARK    7  A    between atoms: C_9  and  C_10 
REMARK    8  A    between atoms: C_9  and  O_22 
REMARK    9  A    between atoms: C_10  and  O_11 
REMARK   10  A    between atoms: P_12  and  O_11 
REMARK   11  A    between atoms: P_12  and  O_15 
REMARK   12  A    between atoms: O_15  and  C_16 
REMARK   13  A    between atoms: C_16  and  C_17 
REMARK   14  A    between atoms: C_17  and  N_18 
REMARK   15  A    between atoms: O_22  and  C_23 
REMARK   16  A    between atoms: C_23  and  C_25 
REMARK   17  A    between atoms: C_25  and  C_26 
REMARK   18  A    between atoms: C_26  and  C_27 
ROOT
HETATM    1  C   UNK N   1      35.268  13.303  12.989  0.00  0.00     0.180 C 
ENDROOT
BRANCH   1   2
HETATM    2  C   UNK N   1      34.916  11.930  12.439  0.00  0.00     0.213 C 
BRANCH   2   3
HETATM    3  O   UNK N   1      36.039  11.135  12.430  0.00  0.00    -0.319 OA
BRANCH   3   4
HETATM    4  C   UNK N   1      36.089   9.943  13.072  0.00  0.00     0.258 C 
HETATM    5  O   UNK N   1      36.970   9.149  12.791  0.00  0.00    -0.265 OA
BRANCH   4   6
HETATM    6  C   UNK N   1      35.074   9.581  14.121  0.00  0.00     0.111 C 
BRANCH   6   7
HETATM    7  C   UNK N   1      35.684   9.677  15.511  0.00  0.00     0.009 C 
BRANCH   7   8
HETATM    8  C   UNK N   1      34.607   9.841  16.567  0.00  0.00    -0.004 C 
HETATM    9  C   UNK N   1      34.939   9.023  17.799  0.00  0.00     0.005 C 
ENDBRANCH   7   8
ENDBRANCH   6   7
ENDBRANCH   4   6
ENDBRANCH   3   4
ENDBRANCH   2   3
ENDBRANCH   1   2
BRANCH   1  10
HETATM   10  C   UNK N   1      35.338  14.341  11.874  0.00  0.00     0.212 C 
BRANCH  10  11
HETATM   11  O   UNK N   1      34.051  14.761  11.538  0.00  0.00    -0.321 OA
BRANCH  11  12
HETATM   12  P   UNK N   1      34.022  14.855   9.804  0.00  0.00     0.279 P 
HETATM   13  S   UNK N   1      35.253  16.470  10.530  0.00  0.00    -0.022 SA
HETATM   14  S   UNK N   1      35.611  14.436   9.152  0.00  0.00    -0.022 SA
BRANCH  12  15
HETATM   15  O   UNK N   1      33.446  16.346   9.120  0.00  0.00    -0.322 OA
BRANCH  15  16
HETATM   16  C   UNK N   1      32.342  15.986   8.348  0.00  0.00     0.205 C 
BRANCH  16  17
HETATM   17  C   UNK N   1      31.987  17.099   7.354  0.00  0.00     0.262 C 
BRANCH  17  18
HETATM   18  N   UNK N   1      32.241  16.792   5.938  0.00  0.00    -0.077 N 
HETATM   19  C   UNK N   1      33.485  17.439   5.567  0.00  0.00     0.271 C 
HETATM   20  C   UNK N   1      32.413  15.360   5.761  0.00  0.00     0.271 C 
HETATM   21  C   UNK N   1      31.209  17.267   5.024  0.00  0.00     0.271 C 
ENDBRANCH  17  18
ENDBRANCH  16  17
ENDBRANCH  15  16
ENDBRANCH  12  15
ENDBRANCH  11  12
ENDBRANCH  10  11
ENDBRANCH   1  10
BRANCH   1  22
HETATM   22  O   UNK N   1      36.429  13.258  13.745  0.00  0.00    -0.312 OA
BRANCH  22  23
HETATM   23  C   UNK N   1      36.593  13.855  14.955  0.00  0.00     0.259 C 
HETATM   24  O   UNK N   1      37.026  14.997  15.040  0.00  0.00    -0.265 OA
BRANCH  23  25
HETATM   25  C   UNK N   1      36.285  13.089  16.198  0.00  0.00     0.111 C 
BRANCH  25  26
HETATM   26  C   UNK N   1      34.963  13.537  16.785  0.00  0.00     0.009 C 
BRANCH  26  27
HETATM   27  C   UNK N   1      35.148  13.840  18.256  0.00  0.00    -0.004 C 
HETATM   28  C   UNK N   1      35.320  12.544  19.020  0.00  0.00     0.005 C 
ENDBRANCH  26  27
ENDBRANCH  25  26
ENDBRANCH  23  25
ENDBRANCH  22  23
ENDBRANCH   1  22
TORSDOF 18
ENDMDL
MODEL 4
REMARK VINA RESULT:      -4.8      1.028      3.801
REMARK  18 active torsions:
REMARK  status: ('A' for Active; 'I' for Inactive)
REMARK    1  A    between atoms: C_2  and  C_3 
REMARK    2  A    between atoms: C_3  and  C_4 
REMARK    3  A    between atoms: C_4  and  C_5 
REMARK    4  A    between atoms: C_5  and  O_7 
REMARK    5  A    between atoms: O_7  and  C_8 
REMARK    6  A    between atoms: C_8  and  C_9 
REMARK    7  A    between atoms: C_9  and  C_10 
REMARK    8  A    between atoms: C_9  and  O_22 
REMARK    9  A    between atoms: C_10  and  O_11 
REMARK   10  A    between atoms: P_12  and  O_11 
REMARK   11  A    between atoms: P_12  and  O_15 
REMARK   12  A    between atoms: O_15  and  C_16 
REMARK   13  A    between atoms: C_16  and  C_17 
REMARK   14  A    between atoms: C_17  and  N_18 
REMARK   15  A    between atoms: O_22  and  C_23 
REMARK   16  A    between atoms: C_23  and  C_25 
REMARK   17  A    between atoms: C_25  and  C_26 
REMARK   18  A    between atoms: C_26  and  C_27 
ROOT
HETATM    1  C   UNK N   1      32.460  15.628   7.918  0.00  0.00     0.180 C 
ENDROOT
BRANCH   1   2
HETATM    2  C   UNK N   1      31.888  16.822   8.667  0.00  0.00     0.213 C 
BRANCH   2   3
HETATM    3  O   UNK N   1      30.558  16.970   8.350  0.00  0.00    -0.319 OA
BRANCH   3   4
HETATM    4  C   UNK N   1      29.844  18.065   8.711  0.00  0.00     0.258 C 
HETATM    5  O   UNK N   1      30.420  19.019   9.203  0.00  0.00    -0.265 OA
BRANCH   4   6
HETATM    6  C   UNK N   1      28.354  18.119   8.517  0.00  0.00     0.111 C 
BRANCH   6   7
HETATM    7  C   UNK N   1      28.011  18.782   7.193  0.00  0.00     0.009 C 
BRANCH   7   8
HETATM    8  C   UNK N   1      28.035  17.774   6.058  0.00  0.00    -0.004 C 
HETATM    9  C   UNK N   1      28.951  18.245   4.945  0.00  0.00     0.005 C 
ENDBRANCH   7   8
ENDBRANCH   6   7
ENDBRANCH   4   6
ENDBRANCH   3   4
ENDBRANCH   2   3
ENDBRANCH   1   2
BRANCH   1  10
HETATM   10  C   UNK N   1      32.822  14.499   8.878  0.00  0.00     0.212 C 
BRANCH  10  11
HETATM   11  O   UNK N   1      34.209  14.410   8.999  0.00  0.00    -0.321 OA
BRANCH  11  12
HETATM   12  P   UNK N   1      34.561  14.757  10.664  0.00  0.00     0.279 P 
HETATM   13  S   UNK N   1      36.434  14.401   9.657  0.00  0.00    -0.022 SA
HETATM   14  S   UNK N   1      35.361  16.327  10.797  0.00  0.00    -0.022 SA
BRANCH  12  15
HETATM   15  O   UNK N   1      35.441  13.539  11.539  0.00  0.00    -0.322 OA
BRANCH  15  16
HETATM   16  C   UNK N   1      35.419  13.961  12.867  0.00  0.00     0.205 C 
BRANCH  16  17
HETATM   17  C   UNK N   1      35.278  12.764  13.817  0.00  0.00     0.262 C 
BRANCH  17  18
HETATM   18  N   UNK N   1      36.287  12.676  14.884  0.00  0.00    -0.077 N 
HETATM   19  C   UNK N   1      36.811  14.011  15.100  0.00  0.00     0.271 C 
HETATM   20  C   UNK N   1      35.666  12.234  16.121  0.00  0.00     0.271 C 
HETATM   21  C   UNK N   1      37.415  11.804  14.576  0.00  0.00     0.271 C 
ENDBRANCH  17  18
ENDBRANCH  16  17
ENDBRANCH  15  16
ENDBRANCH  12  15
ENDBRANCH  11  12
ENDBRANCH  10  11
ENDBRANCH   1  10
BRANCH   1  22
HETATM   22  O   UNK N   1      33.525  16.003   7.115  0.00  0.00    -0.312 OA
BRANCH  22  23
HETATM   23  C   UNK N   1      33.599  17.165   6.413  0.00  0.00     0.259 C 
HETATM   24  O   UNK N   1      34.468  17.992   6.655  0.00  0.00    -0.265 OA
BRANCH  23  25
HETATM   25  C   UNK N   1      32.576  17.454   5.366  0.00  0.00     0.111 C 
BRANCH  25  26
HETATM   26  C   UNK N   1      33.104  17.092   3.993  0.00  0.00     0.009 C 
BRANCH  26  27
HETATM   27  C   UNK N   1      31.943  16.731   3.091  0.00  0.00    -0.004 C 
HETATM   28  C   UNK N   1      31.541  15.292   3.340  0.00  0.00     0.005 C 
ENDBRANCH  26  27
ENDBRANCH  25  26
ENDBRANCH  23  25
ENDBRANCH  22  23
ENDBRANCH   1  22
TORSDOF 18
ENDMDL
MODEL 5
REMARK VINA RESULT:      -4.8      3.684      7.459
REMARK  18 active torsions:
REMARK  status: ('A' for Active; 'I' for Inactive)
REMARK    1  A    between atoms: C_2  and  C_3 
REMARK    2  A    between atoms: C_3  and  C_4 
REMARK    3  A    between atoms: C_4  and  C_5 
REMARK    4  A    between atoms: C_5  and  O_7 
REMARK    5  A    between atoms: O_7  and  C_8 
REMARK    6  A    between atoms: C_8  and  C_9 
REMARK    7  A    between atoms: C_9  and  C_10 
REMARK    8  A    between atoms: C_9  and  O_22 
REMARK    9  A    between atoms: C_10  and  O_11 
REMARK   10  A    between atoms: P_12  and  O_11 
REMARK   11  A    between atoms: P_12  and  O_15 
REMARK   12  A    between atoms: O_15  and  C_16 
REMARK   13  A    between atoms: C_16  and  C_17 
REMARK   14  A    between atoms: C_17  and  N_18 
REMARK   15  A    between atoms: O_22  and  C_23 
REMARK   16  A    between atoms: C_23  and  C_25 
REMARK   17  A    between atoms: C_25  and  C_26 
REMARK   18  A    between atoms: C_26  and  C_27 
ROOT
HETATM    1  C   UNK N   1      35.704  13.839  12.421  0.00  0.00     0.180 C 
ENDROOT
BRANCH   1   2
HETATM    2  C   UNK N   1      35.901  15.287  12.000  0.00  0.00     0.213 C 
BRANCH   2   3
HETATM    3  O   UNK N   1      34.826  15.699  11.248  0.00  0.00    -0.319 OA
BRANCH   3   4
HETATM    4  C   UNK N   1      34.950  16.579  10.225  0.00  0.00     0.258 C 
HETATM    5  O   UNK N   1      35.682  17.545  10.352  0.00  0.00    -0.265 OA
BRANCH   4   6
HETATM    6  C   UNK N   1      34.197  16.385   8.938  0.00  0.00     0.111 C 
BRANCH   6   7
HETATM    7  C   UNK N   1      33.829  17.728   8.327  0.00  0.00     0.009 C 
BRANCH   7   8
HETATM    8  C   UNK N   1      32.322  17.891   8.240  0.00  0.00    -0.004 C 
HETATM    9  C   UNK N   1      31.627  16.569   8.502  0.00  0.00     0.005 C 
ENDBRANCH   7   8
ENDBRANCH   6   7
ENDBRANCH   4   6
ENDBRANCH   3   4
ENDBRANCH   2   3
ENDBRANCH   1   2
BRANCH   1  10
HETATM   10  C   UNK N   1      35.009  13.038  11.325  0.00  0.00     0.212 C 
BRANCH  10  11
HETATM   11  O   UNK N   1      35.029  11.680  11.648  0.00  0.00    -0.321 OA
BRANCH  11  12
HETATM   12  P   UNK N   1      35.114  10.836  10.132  0.00  0.00     0.279 P 
HETATM   13  S   UNK N   1      35.077   9.361  11.706  0.00  0.00    -0.022 SA
HETATM   14  S   UNK N   1      33.589   9.997   9.823  0.00  0.00    -0.022 SA
BRANCH  12  15
HETATM   15  O   UNK N   1      36.464   9.761   9.921  0.00  0.00    -0.322 OA
BRANCH  15  16
HETATM   16  C   UNK N   1      37.590  10.584   9.957  0.00  0.00     0.205 C 
BRANCH  16  17
HETATM   17  C   UNK N   1      37.663  11.462   8.701  0.00  0.00     0.262 C 
BRANCH  17  18
HETATM   18  N   UNK N   1      38.208  12.814   8.900  0.00  0.00    -0.077 N 
HETATM   19  C   UNK N   1      38.629  12.915  10.284  0.00  0.00     0.271 C 
HETATM   20  C   UNK N   1      39.378  13.007   8.061  0.00  0.00     0.271 C 
HETATM   21  C   UNK N   1      37.255  13.890   8.650  0.00  0.00     0.271 C 
ENDBRANCH  17  18
ENDBRANCH  16  17
ENDBRANCH  15  16
ENDBRANCH  12  15
ENDBRANCH  11  12
ENDBRANCH  10  11
ENDBRANCH   1  10
BRANCH   1  22
HETATM   22  O   UNK N   1      35.046  13.755  13.637  0.00  0.00    -0.312 OA
BRANCH  22  23
HETATM   23  C   UNK N   1      35.616  13.356  14.805  0.00  0.00     0.259 C 
HETATM   24  O   UNK N   1      36.833  13.298  14.923  0.00  0.00    -0.265 OA
BRANCH  23  25
HETATM   25  C   UNK N   1      34.744  12.938  15.940  0.00  0.00     0.111 C 
BRANCH  25  26
HETATM   26  C   UNK N   1      35.429  11.872  16.772  0.00  0.00     0.009 C 
BRANCH  26  27
HETATM   27  C   UNK N   1      35.256  12.198  18.240  0.00  0.00    -0.004 C 
HETATM   28  C   UNK N   1      35.181  13.699  18.417  0.00  0.00     0.005 C 
ENDBRANCH  26  27
ENDBRANCH  25  26
ENDBRANCH  23  25
ENDBRANCH  22  23
ENDBRANCH   1  22
TORSDOF 18
ENDMDL
MODEL 6
REMARK VINA RESULT:      -4.8     10.662     12.285
REMARK  18 active torsions:
REMARK  status: ('A' for Active; 'I' for Inactive)
REMARK    1  A    between atoms: C_2  and  C_3 
REMARK    2  A    between atoms: C_3  and  C_4 
REMARK    3  A    between atoms: C_4  and  C_5 
REMARK    4  A    between atoms: C_5  and  O_7 
REMARK    5  A    between atoms: O_7  and  C_8 
REMARK    6  A    between atoms: C_8  and  C_9 
REMARK    7  A    between atoms: C_9  and  C_10 
REMARK    8  A    between atoms: C_9  and  O_22 
REMARK    9  A    between atoms: C_10  and  O_11 
REMARK   10  A    between atoms: P_12  and  O_11 
REMARK   11  A    between atoms: P_12  and  O_15 
REMARK   12  A    between atoms: O_15  and  C_16 
REMARK   13  A    between atoms: C_16  and  C_17 
REMARK   14  A    between atoms: C_17  and  N_18 
REMARK   15  A    between atoms: O_22  and  C_23 
REMARK   16  A    between atoms: C_23  and  C_25 
REMARK   17  A    between atoms: C_25  and  C_26 
REMARK   18  A    between atoms: C_26  and  C_27 
ROOT
HETATM    1  C   UNK N   1      21.631  17.775   4.086  0.00  0.00     0.180 C 
ENDROOT
BRANCH   1   2
HETATM    2  C   UNK N   1      21.950  19.199   3.661  0.00  0.00     0.213 C 
BRANCH   2   3
HETATM    3  O   UNK N   1      23.314  19.373   3.622  0.00  0.00    -0.319 OA
BRANCH   3   4
HETATM    4  C   UNK N   1      23.890  20.470   3.072  0.00  0.00     0.258 C 
HETATM    5  O   UNK N   1      23.227  21.481   2.919  0.00  0.00    -0.265 OA
BRANCH   4   6
HETATM    6  C   UNK N   1      25.331  20.458   2.642  0.00  0.00     0.111 C 
BRANCH   6   7
HETATM    7  C   UNK N   1      26.209  19.868   3.735  0.00  0.00     0.009 C 
BRANCH   7   8
HETATM    8  C   UNK N   1      26.162  20.721   4.989  0.00  0.00    -0.004 C 
HETATM    9  C   UNK N   1      27.502  20.701   5.698  0.00  0.00     0.005 C 
ENDBRANCH   7   8
ENDBRANCH   6   7
ENDBRANCH   4   6
ENDBRANCH   3   4
ENDBRANCH   2   3
ENDBRANCH   1   2
BRANCH   1  10
HETATM   10  C   UNK N   1      20.159  17.448   3.852  0.00  0.00     0.212 C 
BRANCH  10  11
HETATM   11  O   UNK N   1      20.012  16.083   3.603  0.00  0.00    -0.321 OA
BRANCH  11  12
HETATM   12  P   UNK N   1      20.912  15.769   2.152  0.00  0.00     0.279 P 
HETATM   13  S   UNK N   1      19.529  14.137   2.435  0.00  0.00    -0.022 SA
HETATM   14  S   UNK N   1      19.855  15.923   0.742  0.00  0.00    -0.022 SA
BRANCH  12  15
HETATM   15  O   UNK N   1      21.797  14.273   2.099  0.00  0.00    -0.322 OA
BRANCH  15  16
HETATM   16  C   UNK N   1      23.092  14.606   2.493  0.00  0.00     0.205 C 
BRANCH  16  17
HETATM   17  C   UNK N   1      23.276  14.385   4.000  0.00  0.00     0.262 C 
BRANCH  17  18
HETATM   18  N   UNK N   1      24.653  14.521   4.500  0.00  0.00    -0.077 N 
HETATM   19  C   UNK N   1      25.514  13.751   3.623  0.00  0.00     0.271 C 
HETATM   20  C   UNK N   1      25.073  15.910   4.432  0.00  0.00     0.271 C 
HETATM   21  C   UNK N   1      24.852  14.026   5.858  0.00  0.00     0.271 C 
ENDBRANCH  17  18
ENDBRANCH  16  17
ENDBRANCH  15  16
ENDBRANCH  12  15
ENDBRANCH  11  12
ENDBRANCH  10  11
ENDBRANCH   1  10
BRANCH   1  22
HETATM   22  O   UNK N   1      22.024  17.541   5.393  0.00  0.00    -0.312 OA
BRANCH  22  23
HETATM   23  C   UNK N   1      21.239  17.729   6.488  0.00  0.00     0.259 C 
HETATM   24  O   UNK N   1      21.030  18.852   6.926  0.00  0.00    -0.265 OA
BRANCH  23  25
HETATM   25  C   UNK N   1      20.664  16.544   7.189  0.00  0.00     0.111 C 
BRANCH  25  26
HETATM   26  C   UNK N   1      21.693  15.436   7.290  0.00  0.00     0.009 C 
BRANCH  26  27
HETATM   27  C   UNK N   1      21.500  14.694   8.595  0.00  0.00    -0.004 C 
HETATM   28  C   UNK N   1      20.124  14.997   9.148  0.00  0.00     0.005 C 
ENDBRANCH  26  27
ENDBRANCH  25  26
ENDBRANCH  23  25
ENDBRANCH  22  23
ENDBRANCH   1  22
TORSDOF 18
ENDMDL
MODEL 7
REMARK VINA RESULT:      -4.8      3.787      8.015
REMARK  18 active torsions:
REMARK  status: ('A' for Active; 'I' for Inactive)
REMARK    1  A    between atoms: C_2  and  C_3 
REMARK    2  A    between atoms: C_3  and  C_4 
REMARK    3  A    between atoms: C_4  and  C_5 
REMARK    4  A    between atoms: C_5  and  O_7 
REMARK    5  A    between atoms: O_7  and  C_8 
REMARK    6  A    between atoms: C_8  and  C_9 
REMARK    7  A    between atoms: C_9  and  C_10 
REMARK    8  A    between atoms: C_9  and  O_22 
REMARK    9  A    between atoms: C_10  and  O_11 
REMARK   10  A    between atoms: P_12  and  O_11 
REMARK   11  A    between atoms: P_12  and  O_15 
REMARK   12  A    between atoms: O_15  and  C_16 
REMARK   13  A    between atoms: C_16  and  C_17 
REMARK   14  A    between atoms: C_17  and  N_18 
REMARK   15  A    between atoms: O_22  and  C_23 
REMARK   16  A    between atoms: C_23  and  C_25 
REMARK   17  A    between atoms: C_25  and  C_26 
REMARK   18  A    between atoms: C_26  and  C_27 
ROOT
HETATM    1  C   UNK N   1      34.587  15.201   7.141  0.00  0.00     0.180 C 
ENDROOT
BRANCH   1   2
HETATM    2  C   UNK N   1      35.371  14.821   8.388  0.00  0.00     0.213 C 
BRANCH   2   3
HETATM    3  O   UNK N   1      34.776  15.382   9.494  0.00  0.00    -0.319 OA
BRANCH   3   4
HETATM    4  C   UNK N   1      35.472  16.110  10.401  0.00  0.00     0.258 C 
HETATM    5  O   UNK N   1      35.476  17.326  10.316  0.00  0.00    -0.265 OA
BRANCH   4   6
HETATM    6  C   UNK N   1      36.241  15.443  11.508  0.00  0.00     0.111 C 
BRANCH   6   7
HETATM    7  C   UNK N   1      35.378  14.403  12.206  0.00  0.00     0.009 C 
BRANCH   7   8
HETATM    8  C   UNK N   1      36.226  13.483  13.066  0.00  0.00    -0.004 C 
HETATM    9  C   UNK N   1      36.483  14.108  14.423  0.00  0.00     0.005 C 
ENDBRANCH   7   8
ENDBRANCH   6   7
ENDBRANCH   4   6
ENDBRANCH   3   4
ENDBRANCH   2   3
ENDBRANCH   1   2
BRANCH   1  10
HETATM   10  C   UNK N   1      34.818  14.193   6.019  0.00  0.00     0.212 C 
BRANCH  10  11
HETATM   11  O   UNK N   1      34.631  14.813   4.783  0.00  0.00    -0.321 OA
BRANCH  11  12
HETATM   12  P   UNK N   1      33.001  14.446   4.312  0.00  0.00     0.279 P 
HETATM   13  S   UNK N   1      34.288  13.973   2.647  0.00  0.00    -0.022 SA
HETATM   14  S   UNK N   1      32.795  12.696   4.165  0.00  0.00    -0.022 SA
BRANCH  12  15
HETATM   15  O   UNK N   1      32.403  15.260   2.896  0.00  0.00    -0.322 OA
BRANCH  15  16
HETATM   16  C   UNK N   1      31.698  16.360   3.383  0.00  0.00     0.205 C 
BRANCH  16  17
HETATM   17  C   UNK N   1      30.220  16.281   2.981  0.00  0.00     0.262 C 
BRANCH  17  18
HETATM   18  N   UNK N   1      29.252  16.568   4.051  0.00  0.00    -0.077 N 
HETATM   19  C   UNK N   1      29.196  15.403   4.913  0.00  0.00     0.271 C 
HETATM   20  C   UNK N   1      29.712  17.692   4.849  0.00  0.00     0.271 C 
HETATM   21  C   UNK N   1      27.897  16.836   3.582  0.00  0.00     0.271 C 
ENDBRANCH  17  18
ENDBRANCH  16  17
ENDBRANCH  15  16
ENDBRANCH  12  15
ENDBRANCH  11  12
ENDBRANCH  10  11
ENDBRANCH   1  10
BRANCH   1  22
HETATM   22  O   UNK N   1      34.864  16.500   6.751  0.00  0.00    -0.312 OA
BRANCH  22  23
HETATM   23  C   UNK N   1      34.143  17.593   7.118  0.00  0.00     0.259 C 
HETATM   24  O   UNK N   1      34.699  18.621   7.481  0.00  0.00    -0.265 OA
BRANCH  23  25
HETATM   25  C   UNK N   1      32.652  17.520   7.122  0.00  0.00     0.111 C 
BRANCH  25  26
HETATM   26  C   UNK N   1      32.104  17.929   8.474  0.00  0.00     0.009 C 
BRANCH  26  27
HETATM   27  C   UNK N   1      30.620  17.637   8.520  0.00  0.00    -0.004 C 
HETATM   28  C   UNK N   1      29.932  18.666   9.391  0.00  0.00     0.005 C 
ENDBRANCH  26  27
ENDBRANCH  25  26
ENDBRANCH  23  25
ENDBRANCH  22  23
ENDBRANCH   1  22
TORSDOF 18
ENDMDL
MODEL 8
REMARK VINA RESULT:      -4.7     14.427     17.251
REMARK  18 active torsions:
REMARK  status: ('A' for Active; 'I' for Inactive)
REMARK    1  A    between atoms: C_2  and  C_3 
REMARK    2  A    between atoms: C_3  and  C_4 
REMARK    3  A    between atoms: C_4  and  C_5 
REMARK    4  A    between atoms: C_5  and  O_7 
REMARK    5  A    between atoms: O_7  and  C_8 
REMARK    6  A    between atoms: C_8  and  C_9 
REMARK    7  A    between atoms: C_9  and  C_10 
REMARK    8  A    between atoms: C_9  and  O_22 
REMARK    9  A    between atoms: C_10  and  O_11 
REMARK   10  A    between atoms: P_12  and  O_11 
REMARK   11  A    between atoms: P_12  and  O_15 
REMARK   12  A    between atoms: O_15  and  C_16 
REMARK   13  A    between atoms: C_16  and  C_17 
REMARK   14  A    between atoms: C_17  and  N_18 
REMARK   15  A    between atoms: O_22  and  C_23 
REMARK   16  A    between atoms: C_23  and  C_25 
REMARK   17  A    between atoms: C_25  and  C_26 
REMARK   18  A    between atoms: C_26  and  C_27 
ROOT
HETATM    1  C   UNK N   1      26.996  25.782  -4.529  0.00  0.00     0.180 C 
ENDROOT
BRANCH   1   2
HETATM    2  C   UNK N   1      26.175  24.516  -4.345  0.00  0.00     0.213 C 
BRANCH   2   3
HETATM    3  O   UNK N   1      25.240  24.423  -5.350  0.00  0.00    -0.319 OA
BRANCH   3   4
HETATM    4  C   UNK N   1      25.537  23.922  -6.574  0.00  0.00     0.258 C 
HETATM    5  O   UNK N   1      25.395  24.626  -7.559  0.00  0.00    -0.265 OA
BRANCH   4   6
HETATM    6  C   UNK N   1      26.035  22.513  -6.737  0.00  0.00     0.111 C 
BRANCH   6   7
HETATM    7  C   UNK N   1      24.985  21.652  -7.423  0.00  0.00     0.009 C 
BRANCH   7   8
HETATM    8  C   UNK N   1      25.599  20.844  -8.553  0.00  0.00    -0.004 C 
HETATM    9  C   UNK N   1      27.109  20.971  -8.540  0.00  0.00     0.005 C 
ENDBRANCH   7   8
ENDBRANCH   6   7
ENDBRANCH   4   6
ENDBRANCH   3   4
ENDBRANCH   2   3
ENDBRANCH   1   2
BRANCH   1  10
HETATM   10  C   UNK N   1      28.438  25.453  -4.899  0.00  0.00     0.212 C 
BRANCH  10  11
HETATM   11  O   UNK N   1      29.142  25.064  -3.758  0.00  0.00    -0.321 OA
BRANCH  11  12
HETATM   12  P   UNK N   1      30.340  23.933  -4.306  0.00  0.00     0.279 P 
HETATM   13  S   UNK N   1      29.326  23.051  -2.619  0.00  0.00    -0.022 SA
HETATM   14  S   UNK N   1      29.554  22.527  -5.035  0.00  0.00    -0.022 SA
BRANCH  12  15
HETATM   15  O   UNK N   1      31.529  23.439  -3.137  0.00  0.00    -0.322 OA
BRANCH  15  16
HETATM   16  C   UNK N   1      31.381  22.056  -3.034  0.00  0.00     0.205 C 
BRANCH  16  17
HETATM   17  C   UNK N   1      32.750  21.362  -3.032  0.00  0.00     0.262 C 
BRANCH  17  18
HETATM   18  N   UNK N   1      33.143  20.726  -4.299  0.00  0.00    -0.077 N 
HETATM   19  C   UNK N   1      34.352  19.965  -4.049  0.00  0.00     0.271 C 
HETATM   20  C   UNK N   1      32.112  19.798  -4.731  0.00  0.00     0.271 C 
HETATM   21  C   UNK N   1      33.427  21.663  -5.380  0.00  0.00     0.271 C 
ENDBRANCH  17  18
ENDBRANCH  16  17
ENDBRANCH  15  16
ENDBRANCH  12  15
ENDBRANCH  11  12
ENDBRANCH  10  11
ENDBRANCH   1  10
BRANCH   1  22
HETATM   22  O   UNK N   1      26.908  26.603  -3.416  0.00  0.00    -0.312 OA
BRANCH  22  23
HETATM   23  C   UNK N   1      26.786  27.957  -3.456  0.00  0.00     0.259 C 
HETATM   24  O   UNK N   1      26.900  28.628  -2.439  0.00  0.00    -0.265 OA
BRANCH  23  25
HETATM   25  C   UNK N   1      26.460  28.625  -4.749  0.00  0.00     0.111 C 
BRANCH  25  26
HETATM   26  C   UNK N   1      27.323  29.855  -4.944  0.00  0.00     0.009 C 
BRANCH  26  27
HETATM   27  C   UNK N   1      28.343  29.582  -6.028  0.00  0.00    -0.004 C 
HETATM   28  C   UNK N   1      27.804  28.527  -6.971  0.00  0.00     0.005 C 
ENDBRANCH  26  27
ENDBRANCH  25  26
ENDBRANCH  23  25
ENDBRANCH  22  23
ENDBRANCH   1  22
TORSDOF 18
ENDMDL
MODEL 9
REMARK VINA RESULT:      -4.7     16.893     19.065
REMARK  18 active torsions:
REMARK  status: ('A' for Active; 'I' for Inactive)
REMARK    1  A    between atoms: C_2  and  C_3 
REMARK    2  A    between atoms: C_3  and  C_4 
REMARK    3  A    between atoms: C_4  and  C_5 
REMARK    4  A    between atoms: C_5  and  O_7 
REMARK    5  A    between atoms: O_7  and  C_8 
REMARK    6  A    between atoms: C_8  and  C_9 
REMARK    7  A    between atoms: C_9  and  C_10 
REMARK    8  A    between atoms: C_9  and  O_22 
REMARK    9  A    between atoms: C_10  and  O_11 
REMARK   10  A    between atoms: P_12  and  O_11 
REMARK   11  A    between atoms: P_12  and  O_15 
REMARK   12  A    between atoms: O_15  and  C_16 
REMARK   13  A    between atoms: C_16  and  C_17 
REMARK   14  A    between atoms: C_17  and  N_18 
REMARK   15  A    between atoms: O_22  and  C_23 
REMARK   16  A    between atoms: C_23  and  C_25 
REMARK   17  A    between atoms: C_25  and  C_26 
REMARK   18  A    between atoms: C_26  and  C_27 
ROOT
HETATM    1  C   UNK N   1      25.946  25.571  -5.609  0.00  0.00     0.180 C 
ENDROOT
BRANCH   1   2
HETATM    2  C   UNK N   1      24.763  26.487  -5.337  0.00  0.00     0.213 C 
BRANCH   2   3
HETATM    3  O   UNK N   1      25.199  27.788  -5.248  0.00  0.00    -0.319 OA
BRANCH   3   4
HETATM    4  C   UNK N   1      25.721  28.302  -4.107  0.00  0.00     0.258 C 
HETATM    5  O   UNK N   1      25.416  27.809  -3.035  0.00  0.00    -0.265 OA
BRANCH   4   6
HETATM    6  C   UNK N   1      26.664  29.472  -4.142  0.00  0.00     0.111 C 
BRANCH   6   7
HETATM    7  C   UNK N   1      27.999  29.064  -4.745  0.00  0.00     0.009 C 
BRANCH   7   8
HETATM    8  C   UNK N   1      28.121  29.550  -6.178  0.00  0.00    -0.004 C 
HETATM    9  C   UNK N   1      28.052  28.384  -7.144  0.00  0.00     0.005 C 
ENDBRANCH   7   8
ENDBRANCH   6   7
ENDBRANCH   4   6
ENDBRANCH   3   4
ENDBRANCH   2   3
ENDBRANCH   1   2
BRANCH   1  10
HETATM   10  C   UNK N   1      25.856  24.955  -7.002  0.00  0.00     0.212 C 
BRANCH  10  11
HETATM   11  O   UNK N   1      26.157  23.594  -6.937  0.00  0.00    -0.321 OA
BRANCH  11  12
HETATM   12  P   UNK N   1      27.487  23.353  -8.028  0.00  0.00     0.279 P 
HETATM   13  S   UNK N   1      25.740  23.809  -9.209  0.00  0.00    -0.022 SA
HETATM   14  S   UNK N   1      27.935  24.889  -8.781  0.00  0.00    -0.022 SA
BRANCH  12  15
HETATM   15  O   UNK N   1      27.286  22.111  -9.228  0.00  0.00    -0.322 OA
BRANCH  15  16
HETATM   16  C   UNK N   1      27.532  20.915  -8.555  0.00  0.00     0.205 C 
BRANCH  16  17
HETATM   17  C   UNK N   1      28.658  21.091  -7.528  0.00  0.00     0.262 C 
BRANCH  17  18
HETATM   18  N   UNK N   1      29.772  20.136  -7.636  0.00  0.00    -0.077 N 
HETATM   19  C   UNK N   1      30.550  20.503  -8.804  0.00  0.00     0.271 C 
HETATM   20  C   UNK N   1      30.635  20.244  -6.473  0.00  0.00     0.271 C 
HETATM   21  C   UNK N   1      29.360  18.746  -7.800  0.00  0.00     0.271 C 
ENDBRANCH  17  18
ENDBRANCH  16  17
ENDBRANCH  15  16
ENDBRANCH  12  15
ENDBRANCH  11  12
ENDBRANCH  10  11
ENDBRANCH   1  10
BRANCH   1  22
HETATM   22  O   UNK N   1      26.080  24.615  -4.616  0.00  0.00    -0.312 OA
BRANCH  22  23
HETATM   23  C   UNK N   1      27.035  24.628  -3.647  0.00  0.00     0.259 C 
HETATM   24  O   UNK N   1      26.864  24.039  -2.588  0.00  0.00    -0.265 OA
BRANCH  23  25
HETATM   25  C   UNK N   1      28.286  25.411  -3.863  0.00  0.00     0.111 C 
BRANCH  25  26
HETATM   26  C   UNK N   1      29.472  24.483  -4.030  0.00  0.00     0.009 C 
BRANCH  26  27
HETATM   27  C   UNK N   1      30.727  25.188  -3.565  0.00  0.00    -0.004 C 
HETATM   28  C   UNK N   1      31.817  25.011  -4.602  0.00  0.00     0.005 C 
ENDBRANCH  26  27
ENDBRANCH  25  26
ENDBRANCH  23  25
ENDBRANCH  22  23
ENDBRANCH   1  22
TORSDOF 18
ENDMDL
