MODEL 1
REMARK VINA RESULT:      -6.2      0.000      0.000
REMARK  6 active torsions:
REMARK  status: ('A' for Active; 'I' for Inactive)
REMARK    1  A    between atoms: C_3  and  C_1 
REMARK    2  A    between atoms: O_19  and  C_1 
REMARK    3  A    between atoms: C_9  and  C_5 
REMARK    4  A    between atoms: C_7  and  O_20 
REMARK    5  A    between atoms: C_8  and  O_21 
REMARK    6  A    between atoms: N_11  and  C_10 
ROOT
HETATM    1  C   UNK N   1      29.679  16.834   7.264  0.00  0.00     0.182 A 
HETATM    2  C   UNK N   1      31.874  17.001   6.490  0.00  0.00     0.092 A 
HETATM    3  C   UNK N   1      33.240  17.032   6.445  0.00  0.00     0.086 A 
HETATM    4  C   UNK N   1      31.450  17.264   5.238  0.00  0.00     0.120 A 
HETATM    5  C   UNK N   1      30.093  17.309   4.962  0.00  0.00     0.130 A 
HETATM    6  N   UNK N   1      31.022  16.782   7.520  0.00  0.00    -0.349 N 
ATOM      7  HN  UNK N   1      31.373  16.584   8.458  1.00  0.00     0.167 HD
HETATM    8  N   UNK N   1      29.222  17.092   5.994  0.00  0.00    -0.337 N 
ATOM      9  HN  UNK N   1      28.218  17.123   5.819  1.00  0.00     0.168 HD
HETATM   10  N   UNK N   1      33.612  17.318   5.171  0.00  0.00    -0.299 N 
HETATM   11  N   UNK N   1      32.510  17.454   4.430  0.00  0.00    -0.295 N 
ATOM     12  HN  UNK N   1      32.478  17.664   3.432  1.00  0.00     0.187 HD
HETATM   13  H   UNK N   1      34.537  17.410   4.849  0.00  0.00     0.186 HD
ENDROOT
BRANCH   3  14
HETATM   14  C   UNK N   1      34.159  16.780   7.603  0.00  0.00     0.207 C 
HETATM   15  C   UNK N   1      34.175  17.864   8.669  0.00  0.00     0.184 C 
HETATM   16  C   UNK N   1      34.672  17.102   9.897  0.00  0.00     0.180 C 
HETATM   17  C   UNK N   1      34.669  15.649   9.403  0.00  0.00     0.177 C 
HETATM   18  O   UNK N   1      33.788  15.615   8.305  0.00  0.00    -0.367 OA
BRANCH  15  19
HETATM   19  O   UNK N   1      34.956  18.969   8.322  0.00  0.00    -0.390 OA
HETATM   20  H   UNK N   1      34.870  19.922   8.480  0.00  0.00     0.210 HD
ENDBRANCH  15  19
BRANCH  16  21
HETATM   21  O   UNK N   1      35.955  17.480  10.305  0.00  0.00    -0.390 OA
HETATM   22  H   UNK N   1      36.810  17.732   9.920  0.00  0.00     0.210 HD
ENDBRANCH  16  21
BRANCH  17  23
HETATM   23  C   UNK N   1      34.270  14.643  10.472  0.00  0.00     0.198 C 
BRANCH  23  24
HETATM   24  O   UNK N   1      33.028  14.981  11.012  0.00  0.00    -0.398 OA
HETATM   25  H   UNK N   1      32.543  15.796  10.807  0.00  0.00     0.209 HD
ENDBRANCH  23  24
ENDBRANCH  17  23
ENDBRANCH   3  14
BRANCH   5  26
HETATM   26  N   UNK N   1      29.615  17.569   3.662  0.00  0.00    -0.383 N 
HETATM   27  H   UNK N   1      30.082  17.271   2.849  0.00  0.00     0.157 HD
HETATM   28  H   UNK N   1      28.776  18.075   3.564  0.00  0.00     0.157 HD
ENDBRANCH   5  26
TORSDOF 6
ENDMDL
MODEL 2
REMARK VINA RESULT:      -6.1      1.799      2.406
REMARK  6 active torsions:
REMARK  status: ('A' for Active; 'I' for Inactive)
REMARK    1  A    between atoms: C_3  and  C_1 
REMARK    2  A    between atoms: O_19  and  C_1 
REMARK    3  A    between atoms: C_9  and  C_5 
REMARK    4  A    between atoms: C_7  and  O_20 
REMARK    5  A    between atoms: C_8  and  O_21 
REMARK    6  A    between atoms: N_11  and  C_10 
ROOT
HETATM    1  C   UNK N   1      31.384  14.486   6.003  0.00  0.00     0.182 A 
HETATM    2  C   UNK N   1      32.184  15.966   7.620  0.00  0.00     0.092 A 
HETATM    3  C   UNK N   1      32.945  16.532   8.605  0.00  0.00     0.086 A 
HETATM    4  C   UNK N   1      31.144  16.800   7.421  0.00  0.00     0.120 A 
HETATM    5  C   UNK N   1      30.181  16.492   6.475  0.00  0.00     0.130 A 
HETATM    6  N   UNK N   1      32.335  14.808   6.934  0.00  0.00    -0.349 N 
ATOM      7  HN  UNK N   1      33.133  14.196   7.105  1.00  0.00     0.167 HD
HETATM    8  N   UNK N   1      30.319  15.324   5.776  0.00  0.00    -0.337 N 
ATOM      9  HN  UNK N   1      29.622  15.072   5.076  1.00  0.00     0.168 HD
HETATM   10  N   UNK N   1      32.348  17.691   8.984  0.00  0.00    -0.299 N 
HETATM   11  N   UNK N   1      31.245  17.857   8.250  0.00  0.00    -0.295 N 
ATOM     12  HN  UNK N   1      30.596  18.642   8.308  1.00  0.00     0.187 HD
HETATM   13  H   UNK N   1      32.673  18.304   9.681  0.00  0.00     0.186 HD
ENDROOT
BRANCH   3  14
HETATM   14  C   UNK N   1      34.222  15.970   9.156  0.00  0.00     0.207 C 
HETATM   15  C   UNK N   1      34.840  16.758  10.300  0.00  0.00     0.184 C 
HETATM   16  C   UNK N   1      35.697  15.700  10.994  0.00  0.00     0.180 C 
HETATM   17  C   UNK N   1      35.281  14.414  10.268  0.00  0.00     0.177 C 
HETATM   18  O   UNK N   1      34.023  14.683   9.696  0.00  0.00    -0.367 OA
BRANCH  15  19
HETATM   19  O   UNK N   1      35.548  17.886   9.875  0.00  0.00    -0.390 OA
HETATM   20  H   UNK N   1      36.187  18.041   9.163  0.00  0.00     0.210 HD
ENDBRANCH  15  19
BRANCH  16  21
HETATM   21  O   UNK N   1      37.071  15.920  10.857  0.00  0.00    -0.390 OA
HETATM   22  H   UNK N   1      37.722  16.632  10.967  0.00  0.00     0.210 HD
ENDBRANCH  16  21
BRANCH  17  23
HETATM   23  C   UNK N   1      35.234  13.192  11.173  0.00  0.00     0.198 C 
BRANCH  23  24
HETATM   24  O   UNK N   1      34.454  13.456  12.299  0.00  0.00    -0.398 OA
HETATM   25  H   UNK N   1      33.835  12.824  12.700  0.00  0.00     0.209 HD
ENDBRANCH  23  24
ENDBRANCH  17  23
ENDBRANCH   3  14
BRANCH   5  26
HETATM   26  N   UNK N   1      29.087  17.348   6.233  0.00  0.00    -0.383 N 
HETATM   27  H   UNK N   1      29.120  18.318   6.393  0.00  0.00     0.157 HD
HETATM   28  H   UNK N   1      28.252  16.956   5.889  0.00  0.00     0.157 HD
ENDBRANCH   5  26
TORSDOF 6
ENDMDL
MODEL 3
REMARK VINA RESULT:      -6.1      2.750      4.447
REMARK  6 active torsions:
REMARK  status: ('A' for Active; 'I' for Inactive)
REMARK    1  A    between atoms: C_3  and  C_1 
REMARK    2  A    between atoms: O_19  and  C_1 
REMARK    3  A    between atoms: C_9  and  C_5 
REMARK    4  A    between atoms: C_7  and  O_20 
REMARK    5  A    between atoms: C_8  and  O_21 
REMARK    6  A    between atoms: N_11  and  C_10 
ROOT
HETATM    1  C   UNK N   1      34.048  17.540   7.029  0.00  0.00     0.182 A 
HETATM    2  C   UNK N   1      33.611  16.220   8.902  0.00  0.00     0.092 A 
HETATM    3  C   UNK N   1      33.777  15.438  10.013  0.00  0.00     0.086 A 
HETATM    4  C   UNK N   1      32.282  16.295   8.689  0.00  0.00     0.120 A 
HETATM    5  C   UNK N   1      31.793  17.023   7.617  0.00  0.00     0.130 A 
HETATM    6  N   UNK N   1      34.516  16.827   8.099  0.00  0.00    -0.349 N 
ATOM      7  HN  UNK N   1      35.517  16.753   8.285  1.00  0.00     0.167 HD
HETATM    8  N   UNK N   1      32.697  17.638   6.795  0.00  0.00    -0.337 N 
ATOM      9  HN  UNK N   1      32.363  18.177   5.996  1.00  0.00     0.168 HD
HETATM   10  N   UNK N   1      32.548  15.054  10.442  0.00  0.00    -0.299 N 
HETATM   11  N   UNK N   1      31.631  15.586   9.632  0.00  0.00    -0.295 N 
ATOM     12  HN  UNK N   1      30.620  15.476   9.711  1.00  0.00     0.187 HD
HETATM   13  H   UNK N   1      32.364  14.479  11.220  0.00  0.00     0.186 HD
ENDROOT
BRANCH   3  14
HETATM   14  C   UNK N   1      35.090  15.085  10.645  0.00  0.00     0.207 C 
HETATM   15  C   UNK N   1      35.132  13.735  11.345  0.00  0.00     0.184 C 
HETATM   16  C   UNK N   1      36.627  13.415  11.338  0.00  0.00     0.180 C 
HETATM   17  C   UNK N   1      37.195  14.531  10.451  0.00  0.00     0.177 C 
HETATM   18  O   UNK N   1      36.115  15.002   9.681  0.00  0.00    -0.367 OA
BRANCH  15  19
HETATM   19  O   UNK N   1      34.553  13.754  12.616  0.00  0.00    -0.390 OA
HETATM   20  H   UNK N   1      33.827  13.256  13.025  0.00  0.00     0.210 HD
ENDBRANCH  15  19
BRANCH  16  21
HETATM   21  O   UNK N   1      37.209  13.452  12.609  0.00  0.00    -0.390 OA
HETATM   22  H   UNK N   1      37.821  13.997  13.127  0.00  0.00     0.210 HD
ENDBRANCH  16  21
BRANCH  17  23
HETATM   23  C   UNK N   1      38.354  14.080   9.574  0.00  0.00     0.198 C 
BRANCH  23  24
HETATM   24  O   UNK N   1      39.132  13.140  10.250  0.00  0.00    -0.398 OA
HETATM   25  H   UNK N   1      39.025  12.908  11.186  0.00  0.00     0.209 HD
ENDBRANCH  23  24
ENDBRANCH  17  23
ENDBRANCH   3  14
BRANCH   5  26
HETATM   26  N   UNK N   1      30.410  17.131   7.372  0.00  0.00    -0.383 N 
HETATM   27  H   UNK N   1      30.038  17.376   6.494  0.00  0.00     0.157 HD
HETATM   28  H   UNK N   1      29.787  16.955   8.114  0.00  0.00     0.157 HD
ENDBRANCH   5  26
TORSDOF 6
ENDMDL
MODEL 4
REMARK VINA RESULT:      -6.1      8.604     11.142
REMARK  6 active torsions:
REMARK  status: ('A' for Active; 'I' for Inactive)
REMARK    1  A    between atoms: C_3  and  C_1 
REMARK    2  A    between atoms: O_19  and  C_1 
REMARK    3  A    between atoms: C_9  and  C_5 
REMARK    4  A    between atoms: C_7  and  O_20 
REMARK    5  A    between atoms: C_8  and  O_21 
REMARK    6  A    between atoms: N_11  and  C_10 
ROOT
HETATM    1  C   UNK N   1      27.153  20.676   4.776  0.00  0.00     0.182 A 
HETATM    2  C   UNK N   1      25.615  19.055   4.109  0.00  0.00     0.092 A 
HETATM    3  C   UNK N   1      24.443  18.413   3.815  0.00  0.00     0.086 A 
HETATM    4  C   UNK N   1      26.598  18.156   3.903  0.00  0.00     0.120 A 
HETATM    5  C   UNK N   1      27.919  18.512   4.125  0.00  0.00     0.130 A 
HETATM    6  N   UNK N   1      25.855  20.315   4.542  0.00  0.00    -0.349 N 
ATOM      7  HN  UNK N   1      25.089  20.974   4.689  1.00  0.00     0.167 HD
HETATM    8  N   UNK N   1      28.175  19.781   4.566  0.00  0.00    -0.337 N 
ATOM      9  HN  UNK N   1      29.137  20.067   4.740  1.00  0.00     0.168 HD
HETATM   10  N   UNK N   1      24.743  17.142   3.444  0.00  0.00    -0.299 N 
HETATM   11  N   UNK N   1      26.067  16.988   3.492  0.00  0.00    -0.295 N 
ATOM     12  HN  UNK N   1      26.584  16.140   3.260  1.00  0.00     0.187 HD
HETATM   13  H   UNK N   1      24.092  16.451   3.184  0.00  0.00     0.186 HD
ENDROOT
BRANCH   3  14
HETATM   14  C   UNK N   1      23.073  19.020   3.882  0.00  0.00     0.207 C 
HETATM   15  C   UNK N   1      22.761  20.039   2.797  0.00  0.00     0.184 C 
HETATM   16  C   UNK N   1      21.233  20.008   2.757  0.00  0.00     0.180 C 
HETATM   17  C   UNK N   1      20.906  18.826   3.679  0.00  0.00     0.177 C 
HETATM   18  O   UNK N   1      22.072  18.039   3.729  0.00  0.00    -0.367 OA
BRANCH  15  19
HETATM   19  O   UNK N   1      23.305  21.300   3.050  0.00  0.00    -0.390 OA
HETATM   20  H   UNK N   1      23.474  21.802   3.863  0.00  0.00     0.210 HD
ENDBRANCH  15  19
BRANCH  16  21
HETATM   21  O   UNK N   1      20.641  21.182   3.234  0.00  0.00    -0.390 OA
HETATM   22  H   UNK N   1      19.933  21.463   3.835  0.00  0.00     0.210 HD
ENDBRANCH  16  21
BRANCH  17  23
HETATM   23  C   UNK N   1      19.702  18.014   3.225  0.00  0.00     0.198 C 
BRANCH  23  24
HETATM   24  O   UNK N   1      18.857  18.803   2.443  0.00  0.00    -0.398 OA
HETATM   25  H   UNK N   1      17.978  19.108   2.719  0.00  0.00     0.209 HD
ENDBRANCH  23  24
ENDBRANCH  17  23
ENDBRANCH   3  14
BRANCH   5  26
HETATM   26  N   UNK N   1      28.972  17.601   3.908  0.00  0.00    -0.383 N 
HETATM   27  H   UNK N   1      29.746  17.523   4.510  0.00  0.00     0.157 HD
HETATM   28  H   UNK N   1      28.931  17.017   3.116  0.00  0.00     0.157 HD
ENDBRANCH   5  26
TORSDOF 6
ENDMDL
MODEL 5
REMARK VINA RESULT:      -6.0      5.667      8.254
REMARK  6 active torsions:
REMARK  status: ('A' for Active; 'I' for Inactive)
REMARK    1  A    between atoms: C_3  and  C_1 
REMARK    2  A    between atoms: O_19  and  C_1 
REMARK    3  A    between atoms: C_9  and  C_5 
REMARK    4  A    between atoms: C_7  and  O_20 
REMARK    5  A    between atoms: C_8  and  O_21 
REMARK    6  A    between atoms: N_11  and  C_10 
ROOT
HETATM    1  C   UNK N   1      34.386  10.828  13.106  0.00  0.00     0.182 A 
HETATM    2  C   UNK N   1      35.484  12.882  13.232  0.00  0.00     0.092 A 
HETATM    3  C   UNK N   1      35.879  14.166  12.975  0.00  0.00     0.086 A 
HETATM    4  C   UNK N   1      36.251  12.450  14.253  0.00  0.00     0.120 A 
HETATM    5  C   UNK N   1      36.090  11.164  14.743  0.00  0.00     0.130 A 
HETATM    6  N   UNK N   1      34.548  12.104  12.639  0.00  0.00    -0.349 N 
ATOM      7  HN  UNK N   1      33.982  12.459  11.868  1.00  0.00     0.167 HD
HETATM    8  N   UNK N   1      35.150  10.366  14.152  0.00  0.00    -0.337 N 
ATOM      9  HN  UNK N   1      35.013   9.415  14.491  1.00  0.00     0.168 HD
HETATM   10  N   UNK N   1      36.877  14.480  13.840  0.00  0.00    -0.299 N 
HETATM   11  N   UNK N   1      37.100  13.426  14.628  0.00  0.00    -0.295 N 
ATOM     12  HN  UNK N   1      37.788  13.370  15.379  1.00  0.00     0.187 HD
HETATM   13  H   UNK N   1      37.356  15.339  13.879  0.00  0.00     0.186 HD
ENDROOT
BRANCH   3  14
HETATM   14  C   UNK N   1      35.296  15.067  11.927  0.00  0.00     0.207 C 
HETATM   15  C   UNK N   1      36.127  15.216  10.662  0.00  0.00     0.184 C 
HETATM   16  C   UNK N   1      35.078  15.643   9.635  0.00  0.00     0.180 C 
HETATM   17  C   UNK N   1      33.769  15.473  10.417  0.00  0.00     0.177 C 
HETATM   18  O   UNK N   1      34.057  14.578  11.466  0.00  0.00    -0.367 OA
BRANCH  15  19
HETATM   19  O   UNK N   1      37.192  16.110  10.803  0.00  0.00    -0.390 OA
HETATM   20  H   UNK N   1      37.274  17.070  10.694  0.00  0.00     0.210 HD
ENDBRANCH  15  19
BRANCH  16  21
HETATM   21  O   UNK N   1      35.226  16.965   9.205  0.00  0.00    -0.390 OA
HETATM   22  H   UNK N   1      35.020  17.866   9.498  0.00  0.00     0.210 HD
ENDBRANCH  16  21
BRANCH  17  23
HETATM   23  C   UNK N   1      32.609  14.979   9.564  0.00  0.00     0.198 C 
BRANCH  23  24
HETATM   24  O   UNK N   1      31.398  15.214  10.216  0.00  0.00    -0.398 OA
HETATM   25  H   UNK N   1      31.287  15.233  11.179  0.00  0.00     0.209 HD
ENDBRANCH  23  24
ENDBRANCH  17  23
ENDBRANCH   3  14
BRANCH   5  26
HETATM   26  N   UNK N   1      36.866  10.684  15.817  0.00  0.00    -0.383 N 
HETATM   27  H   UNK N   1      36.676   9.837  16.280  0.00  0.00     0.157 HD
HETATM   28  H   UNK N   1      37.633  11.223  16.118  0.00  0.00     0.157 HD
ENDBRANCH   5  26
TORSDOF 6
ENDMDL
MODEL 6
REMARK VINA RESULT:      -6.0      4.178      6.130
REMARK  6 active torsions:
REMARK  status: ('A' for Active; 'I' for Inactive)
REMARK    1  A    between atoms: C_3  and  C_1 
REMARK    2  A    between atoms: O_19  and  C_1 
REMARK    3  A    between atoms: C_9  and  C_5 
REMARK    4  A    between atoms: C_7  and  O_20 
REMARK    5  A    between atoms: C_8  and  O_21 
REMARK    6  A    between atoms: N_11  and  C_10 
ROOT
HETATM    1  C   UNK N   1      32.476  15.122   9.486  0.00  0.00     0.182 A 
HETATM    2  C   UNK N   1      34.519  15.007  10.607  0.00  0.00     0.092 A 
HETATM    3  C   UNK N   1      35.546  14.580  11.402  0.00  0.00     0.086 A 
HETATM    4  C   UNK N   1      34.891  16.209  10.124  0.00  0.00     0.120 A 
HETATM    5  C   UNK N   1      34.045  16.908   9.279  0.00  0.00     0.130 A 
HETATM    6  N   UNK N   1      33.327  14.437  10.310  0.00  0.00    -0.349 N 
ATOM      7  HN  UNK N   1      33.072  13.525  10.690  1.00  0.00     0.167 HD
HETATM    8  N   UNK N   1      32.836  16.345   8.974  0.00  0.00    -0.337 N 
ATOM      9  HN  UNK N   1      32.193  16.841   8.357  1.00  0.00     0.168 HD
HETATM   10  N   UNK N   1      36.513  15.533  11.388  0.00  0.00    -0.299 N 
HETATM   11  N   UNK N   1      36.111  16.530  10.597  0.00  0.00    -0.295 N 
ATOM     12  HN  UNK N   1      36.634  17.381  10.388  1.00  0.00     0.187 HD
HETATM   13  H   UNK N   1      37.365  15.495  11.878  0.00  0.00     0.186 HD
ENDROOT
BRANCH   3  14
HETATM   14  C   UNK N   1      35.593  13.278  12.146  0.00  0.00     0.207 C 
HETATM   15  C   UNK N   1      36.871  13.024  12.930  0.00  0.00     0.184 C 
HETATM   16  C   UNK N   1      36.407  12.016  13.983  0.00  0.00     0.180 C 
HETATM   17  C   UNK N   1      34.887  12.002  13.774  0.00  0.00     0.177 C 
HETATM   18  O   UNK N   1      34.575  13.209  13.118  0.00  0.00    -0.367 OA
BRANCH  15  19
HETATM   19  O   UNK N   1      37.929  12.578  12.134  0.00  0.00    -0.390 OA
HETATM   20  H   UNK N   1      38.887  12.725  12.157  0.00  0.00     0.210 HD
ENDBRANCH  15  19
BRANCH  16  21
HETATM   21  O   UNK N   1      36.940  10.737  13.801  0.00  0.00    -0.390 OA
HETATM   22  H   UNK N   1      37.353  10.026  14.318  0.00  0.00     0.210 HD
ENDBRANCH  16  21
BRANCH  17  23
HETATM   23  C   UNK N   1      34.096  11.847  15.065  0.00  0.00     0.198 C 
BRANCH  23  24
HETATM   24  O   UNK N   1      34.085  13.050  15.771  0.00  0.00    -0.398 OA
HETATM   25  H   UNK N   1      34.445  13.887  15.437  0.00  0.00     0.209 HD
ENDBRANCH  23  24
ENDBRANCH  17  23
ENDBRANCH   3  14
BRANCH   5  26
HETATM   26  N   UNK N   1      34.408  18.162   8.747  0.00  0.00    -0.383 N 
HETATM   27  H   UNK N   1      35.324  18.378   8.460  0.00  0.00     0.157 HD
HETATM   28  H   UNK N   1      33.712  18.853   8.660  0.00  0.00     0.157 HD
ENDBRANCH   5  26
TORSDOF 6
ENDMDL
MODEL 7
REMARK VINA RESULT:      -5.9      9.678     12.209
REMARK  6 active torsions:
REMARK  status: ('A' for Active; 'I' for Inactive)
REMARK    1  A    between atoms: C_3  and  C_1 
REMARK    2  A    between atoms: O_19  and  C_1 
REMARK    3  A    between atoms: C_9  and  C_5 
REMARK    4  A    between atoms: C_7  and  O_20 
REMARK    5  A    between atoms: C_8  and  O_21 
REMARK    6  A    between atoms: N_11  and  C_10 
ROOT
HETATM    1  C   UNK N   1      25.240  17.262   4.972  0.00  0.00     0.182 A 
HETATM    2  C   UNK N   1      23.968  18.882   3.876  0.00  0.00     0.092 A 
HETATM    3  C   UNK N   1      22.913  19.564   3.336  0.00  0.00     0.086 A 
HETATM    4  C   UNK N   1      25.072  19.593   3.572  0.00  0.00     0.120 A 
HETATM    5  C   UNK N   1      26.317  19.148   3.982  0.00  0.00     0.130 A 
HETATM    6  N   UNK N   1      24.015  17.721   4.571  0.00  0.00    -0.349 N 
ATOM      7  HN  UNK N   1      23.162  17.203   4.787  1.00  0.00     0.167 HD
HETATM    8  N   UNK N   1      26.380  17.974   4.681  0.00  0.00    -0.337 N 
ATOM      9  HN  UNK N   1      27.284  17.622   4.992  1.00  0.00     0.168 HD
HETATM   10  N   UNK N   1      23.400  20.667   2.714  0.00  0.00    -0.299 N 
HETATM   11  N   UNK N   1      24.726  20.687   2.865  0.00  0.00    -0.295 N 
ATOM     12  HN  UNK N   1      25.362  21.401   2.510  1.00  0.00     0.187 HD
HETATM   13  H   UNK N   1      22.866  21.339   2.233  0.00  0.00     0.186 HD
ENDROOT
BRANCH   3  14
HETATM   14  C   UNK N   1      21.471  19.162   3.433  0.00  0.00     0.207 C 
HETATM   15  C   UNK N   1      20.728  19.084   2.108  0.00  0.00     0.184 C 
HETATM   16  C   UNK N   1      19.578  18.132   2.439  0.00  0.00     0.180 C 
HETATM   17  C   UNK N   1      19.952  17.645   3.845  0.00  0.00     0.177 C 
HETATM   18  O   UNK N   1      21.336  17.869   3.977  0.00  0.00    -0.367 OA
BRANCH  15  19
HETATM   19  O   UNK N   1      20.323  20.331   1.626  0.00  0.00    -0.390 OA
HETATM   20  H   UNK N   1      19.460  20.704   1.386  0.00  0.00     0.210 HD
ENDBRANCH  15  19
BRANCH  16  21
HETATM   21  O   UNK N   1      18.327  18.755   2.450  0.00  0.00    -0.390 OA
HETATM   22  H   UNK N   1      17.590  18.947   1.849  0.00  0.00     0.210 HD
ENDBRANCH  16  21
BRANCH  17  23
HETATM   23  C   UNK N   1      19.594  16.188   4.101  0.00  0.00     0.198 C 
BRANCH  23  24
HETATM   24  O   UNK N   1      18.427  16.106   4.861  0.00  0.00    -0.398 OA
HETATM   25  H   UNK N   1      18.082  16.822   5.418  0.00  0.00     0.209 HD
ENDBRANCH  23  24
ENDBRANCH  17  23
ENDBRANCH   3  14
BRANCH   5  26
HETATM   26  N   UNK N   1      27.490  19.873   3.690  0.00  0.00    -0.383 N 
HETATM   27  H   UNK N   1      28.144  20.134   4.378  0.00  0.00     0.157 HD
HETATM   28  H   UNK N   1      27.662  20.130   2.756  0.00  0.00     0.157 HD
ENDBRANCH   5  26
TORSDOF 6
ENDMDL
MODEL 8
REMARK VINA RESULT:      -5.9      9.745     12.276
REMARK  6 active torsions:
REMARK  status: ('A' for Active; 'I' for Inactive)
REMARK    1  A    between atoms: C_3  and  C_1 
REMARK    2  A    between atoms: O_19  and  C_1 
REMARK    3  A    between atoms: C_9  and  C_5 
REMARK    4  A    between atoms: C_7  and  O_20 
REMARK    5  A    between atoms: C_8  and  O_21 
REMARK    6  A    between atoms: N_11  and  C_10 
ROOT
HETATM    1  C   UNK N   1      24.993  12.825  10.169  0.00  0.00     0.182 A 
HETATM    2  C   UNK N   1      22.747  13.270   9.724  0.00  0.00     0.092 A 
HETATM    3  C   UNK N   1      21.602  13.731   9.135  0.00  0.00     0.086 A 
HETATM    4  C   UNK N   1      22.362  12.640  10.852  0.00  0.00     0.120 A 
HETATM    5  C   UNK N   1      23.310  12.063  11.680  0.00  0.00     0.130 A 
HETATM    6  N   UNK N   1      24.044  13.380   9.354  0.00  0.00    -0.349 N 
ATOM      7  HN  UNK N   1      24.306  13.863   8.493  1.00  0.00     0.167 HD
HETATM    8  N   UNK N   1      24.626  12.170  11.320  0.00  0.00    -0.337 N 
ATOM      9  HN  UNK N   1      25.344  11.757  11.914  1.00  0.00     0.168 HD
HETATM   10  N   UNK N   1      20.553  13.376   9.920  0.00  0.00    -0.299 N 
HETATM   11  N   UNK N   1      21.021  12.700  10.971  0.00  0.00    -0.295 N 
ATOM     12  HN  UNK N   1      20.465  12.302  11.728  1.00  0.00     0.187 HD
HETATM   13  H   UNK N   1      19.607  13.583   9.744  0.00  0.00     0.186 HD
ENDROOT
BRANCH   3  14
HETATM   14  C   UNK N   1      21.527  14.486   7.841  0.00  0.00     0.207 C 
HETATM   15  C   UNK N   1      20.815  15.827   7.910  0.00  0.00     0.184 C 
HETATM   16  C   UNK N   1      21.400  16.565   6.706  0.00  0.00     0.180 C 
HETATM   17  C   UNK N   1      22.512  15.613   6.248  0.00  0.00     0.177 C 
HETATM   18  O   UNK N   1      22.814  14.806   7.362  0.00  0.00    -0.367 OA
BRANCH  15  19
HETATM   19  O   UNK N   1      19.422  15.715   7.896  0.00  0.00    -0.390 OA
HETATM   20  H   UNK N   1      18.799  15.226   7.337  0.00  0.00     0.210 HD
ENDBRANCH  15  19
BRANCH  16  21
HETATM   21  O   UNK N   1      20.474  16.772   5.678  0.00  0.00    -0.390 OA
HETATM   22  H   UNK N   1      20.411  16.694   4.713  0.00  0.00     0.210 HD
ENDBRANCH  16  21
BRANCH  17  23
HETATM   23  C   UNK N   1      23.749  16.328   5.723  0.00  0.00     0.198 C 
BRANCH  23  24
HETATM   24  O   UNK N   1      23.515  17.702   5.651  0.00  0.00    -0.398 OA
HETATM   25  H   UNK N   1      24.032  18.319   5.109  0.00  0.00     0.209 HD
ENDBRANCH  23  24
ENDBRANCH  17  23
ENDBRANCH   3  14
BRANCH   5  26
HETATM   26  N   UNK N   1      22.942  11.387  12.861  0.00  0.00    -0.383 N 
HETATM   27  H   UNK N   1      22.008  11.293  13.157  0.00  0.00     0.157 HD
HETATM   28  H   UNK N   1      23.653  10.991  13.415  0.00  0.00     0.157 HD
ENDBRANCH   5  26
TORSDOF 6
ENDMDL
MODEL 9
REMARK VINA RESULT:      -5.8      8.221     10.551
REMARK  6 active torsions:
REMARK  status: ('A' for Active; 'I' for Inactive)
REMARK    1  A    between atoms: C_3  and  C_1 
REMARK    2  A    between atoms: O_19  and  C_1 
REMARK    3  A    between atoms: C_9  and  C_5 
REMARK    4  A    between atoms: C_7  and  O_20 
REMARK    5  A    between atoms: C_8  and  O_21 
REMARK    6  A    between atoms: N_11  and  C_10 
ROOT
HETATM    1  C   UNK N   1      21.331  20.828   2.263  0.00  0.00     0.182 A 
HETATM    2  C   UNK N   1      22.033  18.957   3.466  0.00  0.00     0.092 A 
HETATM    3  C   UNK N   1      22.782  18.105   4.231  0.00  0.00     0.086 A 
HETATM    4  C   UNK N   1      20.916  18.280   3.133  0.00  0.00     0.120 A 
HETATM    5  C   UNK N   1      19.951  18.883   2.343  0.00  0.00     0.130 A 
HETATM    6  N   UNK N   1      22.271  20.224   3.053  0.00  0.00    -0.349 N 
ATOM      7  HN  UNK N   1      23.126  20.712   3.322  1.00  0.00     0.167 HD
HETATM    8  N   UNK N   1      20.180  20.161   1.916  0.00  0.00    -0.337 N 
ATOM      9  HN  UNK N   1      19.488  20.627   1.331  1.00  0.00     0.168 HD
HETATM   10  N   UNK N   1      22.106  16.933   4.339  0.00  0.00    -0.299 N 
HETATM   11  N   UNK N   1      20.957  17.044   3.668  0.00  0.00    -0.295 N 
ATOM     12  HN  UNK N   1      20.241  16.324   3.578  1.00  0.00     0.187 HD
HETATM   13  H   UNK N   1      22.412  16.136   4.828  0.00  0.00     0.186 HD
ENDROOT
BRANCH   3  14
HETATM   14  C   UNK N   1      24.110  18.425   4.850  0.00  0.00     0.207 C 
HETATM   15  C   UNK N   1      25.058  17.246   5.000  0.00  0.00     0.184 C 
HETATM   16  C   UNK N   1      26.421  17.934   5.066  0.00  0.00     0.180 C 
HETATM   17  C   UNK N   1      26.068  19.390   4.736  0.00  0.00     0.177 C 
HETATM   18  O   UNK N   1      24.832  19.346   4.063  0.00  0.00    -0.367 OA
BRANCH  15  19
HETATM   19  O   UNK N   1      24.766  16.439   6.103  0.00  0.00    -0.390 OA
HETATM   20  H   UNK N   1      24.638  16.622   7.047  0.00  0.00     0.210 HD
ENDBRANCH  15  19
BRANCH  16  21
HETATM   21  O   UNK N   1      27.027  17.848   6.324  0.00  0.00    -0.390 OA
HETATM   22  H   UNK N   1      26.812  17.585   7.233  0.00  0.00     0.210 HD
ENDBRANCH  16  21
BRANCH  17  23
HETATM   23  C   UNK N   1      27.129  20.102   3.910  0.00  0.00     0.198 C 
BRANCH  23  24
HETATM   24  O   UNK N   1      28.387  19.557   4.169  0.00  0.00    -0.398 OA
HETATM   25  H   UNK N   1      29.131  19.570   3.547  0.00  0.00     0.209 HD
ENDBRANCH  23  24
ENDBRANCH  17  23
ENDBRANCH   3  14
BRANCH   5  26
HETATM   26  N   UNK N   1      18.767  18.208   1.986  0.00  0.00    -0.383 N 
HETATM   27  H   UNK N   1      18.634  17.244   2.130  0.00  0.00     0.157 HD
HETATM   28  H   UNK N   1      18.039  18.725   1.571  0.00  0.00     0.157 HD
ENDBRANCH   5  26
TORSDOF 6
ENDMDL
