MODEL 1
REMARK VINA RESULT:      -4.5      0.000      0.000
REMARK  7 active torsions:
REMARK  status: ('A' for Active; 'I' for Inactive)
REMARK    1  A    between atoms: C_2  and  O_1 
REMARK    2  A    between atoms: C_2  and  C_3 
REMARK    3  A    between atoms: C_2  and  C_9 
REMARK    4  A    between atoms: C_3  and  O_4 
REMARK    5  A    between atoms: O_4  and  P_5 
REMARK    6  A    between atoms: P_5  and  O_6 
REMARK    7  A    between atoms: P_5  and  O_7 
ROOT
HETATM    1  O   UNK N   1      35.370  17.402   9.574  0.00  0.00    -0.294 OA
ENDROOT
BRANCH   1   2
HETATM    2  C   UNK N   1      34.779  16.302  10.206  0.00  0.00     0.219 C 
BRANCH   2   3
HETATM    3  C   UNK N   1      35.856  15.411  10.792  0.00  0.00     0.203 C 
BRANCH   3   4
HETATM    4  O   UNK N   1      37.063  16.109  10.834  0.00  0.00    -0.387 OA
HETATM    5  H   UNK N   1      37.094  17.022  11.156  0.00  0.00     0.210 HD
ENDBRANCH   3   4
BRANCH   3   6
HETATM    6  C   UNK N   1      35.460  14.994  12.165  0.00  0.00     0.264 C 
HETATM    7  O   UNK N   1      34.717  14.033  12.325  0.00  0.00    -0.304 OA
ENDBRANCH   3   6
ENDBRANCH   2   3
ENDBRANCH   1   2
BRANCH   1   8
HETATM    8  P   UNK N   1      34.186  17.958   8.425  0.00  0.00     0.390 P 
HETATM    9  O   UNK N   1      35.229  19.108   8.375  0.00  0.00    -0.632 OA
BRANCH   8  10
HETATM   10  O   UNK N   1      34.527  18.074   6.727  0.00  0.00    -0.307 OA
HETATM   11  H   UNK N   1      34.504  17.345   6.088  0.00  0.00     0.222 HD
ENDBRANCH   8  10
BRANCH   8  12
HETATM   12  O   UNK N   1      34.928  16.515   7.800  0.00  0.00    -0.307 OA
HETATM   13  H   UNK N   1      35.827  16.258   7.543  0.00  0.00     0.222 HD
ENDBRANCH   8  12
ENDBRANCH   1   8
TORSDOF 7
ENDMDL
MODEL 2
REMARK VINA RESULT:      -4.5      2.328      4.591
REMARK  7 active torsions:
REMARK  status: ('A' for Active; 'I' for Inactive)
REMARK    1  A    between atoms: C_2  and  O_1 
REMARK    2  A    between atoms: C_2  and  C_3 
REMARK    3  A    between atoms: C_2  and  C_9 
REMARK    4  A    between atoms: C_3  and  O_4 
REMARK    5  A    between atoms: O_4  and  P_5 
REMARK    6  A    between atoms: P_5  and  O_6 
REMARK    7  A    between atoms: P_5  and  O_7 
ROOT
HETATM    1  O   UNK N   1      34.929  16.462   8.932  0.00  0.00    -0.294 OA
ENDROOT
BRANCH   1   2
HETATM    2  C   UNK N   1      33.672  17.060   9.076  0.00  0.00     0.219 C 
BRANCH   2   3
HETATM    3  C   UNK N   1      33.560  18.243   8.137  0.00  0.00     0.203 C 
BRANCH   3   4
HETATM    4  O   UNK N   1      34.729  19.001   8.203  0.00  0.00    -0.387 OA
HETATM    5  H   UNK N   1      35.557  18.663   7.828  0.00  0.00     0.210 HD
ENDBRANCH   3   4
BRANCH   3   6
HETATM    6  C   UNK N   1      33.347  17.753   6.748  0.00  0.00     0.264 C 
HETATM    7  O   UNK N   1      34.261  17.800   5.932  0.00  0.00    -0.304 OA
ENDBRANCH   3   6
ENDBRANCH   2   3
ENDBRANCH   1   2
BRANCH   1   8
HETATM    8  P   UNK N   1      35.333  15.860  10.514  0.00  0.00     0.390 P 
HETATM    9  O   UNK N   1      36.172  14.922   9.605  0.00  0.00    -0.632 OA
BRANCH   8  10
HETATM   10  O   UNK N   1      36.925  16.020  11.187  0.00  0.00    -0.307 OA
HETATM   11  H   UNK N   1      37.748  16.135  10.688  0.00  0.00     0.222 HD
ENDBRANCH   8  10
BRANCH   8  12
HETATM   12  O   UNK N   1      35.955  17.477  10.361  0.00  0.00    -0.307 OA
HETATM   13  H   UNK N   1      36.084  18.226  10.963  0.00  0.00     0.222 HD
ENDBRANCH   8  12
ENDBRANCH   1   8
TORSDOF 7
ENDMDL
MODEL 3
REMARK VINA RESULT:      -4.4      2.468      4.289
REMARK  7 active torsions:
REMARK  status: ('A' for Active; 'I' for Inactive)
REMARK    1  A    between atoms: C_2  and  O_1 
REMARK    2  A    between atoms: C_2  and  C_3 
REMARK    3  A    between atoms: C_2  and  C_9 
REMARK    4  A    between atoms: C_3  and  O_4 
REMARK    5  A    between atoms: O_4  and  P_5 
REMARK    6  A    between atoms: P_5  and  O_6 
REMARK    7  A    between atoms: P_5  and  O_7 
ROOT
HETATM    1  O   UNK N   1      34.048  15.678   9.938  0.00  0.00    -0.294 OA
ENDROOT
BRANCH   1   2
HETATM    2  C   UNK N   1      34.565  16.134   8.720  0.00  0.00     0.219 C 
BRANCH   2   3
HETATM    3  C   UNK N   1      33.686  17.243   8.177  0.00  0.00     0.203 C 
BRANCH   3   4
HETATM    4  O   UNK N   1      32.681  17.533   9.100  0.00  0.00    -0.387 OA
HETATM    5  H   UNK N   1      31.901  18.042   8.835  0.00  0.00     0.210 HD
ENDBRANCH   3   4
BRANCH   3   6
HETATM    6  C   UNK N   1      34.515  18.453   7.927  0.00  0.00     0.264 C 
HETATM    7  O   UNK N   1      35.264  18.876   8.800  0.00  0.00    -0.304 OA
ENDBRANCH   3   6
ENDBRANCH   2   3
ENDBRANCH   1   2
BRANCH   1   8
HETATM    8  P   UNK N   1      35.440  15.269  10.900  0.00  0.00     0.390 P 
HETATM    9  O   UNK N   1      35.980  15.039   9.463  0.00  0.00    -0.632 OA
BRANCH   8  10
HETATM   10  O   UNK N   1      36.886  16.229  10.891  0.00  0.00    -0.307 OA
HETATM   11  H   UNK N   1      37.794  15.896  10.972  0.00  0.00     0.222 HD
ENDBRANCH   8  10
BRANCH   8  12
HETATM   12  O   UNK N   1      35.109  16.965  11.099  0.00  0.00    -0.307 OA
HETATM   13  H   UNK N   1      34.316  17.497  11.264  0.00  0.00     0.222 HD
ENDBRANCH   8  12
ENDBRANCH   1   8
TORSDOF 7
ENDMDL
MODEL 4
REMARK VINA RESULT:      -4.3     16.050     17.258
REMARK  7 active torsions:
REMARK  status: ('A' for Active; 'I' for Inactive)
REMARK    1  A    between atoms: C_2  and  O_1 
REMARK    2  A    between atoms: C_2  and  C_3 
REMARK    3  A    between atoms: C_2  and  C_9 
REMARK    4  A    between atoms: C_3  and  O_4 
REMARK    5  A    between atoms: O_4  and  P_5 
REMARK    6  A    between atoms: P_5  and  O_6 
REMARK    7  A    between atoms: P_5  and  O_7 
ROOT
HETATM    1  O   UNK N   1      19.756  18.794   2.572  0.00  0.00    -0.294 OA
ENDROOT
BRANCH   1   2
HETATM    2  C   UNK N   1      20.788  19.540   3.154  0.00  0.00     0.219 C 
BRANCH   2   3
HETATM    3  C   UNK N   1      20.828  20.922   2.534  0.00  0.00     0.203 C 
BRANCH   3   4
HETATM    4  O   UNK N   1      22.069  21.508   2.787  0.00  0.00    -0.387 OA
HETATM    5  H   UNK N   1      22.701  21.085   3.388  0.00  0.00     0.210 HD
ENDBRANCH   3   4
BRANCH   3   6
HETATM    6  C   UNK N   1      20.606  20.813   1.067  0.00  0.00     0.264 C 
HETATM    7  O   UNK N   1      21.560  20.796   0.299  0.00  0.00    -0.304 OA
ENDBRANCH   3   6
ENDBRANCH   2   3
ENDBRANCH   1   2
BRANCH   1   8
HETATM    8  P   UNK N   1      20.379  17.174   2.447  0.00  0.00     0.390 P 
HETATM    9  O   UNK N   1      19.602  17.102   3.789  0.00  0.00    -0.632 OA
BRANCH   8  10
HETATM   10  O   UNK N   1      19.346  15.800   2.203  0.00  0.00    -0.307 OA
HETATM   11  H   UNK N   1      19.568  14.876   2.395  0.00  0.00     0.222 HD
ENDBRANCH   8  10
BRANCH   8  12
HETATM   12  O   UNK N   1      19.236  17.428   1.162  0.00  0.00    -0.307 OA
HETATM   13  H   UNK N   1      18.512  18.051   0.996  0.00  0.00     0.222 HD
ENDBRANCH   8  12
ENDBRANCH   1   8
TORSDOF 7
ENDMDL
MODEL 5
REMARK VINA RESULT:      -4.3     15.973     16.943
REMARK  7 active torsions:
REMARK  status: ('A' for Active; 'I' for Inactive)
REMARK    1  A    between atoms: C_2  and  O_1 
REMARK    2  A    between atoms: C_2  and  C_3 
REMARK    3  A    between atoms: C_2  and  C_9 
REMARK    4  A    between atoms: C_3  and  O_4 
REMARK    5  A    between atoms: O_4  and  P_5 
REMARK    6  A    between atoms: P_5  and  O_6 
REMARK    7  A    between atoms: P_5  and  O_7 
ROOT
HETATM    1  O   UNK N   1      20.998  18.662   2.137  0.00  0.00    -0.294 OA
ENDROOT
BRANCH   1   2
HETATM    2  C   UNK N   1      19.876  17.831   2.234  0.00  0.00     0.219 C 
BRANCH   2   3
HETATM    3  C   UNK N   1      19.716  17.040   0.951  0.00  0.00     0.203 C 
BRANCH   3   4
HETATM    4  O   UNK N   1      20.371  17.701  -0.087  0.00  0.00    -0.387 OA
HETATM    5  H   UNK N   1      21.005  18.410   0.102  0.00  0.00     0.210 HD
ENDBRANCH   3   4
BRANCH   3   6
HETATM    6  C   UNK N   1      20.293  15.680   1.134  0.00  0.00     0.264 C 
HETATM    7  O   UNK N   1      21.382  15.404   0.647  0.00  0.00    -0.304 OA
ENDBRANCH   3   6
ENDBRANCH   2   3
ENDBRANCH   1   2
BRANCH   1   8
HETATM    8  P   UNK N   1      20.558  20.122   2.976  0.00  0.00     0.390 P 
HETATM    9  O   UNK N   1      22.032  19.939   3.428  0.00  0.00    -0.632 OA
BRANCH   8  10
HETATM   10  O   UNK N   1      21.258  21.662   2.586  0.00  0.00    -0.307 OA
HETATM   11  H   UNK N   1      22.059  22.042   2.979  0.00  0.00     0.222 HD
ENDBRANCH   8  10
BRANCH   8  12
HETATM   12  O   UNK N   1      20.542  20.441   1.267  0.00  0.00    -0.307 OA
HETATM   13  H   UNK N   1      20.652  21.227   0.711  0.00  0.00     0.222 HD
ENDBRANCH   8  12
ENDBRANCH   1   8
TORSDOF 7
ENDMDL
MODEL 6
REMARK VINA RESULT:      -4.3     13.040     14.844
REMARK  7 active torsions:
REMARK  status: ('A' for Active; 'I' for Inactive)
REMARK    1  A    between atoms: C_2  and  O_1 
REMARK    2  A    between atoms: C_2  and  C_3 
REMARK    3  A    between atoms: C_2  and  C_9 
REMARK    4  A    between atoms: C_3  and  O_4 
REMARK    5  A    between atoms: O_4  and  P_5 
REMARK    6  A    between atoms: P_5  and  O_6 
REMARK    7  A    between atoms: P_5  and  O_7 
ROOT
HETATM    1  O   UNK N   1      23.671  20.593   3.580  0.00  0.00    -0.294 OA
ENDROOT
BRANCH   1   2
HETATM    2  C   UNK N   1      22.621  19.759   3.178  0.00  0.00     0.219 C 
BRANCH   2   3
HETATM    3  C   UNK N   1      21.460  20.601   2.690  0.00  0.00     0.203 C 
BRANCH   3   4
HETATM    4  O   UNK N   1      21.854  21.937   2.616  0.00  0.00    -0.387 OA
HETATM    5  H   UNK N   1      22.763  22.170   2.374  0.00  0.00     0.210 HD
ENDBRANCH   3   4
BRANCH   3   6
HETATM    6  C   UNK N   1      21.030  20.120   1.349  0.00  0.00     0.264 C 
HETATM    7  O   UNK N   1      21.318  20.761   0.345  0.00  0.00    -0.304 OA
ENDBRANCH   3   6
ENDBRANCH   2   3
ENDBRANCH   1   2
BRANCH   1   8
HETATM    8  P   UNK N   1      25.124  19.752   3.121  0.00  0.00     0.390 P 
HETATM    9  O   UNK N   1      25.009  20.808   1.990  0.00  0.00    -0.632 OA
BRANCH   8  10
HETATM   10  O   UNK N   1      26.685  20.509   3.163  0.00  0.00    -0.307 OA
HETATM   11  H   UNK N   1      27.386  20.339   3.811  0.00  0.00     0.222 HD
ENDBRANCH   8  10
BRANCH   8  12
HETATM   12  O   UNK N   1      25.415  20.581   4.622  0.00  0.00    -0.307 OA
HETATM   13  H   UNK N   1      26.188  20.981   5.049  0.00  0.00     0.222 HD
ENDBRANCH   8  12
ENDBRANCH   1   8
TORSDOF 7
ENDMDL
MODEL 7
REMARK VINA RESULT:      -4.3     12.861     13.487
REMARK  7 active torsions:
REMARK  status: ('A' for Active; 'I' for Inactive)
REMARK    1  A    between atoms: C_2  and  O_1 
REMARK    2  A    between atoms: C_2  and  C_3 
REMARK    3  A    between atoms: C_2  and  C_9 
REMARK    4  A    between atoms: C_3  and  O_4 
REMARK    5  A    between atoms: O_4  and  P_5 
REMARK    6  A    between atoms: P_5  and  O_6 
REMARK    7  A    between atoms: P_5  and  O_7 
ROOT
HETATM    1  O   UNK N   1      22.323  12.182   9.554  0.00  0.00    -0.294 OA
ENDROOT
BRANCH   1   2
HETATM    2  C   UNK N   1      22.629  12.792  10.776  0.00  0.00     0.219 C 
BRANCH   2   3
HETATM    3  C   UNK N   1      23.564  11.901  11.569  0.00  0.00     0.203 C 
BRANCH   3   4
HETATM    4  O   UNK N   1      24.857  12.420  11.516  0.00  0.00    -0.387 OA
HETATM    5  H   UNK N   1      25.019  13.360  11.691  0.00  0.00     0.210 HD
ENDBRANCH   3   4
BRANCH   3   6
HETATM    6  C   UNK N   1      23.100  11.832  12.982  0.00  0.00     0.264 C 
HETATM    7  O   UNK N   1      23.825  12.226  13.887  0.00  0.00    -0.304 OA
ENDBRANCH   3   6
ENDBRANCH   2   3
ENDBRANCH   1   2
BRANCH   1   8
HETATM    8  P   UNK N   1      21.827  13.482   8.508  0.00  0.00     0.390 P 
HETATM    9  O   UNK N   1      21.070  12.278   7.884  0.00  0.00    -0.632 OA
BRANCH   8  10
HETATM   10  O   UNK N   1      20.190  14.059   8.460  0.00  0.00    -0.307 OA
HETATM   11  H   UNK N   1      19.396  13.547   8.679  0.00  0.00     0.222 HD
ENDBRANCH   8  10
BRANCH   8  12
HETATM   12  O   UNK N   1      21.183  13.774  10.097  0.00  0.00    -0.307 OA
HETATM   13  H   UNK N   1      21.493  13.628  11.003  0.00  0.00     0.222 HD
ENDBRANCH   8  12
ENDBRANCH   1   8
TORSDOF 7
ENDMDL
MODEL 8
REMARK VINA RESULT:      -4.2     16.142     16.787
REMARK  7 active torsions:
REMARK  status: ('A' for Active; 'I' for Inactive)
REMARK    1  A    between atoms: C_2  and  O_1 
REMARK    2  A    between atoms: C_2  and  C_3 
REMARK    3  A    between atoms: C_2  and  C_9 
REMARK    4  A    between atoms: C_3  and  O_4 
REMARK    5  A    between atoms: O_4  and  P_5 
REMARK    6  A    between atoms: P_5  and  O_6 
REMARK    7  A    between atoms: P_5  and  O_7 
ROOT
HETATM    1  O   UNK N   1      21.171  19.117   2.349  0.00  0.00    -0.294 OA
ENDROOT
BRANCH   1   2
HETATM    2  C   UNK N   1      20.082  18.765   3.155  0.00  0.00     0.219 C 
BRANCH   2   3
HETATM    3  C   UNK N   1      20.194  17.309   3.557  0.00  0.00     0.203 C 
BRANCH   3   4
HETATM    4  O   UNK N   1      18.939  16.834   3.937  0.00  0.00    -0.387 OA
HETATM    5  H   UNK N   1      18.350  16.423   3.287  0.00  0.00     0.210 HD
ENDBRANCH   3   4
BRANCH   3   6
HETATM    6  C   UNK N   1      20.712  16.518   2.408  0.00  0.00     0.264 C 
HETATM    7  O   UNK N   1      19.985  16.271   1.454  0.00  0.00    -0.304 OA
ENDBRANCH   3   6
ENDBRANCH   2   3
ENDBRANCH   1   2
BRANCH   1   8
HETATM    8  P   UNK N   1      20.692  20.588   1.551  0.00  0.00     0.390 P 
HETATM    9  O   UNK N   1      22.220  20.811   1.719  0.00  0.00    -0.632 OA
BRANCH   8  10
HETATM   10  O   UNK N   1      21.190  20.968  -0.067  0.00  0.00    -0.307 OA
HETATM   11  H   UNK N   1      21.955  21.509  -0.318  0.00  0.00     0.222 HD
ENDBRANCH   8  10
BRANCH   8  12
HETATM   12  O   UNK N   1      20.447  19.260   0.456  0.00  0.00    -0.307 OA
HETATM   13  H   UNK N   1      19.869  19.091  -0.304  0.00  0.00     0.222 HD
ENDBRANCH   8  12
ENDBRANCH   1   8
TORSDOF 7
ENDMDL
MODEL 9
REMARK VINA RESULT:      -4.0      3.077      5.684
REMARK  7 active torsions:
REMARK  status: ('A' for Active; 'I' for Inactive)
REMARK    1  A    between atoms: C_2  and  O_1 
REMARK    2  A    between atoms: C_2  and  C_3 
REMARK    3  A    between atoms: C_2  and  C_9 
REMARK    4  A    between atoms: C_3  and  O_4 
REMARK    5  A    between atoms: O_4  and  P_5 
REMARK    6  A    between atoms: P_5  and  O_6 
REMARK    7  A    between atoms: P_5  and  O_7 
ROOT
HETATM    1  O   UNK N   1      35.034  13.923  12.746  0.00  0.00    -0.294 OA
ENDROOT
BRANCH   1   2
HETATM    2  C   UNK N   1      35.514  14.915  11.884  0.00  0.00     0.219 C 
BRANCH   2   3
HETATM    3  C   UNK N   1      34.577  15.061  10.702  0.00  0.00     0.203 C 
BRANCH   3   4
HETATM    4  O   UNK N   1      33.256  15.005  11.148  0.00  0.00    -0.387 OA
HETATM    5  H   UNK N   1      33.054  15.026  12.095  0.00  0.00     0.210 HD
ENDBRANCH   3   4
BRANCH   3   6
HETATM    6  C   UNK N   1      34.833  16.363  10.027  0.00  0.00     0.264 C 
HETATM    7  O   UNK N   1      35.210  17.329  10.677  0.00  0.00    -0.304 OA
ENDBRANCH   3   6
ENDBRANCH   2   3
ENDBRANCH   1   2
BRANCH   1   8
HETATM    8  P   UNK N   1      36.174  13.868  14.059  0.00  0.00     0.390 P 
HETATM    9  O   UNK N   1      35.400  12.538  14.268  0.00  0.00    -0.632 OA
BRANCH   8  10
HETATM   10  O   UNK N   1      37.456  12.699  14.124  0.00  0.00    -0.307 OA
HETATM   11  H   UNK N   1      38.075  12.569  14.860  0.00  0.00     0.222 HD
ENDBRANCH   8  10
BRANCH   8  12
HETATM   12  O   UNK N   1      37.051  13.765  12.561  0.00  0.00    -0.307 OA
HETATM   13  H   UNK N   1      36.943  13.275  11.732  0.00  0.00     0.222 HD
ENDBRANCH   8  12
ENDBRANCH   1   8
TORSDOF 7
ENDMDL
