REMARK  1 active torsions:
REMARK  status: ('A' for Active; 'I' for Inactive)
REMARK    1  A    between atoms: O_1  and  C_2 
ROOT
HETATM    1  C   UNK N   1       1.717   1.088  -0.000  0.00  0.00     0.100 A 
HETATM    2  C   UNK N   1       1.844  -0.312  -0.000  0.00  0.00     0.046 A 
HETATM    3 Br   UNK N   1       3.558  -1.157  -0.000  0.00  0.00    -0.048 Br
HETATM    4  C   UNK N   1       0.700  -1.115  -0.000  0.00  0.00     0.041 A 
HETATM    5  C   UNK N   1      -0.568  -0.530   0.000  0.00  0.00     0.013 A 
HETATM    6 Br   UNK N   1      -2.122  -1.630   0.000  0.00  0.00    -0.051 Br
HETATM    7  C   UNK N   1      -0.698   0.859   0.000  0.00  0.00     0.041 A 
HETATM    8  C   UNK N   1       0.439   1.672   0.000  0.00  0.00     0.046 A 
HETATM    9 Br   UNK N   1       0.210   3.569   0.000  0.00  0.00    -0.048 Br
ENDROOT
BRANCH   1  10
HETATM   10  O   UNK N   1       2.816   1.866  -0.000  0.00  0.00    -0.358 OA
HETATM   11  H   UNK N   1       3.667   1.474  -0.000  0.00  0.00     0.217 HD
ENDBRANCH   1  10
TORSDOF 1
