REMARK  6 active torsions:
REMARK  status: ('A' for Active; 'I' for Inactive)
REMARK    1  A    between atoms: C_6  and  C_3 
REMARK    2  A    between atoms: S_21  and  C_3 
REMARK    3  A    between atoms: C_8  and  C_5 
REMARK    4  A    between atoms: C_10  and  O_19 
REMARK    5  A    between atoms: C_11  and  O_20 
REMARK    6  A    between atoms: N_13  and  C_12 
ROOT
HETATM    1  C   UNK N   1       0.979  -0.347  -0.429  0.00  0.00     0.100 A 
HETATM    2  C   UNK N   1       5.310   0.468   0.495  0.00  0.00     0.178 A 
HETATM    3  C   UNK N   1       1.684   0.709   0.144  0.00  0.00     0.011 A 
HETATM    4  C   UNK N   1       3.010   0.343   0.087  0.00  0.00     0.069 A 
HETATM    5  C   UNK N   1       3.077  -0.873  -0.507  0.00  0.00     0.079 A 
HETATM    6  C   UNK N   1       4.371  -1.618  -0.638  0.00  0.00     0.229 A 
HETATM    7  N   UNK N   1       1.849  -1.305  -0.846  0.00  0.00    -0.364 N 
HETATM    8  N   UNK N   1       4.141   1.012   0.600  0.00  0.00    -0.350 N 
ATOM      9  HN  UNK N   1       4.038   1.921   1.052  1.00  0.00     0.166 HD
HETATM   10  N   UNK N   1       5.476  -0.826  -0.106  0.00  0.00    -0.360 N 
HETATM   11  H   UNK N   1       1.625  -2.148  -1.304  0.00  0.00     0.165 HD
HETATM   12  H   UNK N   1       6.385  -1.199  -0.163  0.00  0.00     0.162 HD
ENDROOT
BRANCH   3  13
HETATM   13  C   UNK N   1       1.125   1.846   0.976  0.00  0.00     0.145 C 
HETATM   14  C   UNK N   1      -0.253   2.415   0.596  0.00  0.00     0.175 C 
HETATM   15  C   UNK N   1       0.105   3.561  -0.315  0.00  0.00     0.172 C 
HETATM   16  C   UNK N   1       1.284   4.138   0.471  0.00  0.00     0.118 C 
HETATM   17  N   UNK N   1       2.054   2.987   0.945  0.00  0.00    -0.403 N 
HETATM   18  H   UNK N   1       3.041   2.977   1.202  0.00  0.00     0.154 HD
BRANCH  14  19
HETATM   19  O   UNK N   1      -1.140   1.496   0.029  0.00  0.00    -0.391 OA
HETATM   20  H   UNK N   1      -2.000   1.710  -0.365  0.00  0.00     0.210 HD
ENDBRANCH  14  19
BRANCH  15  21
HETATM   21  O   UNK N   1       0.535   3.072  -1.554  0.00  0.00    -0.391 OA
HETATM   22  H   UNK N   1       0.390   2.645  -2.413  0.00  0.00     0.210 HD
ENDBRANCH  15  21
BRANCH  16  23
HETATM   23  C   UNK N   1       2.167   5.069  -0.354  0.00  0.00     0.100 C 
BRANCH  23  24
HETATM   24  S   UNK N   1       1.338   6.645  -0.718  0.00  0.00    -0.171 SA
HETATM   25  C   UNK N   1       2.755   7.596  -0.099  0.00  0.00     0.089 C 
ENDBRANCH  23  24
ENDBRANCH  16  23
ENDBRANCH   3  13
BRANCH   6  26
HETATM   26  N   UNK N   1       4.627  -1.937  -2.030  0.00  0.00    -0.406 N 
HETATM   27  H   UNK N   1       4.523  -2.205  -3.009  0.00  0.00     0.152 HD
HETATM   28  H   UNK N   1       5.635  -1.781  -2.030  0.00  0.00     0.152 HD
ENDBRANCH   6  26
TORSDOF 6
