MODEL 1
REMARK VINA RESULT:      -7.5      0.000      0.000
REMARK  18 active torsions:
REMARK  status: ('A' for Active; 'I' for Inactive)
REMARK    1  A    between atoms: C_5  and  C_3 
REMARK    2  A    between atoms: O_19  and  C_3 
REMARK    3  A    between atoms: C_6  and  C_4 
REMARK    4  A    between atoms: O_31  and  C_4 
REMARK    5  A    between atoms: O_20  and  C_7 
REMARK    6  A    between atoms: C_8  and  O_21 
REMARK    7  A    between atoms: C_9  and  O_22 
REMARK    8  A    between atoms: C_10  and  O_23 
REMARK    9  A    between atoms: C_11  and  O_24 
REMARK   10  A    between atoms: C_12  and  O_25 
REMARK   11  A    between atoms: C_13  and  N_18 
REMARK   12  A    between atoms: C_14  and  O_34 
REMARK   13  A    between atoms: P_36  and  O_27 
REMARK   14  A    between atoms: P_37  and  O_29 
REMARK   15  A    between atoms: P_36  and  O_31 
REMARK   16  A    between atoms: P_37  and  O_34 
REMARK   17  A    between atoms: P_36  and  O_35 
REMARK   18  A    between atoms: P_37  and  O_35 
ROOT
HETATM    1  O   UNK N   1      33.494  16.204   9.879  0.00  0.00    -0.631 OA
HETATM    2  P   UNK N   1      34.018  14.769   9.612  0.00  0.00     0.401 P 
ENDROOT
BRANCH   2   3
HETATM    3  O   UNK N   1      33.111  14.900  11.084  0.00  0.00    -0.307 OA
HETATM    4  H   UNK N   1      32.833  15.517  11.778  0.00  0.00     0.222 HD
ENDBRANCH   2   3
BRANCH   2   5
HETATM    5  O   UNK N   1      35.425  14.683  10.629  0.00  0.00    -0.294 OA
BRANCH   5   6
HETATM    6  C   UNK N   1      34.901  14.282  11.857  0.00  0.00     0.215 C 
BRANCH   6   7
HETATM    7  C   UNK N   1      35.929  14.044  12.935  0.00  0.00     0.180 C 
HETATM    8  C   UNK N   1      36.774  12.815  12.619  0.00  0.00     0.182 C 
HETATM    9  C   UNK N   1      37.086  12.371  14.017  0.00  0.00     0.198 C 
HETATM   10  C   UNK N   1      35.683  12.533  14.612  0.00  0.00     0.263 C 
HETATM   11  O   UNK N   1      35.212  13.768  14.120  0.00  0.00    -0.353 OA
BRANCH   8  12
HETATM   12  O   UNK N   1      37.909  13.108  11.860  0.00  0.00    -0.390 OA
HETATM   13  H   UNK N   1      38.842  12.991  12.098  0.00  0.00     0.210 HD
ENDBRANCH   8  12
BRANCH   9  14
HETATM   14  O   UNK N   1      37.555  11.056  14.064  0.00  0.00    -0.388 OA
HETATM   15  H   UNK N   1      38.136  10.509  13.512  0.00  0.00     0.210 HD
ENDBRANCH   9  14
BRANCH  10  16
HETATM   16  N   UNK N   1      35.528  12.512  16.083  0.00  0.00    -0.280 N 
HETATM   17  C   UNK N   1      35.375  13.736  16.672  0.00  0.00     0.103 A 
HETATM   18  C   UNK N   1      35.252  13.868  18.049  0.00  0.00     0.073 A 
HETATM   19  C   UNK N   1      35.281  12.727  18.832  0.00  0.00     0.144 A 
HETATM   20  N   UNK N   1      35.416  11.510  18.249  0.00  0.00    -0.289 N 
HETATM   21  C   UNK N   1      35.539  11.382  16.890  0.00  0.00     0.330 A 
ATOM     22  HN  UNK N   1      35.427  10.673  18.834  1.00  0.00     0.172 HD
HETATM   23  O   UNK N   1      35.655  10.266  16.416  0.00  0.00    -0.246 OA
BRANCH  19  24
HETATM   24  O   UNK N   1      35.174  12.826  20.166  0.00  0.00    -0.346 OA
HETATM   25  H   UNK N   1      34.478  13.327  20.547  0.00  0.00     0.219 HD
ENDBRANCH  19  24
ENDBRANCH  10  16
ENDBRANCH   6   7
ENDBRANCH   5   6
ENDBRANCH   2   5
BRANCH   2  26
HETATM   26  O   UNK N   1      34.717  15.914   8.440  0.00  0.00    -0.195 OA
BRANCH  26  27
HETATM   27  P   UNK N   1      33.594  16.761   7.354  0.00  0.00     0.404 P 
HETATM   28  O   UNK N   1      34.426  17.135   6.100  0.00  0.00    -0.631 OA
BRANCH  27  29
HETATM   29  O   UNK N   1      33.186  18.312   8.019  0.00  0.00    -0.307 OA
HETATM   30  H   UNK N   1      32.398  18.838   8.233  0.00  0.00     0.222 HD
ENDBRANCH  27  29
BRANCH  27  31
HETATM   31  O   UNK N   1      32.092  15.946   6.881  0.00  0.00    -0.263 OA
BRANCH  31  32
HETATM   32  C   UNK N   1      30.977  16.811   6.794  0.00  0.00     0.303 C 
HETATM   33  C   UNK N   1      30.590  16.980   5.297  0.00  0.00     0.205 C 
HETATM   34  C   UNK N   1      29.161  17.584   5.149  0.00  0.00     0.183 C 
HETATM   35  C   UNK N   1      28.782  18.321   6.434  0.00  0.00     0.180 C 
HETATM   36  C   UNK N   1      28.800  17.262   7.578  0.00  0.00     0.179 C 
HETATM   37  O   UNK N   1      29.854  16.303   7.480  0.00  0.00    -0.348 OA
BRANCH  33  38
HETATM   38  O   UNK N   1      31.548  17.786   4.675  0.00  0.00    -0.388 OA
HETATM   39  H   UNK N   1      32.368  17.789   4.156  0.00  0.00     0.210 HD
ENDBRANCH  33  38
BRANCH  34  40
HETATM   40  O   UNK N   1      29.073  18.415   4.028  0.00  0.00    -0.390 OA
HETATM   41  H   UNK N   1      29.446  19.301   3.895  0.00  0.00     0.210 HD
ENDBRANCH  34  40
BRANCH  35  42
HETATM   42  O   UNK N   1      27.514  18.900   6.335  0.00  0.00    -0.390 OA
HETATM   43  H   UNK N   1      26.819  18.461   5.818  0.00  0.00     0.210 HD
ENDBRANCH  35  42
BRANCH  36  44
HETATM   44  C   UNK N   1      28.816  17.942   8.943  0.00  0.00     0.198 C 
BRANCH  44  45
HETATM   45  O   UNK N   1      27.523  18.307   9.320  0.00  0.00    -0.398 OA
HETATM   46  H   UNK N   1      26.937  18.049  10.049  0.00  0.00     0.209 HD
ENDBRANCH  44  45
ENDBRANCH  36  44
ENDBRANCH  31  32
ENDBRANCH  27  31
ENDBRANCH  26  27
ENDBRANCH   2  26
TORSDOF 18
ENDMDL
MODEL 2
REMARK VINA RESULT:      -7.5      1.715      3.007
REMARK  18 active torsions:
REMARK  status: ('A' for Active; 'I' for Inactive)
REMARK    1  A    between atoms: C_5  and  C_3 
REMARK    2  A    between atoms: O_19  and  C_3 
REMARK    3  A    between atoms: C_6  and  C_4 
REMARK    4  A    between atoms: O_31  and  C_4 
REMARK    5  A    between atoms: O_20  and  C_7 
REMARK    6  A    between atoms: C_8  and  O_21 
REMARK    7  A    between atoms: C_9  and  O_22 
REMARK    8  A    between atoms: C_10  and  O_23 
REMARK    9  A    between atoms: C_11  and  O_24 
REMARK   10  A    between atoms: C_12  and  O_25 
REMARK   11  A    between atoms: C_13  and  N_18 
REMARK   12  A    between atoms: C_14  and  O_34 
REMARK   13  A    between atoms: P_36  and  O_27 
REMARK   14  A    between atoms: P_37  and  O_29 
REMARK   15  A    between atoms: P_36  and  O_31 
REMARK   16  A    between atoms: P_37  and  O_34 
REMARK   17  A    between atoms: P_36  and  O_35 
REMARK   18  A    between atoms: P_37  and  O_35 
ROOT
HETATM    1  O   UNK N   1      31.895  14.347   7.759  0.00  0.00    -0.631 OA
HETATM    2  P   UNK N   1      33.413  14.268   8.067  0.00  0.00     0.401 P 
ENDROOT
BRANCH   2   3
HETATM    3  O   UNK N   1      32.450  13.292   9.129  0.00  0.00    -0.307 OA
HETATM    4  H   UNK N   1      31.992  13.286   9.984  0.00  0.00     0.222 HD
ENDBRANCH   2   3
BRANCH   2   5
HETATM    5  O   UNK N   1      33.583  15.352   9.416  0.00  0.00    -0.294 OA
BRANCH   5   6
HETATM    6  C   UNK N   1      33.514  14.498  10.516  0.00  0.00     0.215 C 
BRANCH   6   7
HETATM    7  C   UNK N   1      34.645  14.648  11.503  0.00  0.00     0.180 C 
HETATM    8  C   UNK N   1      35.995  14.498  10.808  0.00  0.00     0.182 C 
HETATM    9  C   UNK N   1      36.788  13.926  11.945  0.00  0.00     0.198 C 
HETATM   10  C   UNK N   1      35.759  12.899  12.430  0.00  0.00     0.263 C 
HETATM   11  O   UNK N   1      34.524  13.580  12.418  0.00  0.00    -0.353 OA
BRANCH   8  12
HETATM   12  O   UNK N   1      36.503  15.706  10.327  0.00  0.00    -0.390 OA
HETATM   13  H   UNK N   1      37.293  16.188  10.617  0.00  0.00     0.210 HD
ENDBRANCH   8  12
BRANCH   9  14
HETATM   14  O   UNK N   1      37.985  13.345  11.517  0.00  0.00    -0.388 OA
HETATM   15  H   UNK N   1      38.657  12.772  11.918  0.00  0.00     0.210 HD
ENDBRANCH   9  14
BRANCH  10  16
HETATM   16  N   UNK N   1      35.949  12.274  13.757  0.00  0.00    -0.280 N 
HETATM   17  C   UNK N   1      35.135  12.747  14.748  0.00  0.00     0.103 A 
HETATM   18  C   UNK N   1      35.228  12.273  16.050  0.00  0.00     0.073 A 
HETATM   19  C   UNK N   1      36.165  11.296  16.338  0.00  0.00     0.144 A 
HETATM   20  N   UNK N   1      36.963  10.813  15.352  0.00  0.00    -0.289 N 
HETATM   21  C   UNK N   1      36.872  11.283  14.069  0.00  0.00     0.330 A 
ATOM     22  HN  UNK N   1      37.645  10.086  15.572  1.00  0.00     0.172 HD
HETATM   23  O   UNK N   1      37.608  10.815  13.220  0.00  0.00    -0.246 OA
BRANCH  19  24
HETATM   24  O   UNK N   1      36.283  10.827  17.590  0.00  0.00    -0.346 OA
HETATM   25  H   UNK N   1      36.713  11.340  18.246  0.00  0.00     0.219 HD
ENDBRANCH  19  24
ENDBRANCH  10  16
ENDBRANCH   6   7
ENDBRANCH   5   6
ENDBRANCH   2   5
BRANCH   2  26
HETATM   26  O   UNK N   1      33.090  15.538   6.860  0.00  0.00    -0.195 OA
BRANCH  26  27
HETATM   27  P   UNK N   1      33.377  17.222   7.348  0.00  0.00     0.404 P 
HETATM   28  O   UNK N   1      33.660  17.996   6.035  0.00  0.00    -0.631 OA
BRANCH  27  29
HETATM   29  O   UNK N   1      34.886  17.343   8.197  0.00  0.00    -0.307 OA
HETATM   30  H   UNK N   1      35.261  17.790   8.973  0.00  0.00     0.222 HD
ENDBRANCH  27  29
BRANCH  27  31
HETATM   31  O   UNK N   1      32.134  18.054   8.301  0.00  0.00    -0.263 OA
BRANCH  31  32
HETATM   32  C   UNK N   1      30.819  17.606   8.039  0.00  0.00     0.303 C 
HETATM   33  C   UNK N   1      29.820  18.482   8.848  0.00  0.00     0.205 C 
HETATM   34  C   UNK N   1      28.365  18.314   8.317  0.00  0.00     0.183 C 
HETATM   35  C   UNK N   1      28.246  16.989   7.562  0.00  0.00     0.180 C 
HETATM   36  C   UNK N   1      29.247  17.064   6.369  0.00  0.00     0.179 C 
HETATM   37  O   UNK N   1      30.483  17.711   6.673  0.00  0.00    -0.348 OA
BRANCH  33  38
HETATM   38  O   UNK N   1      29.911  18.134  10.199  0.00  0.00    -0.388 OA
HETATM   39  H   UNK N   1      29.790  17.422  10.846  0.00  0.00     0.210 HD
ENDBRANCH  33  38
BRANCH  34  40
HETATM   40  O   UNK N   1      27.431  18.407   9.353  0.00  0.00    -0.390 OA
HETATM   41  H   UNK N   1      26.871  17.713   9.733  0.00  0.00     0.210 HD
ENDBRANCH  34  40
BRANCH  35  42
HETATM   42  O   UNK N   1      26.947  16.787   7.088  0.00  0.00    -0.390 OA
HETATM   43  H   UNK N   1      26.729  15.976   6.602  0.00  0.00     0.210 HD
ENDBRANCH  35  42
BRANCH  36  44
HETATM   44  C   UNK N   1      29.493  15.678   5.783  0.00  0.00     0.198 C 
BRANCH  44  45
HETATM   45  O   UNK N   1      30.769  15.607   5.222  0.00  0.00    -0.398 OA
HETATM   46  H   UNK N   1      31.118  15.261   4.386  0.00  0.00     0.209 HD
ENDBRANCH  44  45
ENDBRANCH  36  44
ENDBRANCH  31  32
ENDBRANCH  27  31
ENDBRANCH  26  27
ENDBRANCH   2  26
TORSDOF 18
ENDMDL
MODEL 3
REMARK VINA RESULT:      -7.3      2.720      4.552
REMARK  18 active torsions:
REMARK  status: ('A' for Active; 'I' for Inactive)
REMARK    1  A    between atoms: C_5  and  C_3 
REMARK    2  A    between atoms: O_19  and  C_3 
REMARK    3  A    between atoms: C_6  and  C_4 
REMARK    4  A    between atoms: O_31  and  C_4 
REMARK    5  A    between atoms: O_20  and  C_7 
REMARK    6  A    between atoms: C_8  and  O_21 
REMARK    7  A    between atoms: C_9  and  O_22 
REMARK    8  A    between atoms: C_10  and  O_23 
REMARK    9  A    between atoms: C_11  and  O_24 
REMARK   10  A    between atoms: C_12  and  O_25 
REMARK   11  A    between atoms: C_13  and  N_18 
REMARK   12  A    between atoms: C_14  and  O_34 
REMARK   13  A    between atoms: P_36  and  O_27 
REMARK   14  A    between atoms: P_37  and  O_29 
REMARK   15  A    between atoms: P_36  and  O_31 
REMARK   16  A    between atoms: P_37  and  O_34 
REMARK   17  A    between atoms: P_36  and  O_35 
REMARK   18  A    between atoms: P_37  and  O_35 
ROOT
HETATM    1  O   UNK N   1      33.872  17.875   5.889  0.00  0.00    -0.631 OA
HETATM    2  P   UNK N   1      33.173  17.569   7.240  0.00  0.00     0.401 P 
ENDROOT
BRANCH   2   3
HETATM    3  O   UNK N   1      34.702  18.367   7.429  0.00  0.00    -0.307 OA
HETATM    4  H   UNK N   1      35.246  19.100   7.103  0.00  0.00     0.222 HD
ENDBRANCH   2   3
BRANCH   2   5
HETATM    5  O   UNK N   1      33.994  16.133   7.775  0.00  0.00    -0.294 OA
BRANCH   5   6
HETATM    6  C   UNK N   1      33.293  15.782   8.928  0.00  0.00     0.215 C 
BRANCH   6   7
HETATM    7  C   UNK N   1      34.122  15.762  10.189  0.00  0.00     0.180 C 
HETATM    8  C   UNK N   1      35.497  16.374   9.944  0.00  0.00     0.182 C 
HETATM    9  C   UNK N   1      36.292  15.587  10.944  0.00  0.00     0.198 C 
HETATM   10  C   UNK N   1      35.710  14.203  10.638  0.00  0.00     0.263 C 
HETATM   11  O   UNK N   1      34.320  14.404  10.517  0.00  0.00    -0.353 OA
BRANCH   8  12
HETATM   12  O   UNK N   1      35.532  17.752  10.165  0.00  0.00    -0.390 OA
HETATM   13  H   UNK N   1      34.949  18.438   9.804  0.00  0.00     0.210 HD
ENDBRANCH   8  12
BRANCH   9  14
HETATM   14  O   UNK N   1      37.667  15.670  10.711  0.00  0.00    -0.388 OA
HETATM   15  H   UNK N   1      38.299  16.389  10.552  0.00  0.00     0.210 HD
ENDBRANCH   9  14
BRANCH  10  16
HETATM   16  N   UNK N   1      35.955  13.102  11.594  0.00  0.00    -0.280 N 
HETATM   17  C   UNK N   1      34.878  12.735  12.353  0.00  0.00     0.103 A 
HETATM   18  C   UNK N   1      34.973  11.738  13.314  0.00  0.00     0.073 A 
HETATM   19  C   UNK N   1      36.190  11.104  13.497  0.00  0.00     0.144 A 
HETATM   20  N   UNK N   1      37.257  11.454  12.735  0.00  0.00    -0.289 N 
HETATM   21  C   UNK N   1      37.161  12.439  11.787  0.00  0.00     0.330 A 
ATOM     22  HN  UNK N   1      38.147  10.974  12.870  1.00  0.00     0.172 HD
HETATM   23  O   UNK N   1      38.147  12.714  11.128  0.00  0.00    -0.246 OA
BRANCH  19  24
HETATM   24  O   UNK N   1      36.313  10.144  14.426  0.00  0.00    -0.346 OA
HETATM   25  H   UNK N   1      37.162   9.897  14.739  0.00  0.00     0.219 HD
ENDBRANCH  19  24
ENDBRANCH  10  16
ENDBRANCH   6   7
ENDBRANCH   5   6
ENDBRANCH   2   5
BRANCH   2  26
HETATM   26  O   UNK N   1      32.303  16.785   5.898  0.00  0.00    -0.195 OA
BRANCH  26  27
HETATM   27  P   UNK N   1      30.759  15.992   6.278  0.00  0.00     0.404 P 
HETATM   28  O   UNK N   1      31.127  14.555   6.733  0.00  0.00    -0.631 OA
BRANCH  27  29
HETATM   29  O   UNK N   1      29.862  15.712   4.818  0.00  0.00    -0.307 OA
HETATM   30  H   UNK N   1      30.014  15.650   3.861  0.00  0.00     0.222 HD
ENDBRANCH  27  29
BRANCH  27  31
HETATM   31  O   UNK N   1      29.678  16.756   7.457  0.00  0.00    -0.263 OA
BRANCH  31  32
HETATM   32  C   UNK N   1      28.708  17.605   6.876  0.00  0.00     0.303 C 
HETATM   33  C   UNK N   1      28.316  18.701   7.907  0.00  0.00     0.205 C 
HETATM   34  C   UNK N   1      27.567  19.881   7.219  0.00  0.00     0.183 C 
HETATM   35  C   UNK N   1      26.965  19.403   5.898  0.00  0.00     0.180 C 
HETATM   36  C   UNK N   1      28.156  18.933   5.008  0.00  0.00     0.179 C 
HETATM   37  O   UNK N   1      29.190  18.250   5.717  0.00  0.00    -0.348 OA
BRANCH  33  38
HETATM   38  O   UNK N   1      27.533  18.116   8.907  0.00  0.00    -0.388 OA
HETATM   39  H   UNK N   1      27.539  17.533   9.683  0.00  0.00     0.210 HD
ENDBRANCH  33  38
BRANCH  34  40
HETATM   40  O   UNK N   1      26.597  20.429   8.064  0.00  0.00    -0.390 OA
HETATM   41  H   UNK N   1      26.372  21.361   8.211  0.00  0.00     0.210 HD
ENDBRANCH  34  40
BRANCH  35  42
HETATM   42  O   UNK N   1      26.262  20.427   5.258  0.00  0.00    -0.390 OA
HETATM   43  H   UNK N   1      26.605  21.335   5.273  0.00  0.00     0.210 HD
ENDBRANCH  35  42
BRANCH  36  44
HETATM   44  C   UNK N   1      27.657  18.092   3.838  0.00  0.00     0.198 C 
BRANCH  44  45
HETATM   45  O   UNK N   1      28.733  17.516   3.160  0.00  0.00    -0.398 OA
HETATM   46  H   UNK N   1      29.174  16.653   3.208  0.00  0.00     0.209 HD
ENDBRANCH  44  45
ENDBRANCH  36  44
ENDBRANCH  31  32
ENDBRANCH  27  31
ENDBRANCH  26  27
ENDBRANCH   2  26
TORSDOF 18
ENDMDL
MODEL 4
REMARK VINA RESULT:      -7.3      5.792      9.922
REMARK  18 active torsions:
REMARK  status: ('A' for Active; 'I' for Inactive)
REMARK    1  A    between atoms: C_5  and  C_3 
REMARK    2  A    between atoms: O_19  and  C_3 
REMARK    3  A    between atoms: C_6  and  C_4 
REMARK    4  A    between atoms: O_31  and  C_4 
REMARK    5  A    between atoms: O_20  and  C_7 
REMARK    6  A    between atoms: C_8  and  O_21 
REMARK    7  A    between atoms: C_9  and  O_22 
REMARK    8  A    between atoms: C_10  and  O_23 
REMARK    9  A    between atoms: C_11  and  O_24 
REMARK   10  A    between atoms: C_12  and  O_25 
REMARK   11  A    between atoms: C_13  and  N_18 
REMARK   12  A    between atoms: C_14  and  O_34 
REMARK   13  A    between atoms: P_36  and  O_27 
REMARK   14  A    between atoms: P_37  and  O_29 
REMARK   15  A    between atoms: P_36  and  O_31 
REMARK   16  A    between atoms: P_37  and  O_34 
REMARK   17  A    between atoms: P_36  and  O_35 
REMARK   18  A    between atoms: P_37  and  O_35 
ROOT
HETATM    1  O   UNK N   1      27.071  18.102   3.824  0.00  0.00    -0.631 OA
HETATM    2  P   UNK N   1      26.666  19.104   4.937  0.00  0.00     0.401 P 
ENDROOT
BRANCH   2   3
HETATM    3  O   UNK N   1      27.711  19.800   3.741  0.00  0.00    -0.307 OA
HETATM    4  H   UNK N   1      28.609  20.135   3.586  0.00  0.00     0.222 HD
ENDBRANCH   2   3
BRANCH   2   5
HETATM    5  O   UNK N   1      28.059  19.102   5.977  0.00  0.00    -0.294 OA
BRANCH   5   6
HETATM    6  C   UNK N   1      28.466  17.768   5.954  0.00  0.00     0.215 C 
BRANCH   6   7
HETATM    7  C   UNK N   1      28.889  17.214   7.291  0.00  0.00     0.180 C 
HETATM    8  C   UNK N   1      28.665  18.239   8.399  0.00  0.00     0.182 C 
HETATM    9  C   UNK N   1      29.772  17.835   9.327  0.00  0.00     0.198 C 
HETATM   10  C   UNK N   1      30.881  17.673   8.282  0.00  0.00     0.263 C 
HETATM   11  O   UNK N   1      30.279  16.983   7.208  0.00  0.00    -0.353 OA
BRANCH   8  12
HETATM   12  O   UNK N   1      27.397  18.156   8.976  0.00  0.00    -0.390 OA
HETATM   13  H   UNK N   1      27.106  18.474   9.845  0.00  0.00     0.210 HD
ENDBRANCH   8  12
BRANCH   9  14
HETATM   14  O   UNK N   1      30.053  18.820  10.278  0.00  0.00    -0.388 OA
HETATM   15  H   UNK N   1      30.785  19.005  10.886  0.00  0.00     0.210 HD
ENDBRANCH   9  14
BRANCH  10  16
HETATM   16  N   UNK N   1      32.124  16.971   8.666  0.00  0.00    -0.280 N 
HETATM   17  C   UNK N   1      31.967  15.665   9.041  0.00  0.00     0.103 A 
HETATM   18  C   UNK N   1      33.045  14.896   9.458  0.00  0.00     0.073 A 
HETATM   19  C   UNK N   1      34.303  15.472   9.486  0.00  0.00     0.144 A 
HETATM   20  N   UNK N   1      34.464  16.763   9.100  0.00  0.00    -0.289 N 
HETATM   21  C   UNK N   1      33.400  17.521   8.690  0.00  0.00     0.330 A 
ATOM     22  HN  UNK N   1      35.398  17.176   9.116  1.00  0.00     0.172 HD
HETATM   23  O   UNK N   1      33.598  18.673   8.351  0.00  0.00    -0.246 OA
BRANCH  19  24
HETATM   24  O   UNK N   1      35.360  14.754   9.895  0.00  0.00    -0.346 OA
HETATM   25  H   UNK N   1      36.207  15.153   9.953  0.00  0.00     0.219 HD
ENDBRANCH  19  24
ENDBRANCH  10  16
ENDBRANCH   6   7
ENDBRANCH   5   6
ENDBRANCH   2   5
BRANCH   2  26
HETATM   26  O   UNK N   1      26.128  17.459   5.357  0.00  0.00    -0.195 OA
BRANCH  26  27
HETATM   27  P   UNK N   1      24.460  17.013   4.939  0.00  0.00     0.404 P 
HETATM   28  O   UNK N   1      24.225  15.621   5.581  0.00  0.00    -0.631 OA
BRANCH  27  29
HETATM   29  O   UNK N   1      24.346  16.674   3.240  0.00  0.00    -0.307 OA
HETATM   30  H   UNK N   1      24.855  16.231   2.542  0.00  0.00     0.222 HD
ENDBRANCH  27  29
BRANCH  27  31
HETATM   31  O   UNK N   1      23.148  18.124   5.374  0.00  0.00    -0.263 OA
BRANCH  31  32
HETATM   32  C   UNK N   1      22.109  18.182   4.418  0.00  0.00     0.303 C 
HETATM   33  C   UNK N   1      21.069  17.072   4.738  0.00  0.00     0.205 C 
HETATM   34  C   UNK N   1      19.727  17.322   3.987  0.00  0.00     0.183 C 
HETATM   35  C   UNK N   1      19.979  18.223   2.778  0.00  0.00     0.180 C 
HETATM   36  C   UNK N   1      20.540  19.568   3.333  0.00  0.00     0.179 C 
HETATM   37  O   UNK N   1      21.439  19.424   4.433  0.00  0.00    -0.348 OA
BRANCH  33  38
HETATM   38  O   UNK N   1      21.617  15.831   4.399  0.00  0.00    -0.388 OA
HETATM   39  H   UNK N   1      21.711  15.169   3.696  0.00  0.00     0.210 HD
ENDBRANCH  33  38
BRANCH  34  40
HETATM   40  O   UNK N   1      19.118  16.118   3.619  0.00  0.00    -0.390 OA
HETATM   41  H   UNK N   1      19.525  15.254   3.454  0.00  0.00     0.210 HD
ENDBRANCH  34  40
BRANCH  35  42
HETATM   42  O   UNK N   1      18.802  18.454   2.060  0.00  0.00    -0.390 OA
HETATM   43  H   UNK N   1      18.491  19.362   1.917  0.00  0.00     0.210 HD
ENDBRANCH  35  42
BRANCH  36  44
HETATM   44  C   UNK N   1      21.180  20.388   2.218  0.00  0.00     0.198 C 
BRANCH  44  45
HETATM   45  O   UNK N   1      21.592  21.630   2.703  0.00  0.00    -0.398 OA
HETATM   46  H   UNK N   1      22.439  22.103   2.705  0.00  0.00     0.209 HD
ENDBRANCH  44  45
ENDBRANCH  36  44
ENDBRANCH  31  32
ENDBRANCH  27  31
ENDBRANCH  26  27
ENDBRANCH   2  26
TORSDOF 18
ENDMDL
MODEL 5
REMARK VINA RESULT:      -7.3      1.620      2.393
REMARK  18 active torsions:
REMARK  status: ('A' for Active; 'I' for Inactive)
REMARK    1  A    between atoms: C_5  and  C_3 
REMARK    2  A    between atoms: O_19  and  C_3 
REMARK    3  A    between atoms: C_6  and  C_4 
REMARK    4  A    between atoms: O_31  and  C_4 
REMARK    5  A    between atoms: O_20  and  C_7 
REMARK    6  A    between atoms: C_8  and  O_21 
REMARK    7  A    between atoms: C_9  and  O_22 
REMARK    8  A    between atoms: C_10  and  O_23 
REMARK    9  A    between atoms: C_11  and  O_24 
REMARK   10  A    between atoms: C_12  and  O_25 
REMARK   11  A    between atoms: C_13  and  N_18 
REMARK   12  A    between atoms: C_14  and  O_34 
REMARK   13  A    between atoms: P_36  and  O_27 
REMARK   14  A    between atoms: P_37  and  O_29 
REMARK   15  A    between atoms: P_36  and  O_31 
REMARK   16  A    between atoms: P_37  and  O_34 
REMARK   17  A    between atoms: P_36  and  O_35 
REMARK   18  A    between atoms: P_37  and  O_35 
ROOT
HETATM    1  O   UNK N   1      34.898  16.728   7.102  0.00  0.00    -0.631 OA
HETATM    2  P   UNK N   1      33.843  16.416   8.196  0.00  0.00     0.401 P 
ENDROOT
BRANCH   2   3
HETATM    3  O   UNK N   1      35.200  17.315   8.795  0.00  0.00    -0.307 OA
HETATM    4  H   UNK N   1      35.968  17.271   9.385  0.00  0.00     0.222 HD
ENDBRANCH   2   3
BRANCH   2   5
HETATM    5  O   UNK N   1      34.541  15.051   9.017  0.00  0.00    -0.294 OA
BRANCH   5   6
HETATM    6  C   UNK N   1      33.893  15.064  10.252  0.00  0.00     0.215 C 
BRANCH   6   7
HETATM    7  C   UNK N   1      34.814  15.045  11.447  0.00  0.00     0.180 C 
HETATM    8  C   UNK N   1      36.226  14.640  11.039  0.00  0.00     0.182 C 
HETATM    9  C   UNK N   1      36.662  13.975  12.311  0.00  0.00     0.198 C 
HETATM   10  C   UNK N   1      35.392  13.161  12.575  0.00  0.00     0.263 C 
HETATM   11  O   UNK N   1      34.324  14.046  12.315  0.00  0.00    -0.353 OA
BRANCH   8  12
HETATM   12  O   UNK N   1      37.026  15.724  10.674  0.00  0.00    -0.390 OA
HETATM   13  H   UNK N   1      36.784  16.504  10.150  0.00  0.00     0.210 HD
ENDBRANCH   8  12
BRANCH   9  14
HETATM   14  O   UNK N   1      37.798  13.181  12.131  0.00  0.00    -0.388 OA
HETATM   15  H   UNK N   1      38.121  12.344  12.499  0.00  0.00     0.210 HD
ENDBRANCH   9  14
BRANCH  10  16
HETATM   16  N   UNK N   1      35.199  12.556  13.910  0.00  0.00    -0.280 N 
HETATM   17  C   UNK N   1      35.734  13.259  14.954  0.00  0.00     0.103 A 
HETATM   18  C   UNK N   1      35.657  12.791  16.259  0.00  0.00     0.073 A 
HETATM   19  C   UNK N   1      35.016  11.587  16.498  0.00  0.00     0.144 A 
HETATM   20  N   UNK N   1      34.470  10.895  15.466  0.00  0.00    -0.289 N 
HETATM   21  C   UNK N   1      34.549  11.358  14.179  0.00  0.00     0.330 A 
ATOM     22  HN  UNK N   1      33.991  10.013  15.653  1.00  0.00     0.172 HD
HETATM   23  O   UNK N   1      34.039  10.701  13.289  0.00  0.00    -0.246 OA
BRANCH  19  24
HETATM   24  O   UNK N   1      34.936  11.107  17.748  0.00  0.00    -0.346 OA
HETATM   25  H   UNK N   1      34.785  10.193  17.893  0.00  0.00     0.219 HD
ENDBRANCH  19  24
ENDBRANCH  10  16
ENDBRANCH   6   7
ENDBRANCH   5   6
ENDBRANCH   2   5
BRANCH   2  26
HETATM   26  O   UNK N   1      33.459  15.540   6.693  0.00  0.00    -0.195 OA
BRANCH  26  27
HETATM   27  P   UNK N   1      32.773  16.481   5.351  0.00  0.00     0.404 P 
HETATM   28  O   UNK N   1      33.574  16.060   4.092  0.00  0.00    -0.631 OA
BRANCH  27  29
HETATM   29  O   UNK N   1      33.191  18.156   5.528  0.00  0.00    -0.307 OA
HETATM   30  H   UNK N   1      33.954  18.702   5.779  0.00  0.00     0.222 HD
ENDBRANCH  27  29
BRANCH  27  31
HETATM   31  O   UNK N   1      31.030  16.372   5.041  0.00  0.00    -0.263 OA
BRANCH  31  32
HETATM   32  C   UNK N   1      30.245  17.160   5.913  0.00  0.00     0.303 C 
HETATM   33  C   UNK N   1      28.813  17.290   5.321  0.00  0.00     0.205 C 
HETATM   34  C   UNK N   1      27.803  17.796   6.394  0.00  0.00     0.183 C 
HETATM   35  C   UNK N   1      28.561  18.518   7.509  0.00  0.00     0.180 C 
HETATM   36  C   UNK N   1      29.531  17.473   8.138  0.00  0.00     0.179 C 
HETATM   37  O   UNK N   1      30.135  16.585   7.197  0.00  0.00    -0.348 OA
BRANCH  33  38
HETATM   38  O   UNK N   1      28.860  18.152   4.221  0.00  0.00    -0.388 OA
HETATM   39  H   UNK N   1      28.973  18.207   3.259  0.00  0.00     0.210 HD
ENDBRANCH  33  38
BRANCH  34  40
HETATM   40  O   UNK N   1      26.819  18.610   5.823  0.00  0.00    -0.390 OA
HETATM   41  H   UNK N   1      26.924  19.360   5.218  0.00  0.00     0.210 HD
ENDBRANCH  34  40
BRANCH  35  42
HETATM   42  O   UNK N   1      27.687  19.010   8.483  0.00  0.00    -0.390 OA
HETATM   43  H   UNK N   1      27.468  19.956   8.505  0.00  0.00     0.210 HD
ENDBRANCH  35  42
BRANCH  36  44
HETATM   44  C   UNK N   1      30.594  18.165   8.985  0.00  0.00     0.198 C 
BRANCH  44  45
HETATM   45  O   UNK N   1      30.025  18.686  10.148  0.00  0.00    -0.398 OA
HETATM   46  H   UNK N   1      30.262  18.648  11.088  0.00  0.00     0.209 HD
ENDBRANCH  44  45
ENDBRANCH  36  44
ENDBRANCH  31  32
ENDBRANCH  27  31
ENDBRANCH  26  27
ENDBRANCH   2  26
TORSDOF 18
ENDMDL
MODEL 6
REMARK VINA RESULT:      -7.2      1.649      2.614
REMARK  18 active torsions:
REMARK  status: ('A' for Active; 'I' for Inactive)
REMARK    1  A    between atoms: C_5  and  C_3 
REMARK    2  A    between atoms: O_19  and  C_3 
REMARK    3  A    between atoms: C_6  and  C_4 
REMARK    4  A    between atoms: O_31  and  C_4 
REMARK    5  A    between atoms: O_20  and  C_7 
REMARK    6  A    between atoms: C_8  and  O_21 
REMARK    7  A    between atoms: C_9  and  O_22 
REMARK    8  A    between atoms: C_10  and  O_23 
REMARK    9  A    between atoms: C_11  and  O_24 
REMARK   10  A    between atoms: C_12  and  O_25 
REMARK   11  A    between atoms: C_13  and  N_18 
REMARK   12  A    between atoms: C_14  and  O_34 
REMARK   13  A    between atoms: P_36  and  O_27 
REMARK   14  A    between atoms: P_37  and  O_29 
REMARK   15  A    between atoms: P_36  and  O_31 
REMARK   16  A    between atoms: P_37  and  O_34 
REMARK   17  A    between atoms: P_36  and  O_35 
REMARK   18  A    between atoms: P_37  and  O_35 
ROOT
HETATM    1  O   UNK N   1      34.293  16.181  10.142  0.00  0.00    -0.631 OA
HETATM    2  P   UNK N   1      33.619  14.948   9.485  0.00  0.00     0.401 P 
ENDROOT
BRANCH   2   3
HETATM    3  O   UNK N   1      33.487  14.956  11.214  0.00  0.00    -0.307 OA
HETATM    4  H   UNK N   1      33.230  14.421  11.981  0.00  0.00     0.222 HD
ENDBRANCH   2   3
BRANCH   2   5
HETATM    5  O   UNK N   1      34.812  13.702   9.705  0.00  0.00    -0.294 OA
BRANCH   5   6
HETATM    6  C   UNK N   1      35.969  14.423   9.998  0.00  0.00     0.215 C 
BRANCH   6   7
HETATM    7  C   UNK N   1      36.757  13.901  11.173  0.00  0.00     0.180 C 
HETATM    8  C   UNK N   1      36.895  12.383  11.104  0.00  0.00     0.182 C 
HETATM    9  C   UNK N   1      36.959  12.080  12.571  0.00  0.00     0.198 C 
HETATM   10  C   UNK N   1      35.816  12.992  13.029  0.00  0.00     0.263 C 
HETATM   11  O   UNK N   1      36.003  14.201  12.328  0.00  0.00    -0.353 OA
BRANCH   8  12
HETATM   12  O   UNK N   1      38.025  11.965  10.398  0.00  0.00    -0.390 OA
HETATM   13  H   UNK N   1      38.950  11.952  10.691  0.00  0.00     0.210 HD
ENDBRANCH   8  12
BRANCH   9  14
HETATM   14  O   UNK N   1      36.729  10.730  12.844  0.00  0.00    -0.388 OA
HETATM   15  H   UNK N   1      36.543   9.939  12.313  0.00  0.00     0.210 HD
ENDBRANCH   9  14
BRANCH  10  16
HETATM   16  N   UNK N   1      35.678  13.290  14.471  0.00  0.00    -0.280 N 
HETATM   17  C   UNK N   1      36.619  14.138  14.986  0.00  0.00     0.103 A 
HETATM   18  C   UNK N   1      36.630  14.478  16.332  0.00  0.00     0.073 A 
HETATM   19  C   UNK N   1      35.658  13.945  17.161  0.00  0.00     0.144 A 
HETATM   20  N   UNK N   1      34.713  13.116  16.650  0.00  0.00    -0.289 N 
HETATM   21  C   UNK N   1      34.705  12.780  15.322  0.00  0.00     0.330 A 
ATOM     22  HN  UNK N   1      33.995  12.735  17.267  1.00  0.00     0.172 HD
HETATM   23  O   UNK N   1      33.834  12.035  14.912  0.00  0.00    -0.246 OA
BRANCH  19  24
HETATM   24  O   UNK N   1      35.651  14.249  18.468  0.00  0.00    -0.346 OA
HETATM   25  H   UNK N   1      35.429  13.596  19.102  0.00  0.00     0.219 HD
ENDBRANCH  19  24
ENDBRANCH  10  16
ENDBRANCH   6   7
ENDBRANCH   5   6
ENDBRANCH   2   5
BRANCH   2  26
HETATM   26  O   UNK N   1      34.545  15.868   8.274  0.00  0.00    -0.195 OA
BRANCH  26  27
HETATM   27  P   UNK N   1      34.156  17.592   8.084  0.00  0.00     0.404 P 
HETATM   28  O   UNK N   1      34.500  17.939   6.612  0.00  0.00    -0.631 OA
BRANCH  27  29
HETATM   29  O   UNK N   1      35.290  18.556   8.978  0.00  0.00    -0.307 OA
HETATM   30  H   UNK N   1      35.774  18.533   9.819  0.00  0.00     0.222 HD
ENDBRANCH  27  29
BRANCH  27  31
HETATM   31  O   UNK N   1      32.519  18.143   8.484  0.00  0.00    -0.263 OA
BRANCH  31  32
HETATM   32  C   UNK N   1      31.496  17.387   7.867  0.00  0.00     0.303 C 
HETATM   33  C   UNK N   1      30.117  17.940   8.326  0.00  0.00     0.205 C 
HETATM   34  C   UNK N   1      28.970  17.431   7.402  0.00  0.00     0.183 C 
HETATM   35  C   UNK N   1      29.418  16.156   6.687  0.00  0.00     0.180 C 
HETATM   36  C   UNK N   1      30.664  16.538   5.831  0.00  0.00     0.179 C 
HETATM   37  O   UNK N   1      31.551  17.465   6.460  0.00  0.00    -0.348 OA
BRANCH  33  38
HETATM   38  O   UNK N   1      29.903  17.565   9.655  0.00  0.00    -0.388 OA
HETATM   39  H   UNK N   1      29.373  17.011  10.250  0.00  0.00     0.210 HD
ENDBRANCH  33  38
BRANCH  34  40
HETATM   40  O   UNK N   1      27.787  17.235   8.122  0.00  0.00    -0.390 OA
HETATM   41  H   UNK N   1      27.016  16.693   7.892  0.00  0.00     0.210 HD
ENDBRANCH  34  40
BRANCH  35  42
HETATM   42  O   UNK N   1      28.407  15.651   5.864  0.00  0.00    -0.390 OA
HETATM   43  H   UNK N   1      28.549  14.828   5.370  0.00  0.00     0.210 HD
ENDBRANCH  35  42
BRANCH  36  44
HETATM   44  C   UNK N   1      31.416  15.290   5.385  0.00  0.00     0.198 C 
BRANCH  44  45
HETATM   45  O   UNK N   1      30.917  14.162   6.039  0.00  0.00    -0.398 OA
HETATM   46  H   UNK N   1      31.111  13.213   5.985  0.00  0.00     0.209 HD
ENDBRANCH  44  45
ENDBRANCH  36  44
ENDBRANCH  31  32
ENDBRANCH  27  31
ENDBRANCH  26  27
ENDBRANCH   2  26
TORSDOF 18
ENDMDL
MODEL 7
REMARK VINA RESULT:      -7.2      7.178     10.700
REMARK  18 active torsions:
REMARK  status: ('A' for Active; 'I' for Inactive)
REMARK    1  A    between atoms: C_5  and  C_3 
REMARK    2  A    between atoms: O_19  and  C_3 
REMARK    3  A    between atoms: C_6  and  C_4 
REMARK    4  A    between atoms: O_31  and  C_4 
REMARK    5  A    between atoms: O_20  and  C_7 
REMARK    6  A    between atoms: C_8  and  O_21 
REMARK    7  A    between atoms: C_9  and  O_22 
REMARK    8  A    between atoms: C_10  and  O_23 
REMARK    9  A    between atoms: C_11  and  O_24 
REMARK   10  A    between atoms: C_12  and  O_25 
REMARK   11  A    between atoms: C_13  and  N_18 
REMARK   12  A    between atoms: C_14  and  O_34 
REMARK   13  A    between atoms: P_36  and  O_27 
REMARK   14  A    between atoms: P_37  and  O_29 
REMARK   15  A    between atoms: P_36  and  O_31 
REMARK   16  A    between atoms: P_37  and  O_34 
REMARK   17  A    between atoms: P_36  and  O_35 
REMARK   18  A    between atoms: P_37  and  O_35 
ROOT
HETATM    1  O   UNK N   1      27.115  20.637   4.937  0.00  0.00    -0.631 OA
HETATM    2  P   UNK N   1      26.773  20.262   6.403  0.00  0.00     0.401 P 
ENDROOT
BRANCH   2   3
HETATM    3  O   UNK N   1      27.516  21.822   6.254  0.00  0.00    -0.307 OA
HETATM    4  H   UNK N   1      28.069  22.373   5.678  0.00  0.00     0.222 HD
ENDBRANCH   2   3
BRANCH   2   5
HETATM    5  O   UNK N   1      28.306  19.726   7.025  0.00  0.00    -0.294 OA
BRANCH   5   6
HETATM    6  C   UNK N   1      27.951  18.686   7.883  0.00  0.00     0.215 C 
BRANCH   6   7
HETATM    7  C   UNK N   1      28.958  17.567   7.967  0.00  0.00     0.180 C 
HETATM    8  C   UNK N   1      30.016  17.866   9.024  0.00  0.00     0.182 C 
HETATM    9  C   UNK N   1      31.177  17.137   8.415  0.00  0.00     0.198 C 
HETATM   10  C   UNK N   1      30.998  17.617   6.971  0.00  0.00     0.263 C 
HETATM   11  O   UNK N   1      29.614  17.521   6.718  0.00  0.00    -0.353 OA
BRANCH   8  12
HETATM   12  O   UNK N   1      29.671  17.402  10.295  0.00  0.00    -0.390 OA
HETATM   13  H   UNK N   1      30.256  17.125  11.018  0.00  0.00     0.210 HD
ENDBRANCH   8  12
BRANCH   9  14
HETATM   14  O   UNK N   1      32.398  17.523   8.976  0.00  0.00    -0.388 OA
HETATM   15  H   UNK N   1      32.746  18.330   9.385  0.00  0.00     0.210 HD
ENDBRANCH   9  14
BRANCH  10  16
HETATM   16  N   UNK N   1      31.732  16.918   5.894  0.00  0.00    -0.280 N 
HETATM   17  C   UNK N   1      30.992  16.031   5.162  0.00  0.00     0.103 A 
HETATM   18  C   UNK N   1      31.561  15.281   4.141  0.00  0.00     0.073 A 
HETATM   19  C   UNK N   1      32.907  15.448   3.863  0.00  0.00     0.144 A 
HETATM   20  N   UNK N   1      33.640  16.339   4.577  0.00  0.00    -0.289 N 
HETATM   21  C   UNK N   1      33.077  17.077   5.585  0.00  0.00     0.330 A 
ATOM     22  HN  UNK N   1      34.629  16.462   4.358  1.00  0.00     0.172 HD
HETATM   23  O   UNK N   1      33.777  17.866   6.193  0.00  0.00    -0.246 OA
BRANCH  19  24
HETATM   24  O   UNK N   1      33.484  14.729   2.889  0.00  0.00    -0.346 OA
HETATM   25  H   UNK N   1      33.841  15.157   2.135  0.00  0.00     0.219 HD
ENDBRANCH  19  24
ENDBRANCH  10  16
ENDBRANCH   6   7
ENDBRANCH   5   6
ENDBRANCH   2   5
BRANCH   2  26
HETATM   26  O   UNK N   1      26.520  18.864   5.329  0.00  0.00    -0.195 OA
BRANCH  26  27
HETATM   27  P   UNK N   1      25.035  18.841   4.353  0.00  0.00     0.404 P 
HETATM   28  O   UNK N   1      25.408  18.106   3.040  0.00  0.00    -0.631 OA
BRANCH  27  29
HETATM   29  O   UNK N   1      24.665  20.445   3.801  0.00  0.00    -0.307 OA
HETATM   30  H   UNK N   1      25.096  21.310   3.710  0.00  0.00     0.222 HD
ENDBRANCH  27  29
BRANCH  27  31
HETATM   31  O   UNK N   1      23.566  18.143   5.058  0.00  0.00    -0.263 OA
BRANCH  31  32
HETATM   32  C   UNK N   1      22.426  18.253   4.228  0.00  0.00     0.303 C 
HETATM   33  C   UNK N   1      21.436  17.107   4.580  0.00  0.00     0.205 C 
HETATM   34  C   UNK N   1      20.017  17.389   4.000  0.00  0.00     0.183 C 
HETATM   35  C   UNK N   1      20.128  18.378   2.839  0.00  0.00     0.180 C 
HETATM   36  C   UNK N   1      20.737  19.688   3.425  0.00  0.00     0.179 C 
HETATM   37  O   UNK N   1      21.754  19.480   4.406  0.00  0.00    -0.348 OA
BRANCH  33  38
HETATM   38  O   UNK N   1      21.953  15.902   4.094  0.00  0.00    -0.388 OA
HETATM   39  H   UNK N   1      21.964  15.287   3.344  0.00  0.00     0.210 HD
ENDBRANCH  33  38
BRANCH  34  40
HETATM   40  O   UNK N   1      19.380  16.205   3.616  0.00  0.00    -0.390 OA
HETATM   41  H   UNK N   1      18.794  15.632   4.134  0.00  0.00     0.210 HD
ENDBRANCH  34  40
BRANCH  35  42
HETATM   42  O   UNK N   1      18.878  18.641   2.273  0.00  0.00    -0.390 OA
HETATM   43  H   UNK N   1      18.453  17.978   1.705  0.00  0.00     0.210 HD
ENDBRANCH  35  42
BRANCH  36  44
HETATM   44  C   UNK N   1      21.244  20.594   2.308  0.00  0.00     0.198 C 
BRANCH  44  45
HETATM   45  O   UNK N   1      22.020  21.628   2.835  0.00  0.00    -0.398 OA
HETATM   46  H   UNK N   1      22.407  21.800   3.708  0.00  0.00     0.209 HD
ENDBRANCH  44  45
ENDBRANCH  36  44
ENDBRANCH  31  32
ENDBRANCH  27  31
ENDBRANCH  26  27
ENDBRANCH   2  26
TORSDOF 18
ENDMDL
MODEL 8
REMARK VINA RESULT:      -7.2     10.531     13.153
REMARK  18 active torsions:
REMARK  status: ('A' for Active; 'I' for Inactive)
REMARK    1  A    between atoms: C_5  and  C_3 
REMARK    2  A    between atoms: O_19  and  C_3 
REMARK    3  A    between atoms: C_6  and  C_4 
REMARK    4  A    between atoms: O_31  and  C_4 
REMARK    5  A    between atoms: O_20  and  C_7 
REMARK    6  A    between atoms: C_8  and  O_21 
REMARK    7  A    between atoms: C_9  and  O_22 
REMARK    8  A    between atoms: C_10  and  O_23 
REMARK    9  A    between atoms: C_11  and  O_24 
REMARK   10  A    between atoms: C_12  and  O_25 
REMARK   11  A    between atoms: C_13  and  N_18 
REMARK   12  A    between atoms: C_14  and  O_34 
REMARK   13  A    between atoms: P_36  and  O_27 
REMARK   14  A    between atoms: P_37  and  O_29 
REMARK   15  A    between atoms: P_36  and  O_31 
REMARK   16  A    between atoms: P_37  and  O_34 
REMARK   17  A    between atoms: P_36  and  O_35 
REMARK   18  A    between atoms: P_37  and  O_35 
ROOT
HETATM    1  O   UNK N   1      22.415  13.780   1.364  0.00  0.00    -0.631 OA
HETATM    2  P   UNK N   1      22.987  13.045   2.605  0.00  0.00     0.401 P 
ENDROOT
BRANCH   2   3
HETATM    3  O   UNK N   1      21.701  12.176   1.831  0.00  0.00    -0.307 OA
HETATM    4  H   UNK N   1      21.251  12.036   0.983  0.00  0.00     0.222 HD
ENDBRANCH   2   3
BRANCH   2   5
HETATM    5  O   UNK N   1      21.824  13.424   3.840  0.00  0.00    -0.294 OA
BRANCH   5   6
HETATM    6  C   UNK N   1      21.870  12.304   4.670  0.00  0.00     0.215 C 
BRANCH   6   7
HETATM    7  C   UNK N   1      21.247  12.500   6.029  0.00  0.00     0.180 C 
HETATM    8  C   UNK N   1      20.767  13.937   6.205  0.00  0.00     0.182 C 
HETATM    9  C   UNK N   1      20.942  14.068   7.689  0.00  0.00     0.198 C 
HETATM   10  C   UNK N   1      22.328  13.424   7.800  0.00  0.00     0.263 C 
HETATM   11  O   UNK N   1      22.271  12.281   6.976  0.00  0.00    -0.353 OA
BRANCH   8  12
HETATM   12  O   UNK N   1      19.451  14.133   5.780  0.00  0.00    -0.390 OA
HETATM   13  H   UNK N   1      18.705  13.514   5.819  0.00  0.00     0.210 HD
ENDBRANCH   8  12
BRANCH   9  14
HETATM   14  O   UNK N   1      20.920  15.401   8.109  0.00  0.00    -0.388 OA
HETATM   15  H   UNK N   1      21.588  16.057   8.361  0.00  0.00     0.210 HD
ENDBRANCH   9  14
BRANCH  10  16
HETATM   16  N   UNK N   1      22.823  13.028   9.136  0.00  0.00    -0.280 N 
HETATM   17  C   UNK N   1      21.867  12.589  10.008  0.00  0.00     0.103 A 
HETATM   18  C   UNK N   1      22.186  12.216  11.307  0.00  0.00     0.073 A 
HETATM   19  C   UNK N   1      23.507  12.290  11.715  0.00  0.00     0.144 A 
HETATM   20  N   UNK N   1      24.461  12.710  10.847  0.00  0.00    -0.289 N 
HETATM   21  C   UNK N   1      24.144  13.079   9.566  0.00  0.00     0.330 A 
ATOM     22  HN  UNK N   1      25.433  12.752  11.154  1.00  0.00     0.172 HD
HETATM   23  O   UNK N   1      25.037  13.445   8.824  0.00  0.00    -0.246 OA
BRANCH  19  24
HETATM   24  O   UNK N   1      23.842  11.946  12.968  0.00  0.00    -0.346 OA
HETATM   25  H   UNK N   1      23.946  12.606  13.626  0.00  0.00     0.219 HD
ENDBRANCH  19  24
ENDBRANCH  10  16
ENDBRANCH   6   7
ENDBRANCH   5   6
ENDBRANCH   2   5
BRANCH   2  26
HETATM   26  O   UNK N   1      23.664  14.689   2.489  0.00  0.00    -0.195 OA
BRANCH  26  27
HETATM   27  P   UNK N   1      23.847  15.606   4.001  0.00  0.00     0.404 P 
HETATM   28  O   UNK N   1      25.039  16.568   3.765  0.00  0.00    -0.631 OA
BRANCH  27  29
HETATM   29  O   UNK N   1      24.439  14.564   5.257  0.00  0.00    -0.307 OA
HETATM   30  H   UNK N   1      24.634  14.594   6.207  0.00  0.00     0.222 HD
ENDBRANCH  27  29
BRANCH  27  31
HETATM   31  O   UNK N   1      22.448  16.496   4.629  0.00  0.00    -0.263 OA
BRANCH  31  32
HETATM   32  C   UNK N   1      21.916  17.438   3.720  0.00  0.00     0.303 C 
HETATM   33  C   UNK N   1      20.541  16.922   3.208  0.00  0.00     0.205 C 
HETATM   34  C   UNK N   1      19.728  18.064   2.526  0.00  0.00     0.183 C 
HETATM   35  C   UNK N   1      20.681  19.170   2.075  0.00  0.00     0.180 C 
HETATM   36  C   UNK N   1      21.383  19.707   3.360  0.00  0.00     0.179 C 
HETATM   37  O   UNK N   1      21.712  18.700   4.318  0.00  0.00    -0.348 OA
BRANCH  33  38
HETATM   38  O   UNK N   1      20.761  15.859   2.327  0.00  0.00    -0.388 OA
HETATM   39  H   UNK N   1      21.123  14.963   2.236  0.00  0.00     0.210 HD
ENDBRANCH  33  38
BRANCH  34  40
HETATM   40  O   UNK N   1      18.958  17.576   1.465  0.00  0.00    -0.390 OA
HETATM   41  H   UNK N   1      19.234  17.360   0.561  0.00  0.00     0.210 HD
ENDBRANCH  34  40
BRANCH  35  42
HETATM   42  O   UNK N   1      19.994  20.206   1.436  0.00  0.00    -0.390 OA
HETATM   43  H   UNK N   1      19.857  21.052   1.892  0.00  0.00     0.210 HD
ENDBRANCH  35  42
BRANCH  36  44
HETATM   44  C   UNK N   1      22.614  20.531   2.999  0.00  0.00     0.198 C 
BRANCH  44  45
HETATM   45  O   UNK N   1      22.261  21.864   2.786  0.00  0.00    -0.398 OA
HETATM   46  H   UNK N   1      22.310  22.458   2.021  0.00  0.00     0.209 HD
ENDBRANCH  44  45
ENDBRANCH  36  44
ENDBRANCH  31  32
ENDBRANCH  27  31
ENDBRANCH  26  27
ENDBRANCH   2  26
TORSDOF 18
ENDMDL
MODEL 9
REMARK VINA RESULT:      -7.2      1.938      2.835
REMARK  18 active torsions:
REMARK  status: ('A' for Active; 'I' for Inactive)
REMARK    1  A    between atoms: C_5  and  C_3 
REMARK    2  A    between atoms: O_19  and  C_3 
REMARK    3  A    between atoms: C_6  and  C_4 
REMARK    4  A    between atoms: O_31  and  C_4 
REMARK    5  A    between atoms: O_20  and  C_7 
REMARK    6  A    between atoms: C_8  and  O_21 
REMARK    7  A    between atoms: C_9  and  O_22 
REMARK    8  A    between atoms: C_10  and  O_23 
REMARK    9  A    between atoms: C_11  and  O_24 
REMARK   10  A    between atoms: C_12  and  O_25 
REMARK   11  A    between atoms: C_13  and  N_18 
REMARK   12  A    between atoms: C_14  and  O_34 
REMARK   13  A    between atoms: P_36  and  O_27 
REMARK   14  A    between atoms: P_37  and  O_29 
REMARK   15  A    between atoms: P_36  and  O_31 
REMARK   16  A    between atoms: P_37  and  O_34 
REMARK   17  A    between atoms: P_36  and  O_35 
REMARK   18  A    between atoms: P_37  and  O_35 
ROOT
HETATM    1  O   UNK N   1      35.584  13.212   8.027  0.00  0.00    -0.631 OA
HETATM    2  P   UNK N   1      36.264  13.589   9.369  0.00  0.00     0.401 P 
ENDROOT
BRANCH   2   3
HETATM    3  O   UNK N   1      36.285  11.884   9.051  0.00  0.00    -0.307 OA
HETATM    4  H   UNK N   1      36.058  11.017   9.421  0.00  0.00     0.222 HD
ENDBRANCH   2   3
BRANCH   2   5
HETATM    5  O   UNK N   1      35.025  13.233  10.536  0.00  0.00    -0.294 OA
BRANCH   5   6
HETATM    6  C   UNK N   1      35.719  12.543  11.530  0.00  0.00     0.215 C 
BRANCH   6   7
HETATM    7  C   UNK N   1      35.471  13.039  12.932  0.00  0.00     0.180 C 
HETATM    8  C   UNK N   1      36.518  14.073  13.336  0.00  0.00     0.182 C 
HETATM    9  C   UNK N   1      36.554  13.813  14.813  0.00  0.00     0.198 C 
HETATM   10  C   UNK N   1      36.583  12.282  14.761  0.00  0.00     0.263 C 
HETATM   11  O   UNK N   1      35.629  11.926  13.786  0.00  0.00    -0.353 OA
BRANCH   8  12
HETATM   12  O   UNK N   1      36.154  15.380  13.009  0.00  0.00    -0.390 OA
HETATM   13  H   UNK N   1      35.298  15.820  13.134  0.00  0.00     0.210 HD
ENDBRANCH   8  12
BRANCH   9  14
HETATM   14  O   UNK N   1      37.685  14.365  15.420  0.00  0.00    -0.388 OA
HETATM   15  H   UNK N   1      38.075  14.340  16.308  0.00  0.00     0.210 HD
ENDBRANCH   9  14
BRANCH  10  16
HETATM   16  N   UNK N   1      36.308  11.524  16.001  0.00  0.00    -0.280 N 
HETATM   17  C   UNK N   1      35.515  12.162  16.913  0.00  0.00     0.103 A 
HETATM   18  C   UNK N   1      35.203  11.580  18.135  0.00  0.00     0.073 A 
HETATM   19  C   UNK N   1      35.707  10.323  18.422  0.00  0.00     0.144 A 
HETATM   20  N   UNK N   1      36.481   9.680  17.511  0.00  0.00    -0.289 N 
HETATM   21  C   UNK N   1      36.789  10.257  16.307  0.00  0.00     0.330 A 
ATOM     22  HN  UNK N   1      36.840   8.750  17.728  1.00  0.00     0.172 HD
HETATM   23  O   UNK N   1      37.485   9.637  15.523  0.00  0.00    -0.246 OA
BRANCH  19  24
HETATM   24  O   UNK N   1      35.429   9.742  19.599  0.00  0.00    -0.346 OA
HETATM   25  H   UNK N   1      34.590   9.866  20.000  0.00  0.00     0.219 HD
ENDBRANCH  19  24
ENDBRANCH  10  16
ENDBRANCH   6   7
ENDBRANCH   5   6
ENDBRANCH   2   5
BRANCH   2  26
HETATM   26  O   UNK N   1      35.445  15.006   8.668  0.00  0.00    -0.195 OA
BRANCH  26  27
HETATM   27  P   UNK N   1      34.978  16.313   9.778  0.00  0.00     0.404 P 
HETATM   28  O   UNK N   1      36.249  16.632  10.608  0.00  0.00    -0.631 OA
BRANCH  27  29
HETATM   29  O   UNK N   1      33.880  15.706  10.978  0.00  0.00    -0.307 OA
HETATM   30  H   UNK N   1      33.337  16.035  11.713  0.00  0.00     0.222 HD
ENDBRANCH  27  29
BRANCH  27  31
HETATM   31  O   UNK N   1      34.293  17.801   9.099  0.00  0.00    -0.263 OA
BRANCH  31  32
HETATM   32  C   UNK N   1      33.171  17.584   8.266  0.00  0.00     0.303 C 
HETATM   33  C   UNK N   1      33.657  16.987   6.915  0.00  0.00     0.205 C 
HETATM   34  C   UNK N   1      32.474  16.364   6.115  0.00  0.00     0.183 C 
HETATM   35  C   UNK N   1      31.156  16.975   6.594  0.00  0.00     0.180 C 
HETATM   36  C   UNK N   1      31.024  16.622   8.107  0.00  0.00     0.179 C 
HETATM   37  O   UNK N   1      32.251  16.679   8.836  0.00  0.00    -0.348 OA
BRANCH  33  38
HETATM   38  O   UNK N   1      34.290  17.996   6.181  0.00  0.00    -0.388 OA
HETATM   39  H   UNK N   1      35.142  18.406   5.965  0.00  0.00     0.210 HD
ENDBRANCH  33  38
BRANCH  34  40
HETATM   40  O   UNK N   1      32.650  16.524   4.737  0.00  0.00    -0.390 OA
HETATM   41  H   UNK N   1      33.072  15.924   4.103  0.00  0.00     0.210 HD
ENDBRANCH  34  40
BRANCH  35  42
HETATM   42  O   UNK N   1      30.068  16.459   5.884  0.00  0.00    -0.390 OA
HETATM   43  H   UNK N   1      30.149  16.282   4.933  0.00  0.00     0.210 HD
ENDBRANCH  35  42
BRANCH  36  44
HETATM   44  C   UNK N   1      29.961  17.489   8.773  0.00  0.00     0.198 C 
BRANCH  44  45
HETATM   45  O   UNK N   1      30.079  17.422  10.162  0.00  0.00    -0.398 OA
HETATM   46  H   UNK N   1      30.367  18.049  10.844  0.00  0.00     0.209 HD
ENDBRANCH  44  45
ENDBRANCH  36  44
ENDBRANCH  31  32
ENDBRANCH  27  31
ENDBRANCH  26  27
ENDBRANCH   2  26
TORSDOF 18
ENDMDL
