REMARK  9 active torsions:
REMARK  status: ('A' for Active; 'I' for Inactive)
REMARK    1  A    between atoms: C_2  and  N_1 
REMARK    2  A    between atoms: C_2  and  C_3 
REMARK    3  A    between atoms: C_2  and  C_5 
REMARK    4  A    between atoms: C_3  and  O_4 
REMARK    5  A    between atoms: C_5  and  C_6 
REMARK    6  A    between atoms: C_6  and  C_7 
REMARK    7  A    between atoms: C_7  and  C_8 
REMARK    8  A    between atoms: C_8  and  N_9 
REMARK       I    between atoms: N_9  and  C_10 
REMARK    9  A    between atoms: C_10  and  O_11 
ROOT
HETATM    1  C   UNK N   1       4.883   2.433   0.370  0.00  0.00     0.004 C 
ENDROOT
BRANCH   1   2
HETATM    2  C   UNK N   1       3.622   3.106  -0.137  0.00  0.00     0.027 C 
BRANCH   2   3
HETATM    3  C   UNK N   1       2.417   2.266   0.269  0.00  0.00     0.097 C 
BRANCH   3   4
HETATM    4  N   UNK N   1       2.525   0.931  -0.301  0.00  0.00    -0.424 N 
HETATM    5  H   UNK N   1       1.753   0.398  -0.700  0.00  0.00     0.150 HD
HETATM    6  H   UNK N   1       3.447   0.494  -0.301  0.00  0.00     0.150 HD
ENDBRANCH   3   4
BRANCH   3   7
HETATM    7  C   UNK N   1       1.140   2.923  -0.220  0.00  0.00     0.188 C 
BRANCH   7   8
HETATM    8  O   UNK N   1       0.037   2.151   0.150  0.00  0.00    -0.399 OA
HETATM    9  H   UNK N   1      -0.811   2.547   0.407  0.00  0.00     0.209 HD
ENDBRANCH   7   8
ENDBRANCH   3   7
ENDBRANCH   2   3
ENDBRANCH   1   2
BRANCH   1  10
HETATM   10  C   UNK N   1       6.139   3.146  -0.080  0.00  0.00     0.020 C 
BRANCH  10  11
HETATM   11  C   UNK N   1       7.254   2.127  -0.002  0.00  0.00     0.125 C 
BRANCH  11  12
HETATM   12  N   UNK N   1       8.547   2.758  -0.040  0.00  0.00    -0.338 N 
HETATM   13  C   UNK N   1       9.682   2.021  -0.011  0.00  0.00     0.249 C 
HETATM   14  O   UNK N   1       9.629   0.798   0.029  0.00  0.00    -0.632 OA
HETATM   15  H   UNK N   1       8.607   3.740  -0.086  0.00  0.00     0.165 HD
BRANCH  13  16
HETATM   16  O   UNK N   1      10.879   2.632  -0.027  0.00  0.00    -0.760 OA
HETATM   17  H   UNK N   1      11.665   2.122  -0.037  0.00  0.00     0.169 HD
ENDBRANCH  13  16
ENDBRANCH  11  12
ENDBRANCH  10  11
ENDBRANCH   1  10
TORSDOF 9
