REMARK  21 active torsions:
REMARK  status: ('A' for Active; 'I' for Inactive)
REMARK    1  A    between atoms: C_5  and  C_3 
REMARK    2  A    between atoms: C_6  and  C_4 
REMARK    3  A    between atoms: C_7  and  C_5 
REMARK    4  A    between atoms: C_8  and  C_6 
REMARK    5  A    between atoms: C_9  and  C_7 
REMARK    6  A    between atoms: C_17  and  C_8 
REMARK    7  A    between atoms: C_10  and  C_9 
REMARK    8  A    between atoms: C_11  and  C_10 
REMARK    9  A    between atoms: C_12  and  C_11 
REMARK   10  A    between atoms: C_13  and  C_12 
REMARK   11  A    between atoms: C_14  and  C_13 
REMARK   12  A    between atoms: C_15  and  C_14 
REMARK   13  A    between atoms: C_16  and  C_15 
REMARK   14  A    between atoms: C_18  and  C_16 
REMARK   15  A    between atoms: C_19  and  C_17 
REMARK   16  A    between atoms: C_20  and  C_18 
REMARK   17  A    between atoms: C_21  and  C_19 
REMARK   18  A    between atoms: C_22  and  C_20 
REMARK   19  A    between atoms: C_23  and  C_21 
REMARK   20  A    between atoms: O_25  and  C_22 
REMARK   21  A    between atoms: O_25  and  C_23 
ROOT
HETATM    1  C   UNK N   1      -0.366   1.917  -0.577  0.00  0.00     0.002 C 
ENDROOT
BRANCH   1   2
HETATM    2  C   UNK N   1      -1.193   1.272   0.523  0.00  0.00     0.000 C 
BRANCH   2   3
HETATM    3  C   UNK N   1      -1.045  -0.240   0.489  0.00  0.00     0.000 C 
BRANCH   3   4
HETATM    4  C   UNK N   1      -1.901  -0.837  -0.615  0.00  0.00     0.000 C 
BRANCH   4   5
HETATM    5  C   UNK N   1      -3.275  -1.213  -0.090  0.00  0.00     0.000 C 
BRANCH   5   6
HETATM    6  C   UNK N   1      -4.170   0.005   0.049  0.00  0.00     0.000 C 
BRANCH   6   7
HETATM    7  C   UNK N   1      -5.597  -0.485   0.108  0.00  0.00     0.000 C 
BRANCH   7   8
HETATM    8  C   UNK N   1      -6.586   0.660   0.104  0.00  0.00     0.000 C 
BRANCH   8   9
HETATM    9  C   UNK N   1      -7.937   0.050  -0.190  0.00  0.00     0.000 C 
BRANCH   9  10
HETATM   10  C   UNK N   1      -9.071   1.019   0.051  0.00  0.00     0.000 C 
BRANCH  10  11
HETATM   11  C   UNK N   1     -10.354   0.222  -0.064  0.00  0.00    -0.000 C 
BRANCH  11  12
HETATM   12  C   UNK N   1     -11.563   1.113   0.099  0.00  0.00    -0.005 C 
HETATM   13  C   UNK N   1     -12.810   0.256   0.010  0.00  0.00     0.005 C 
ENDBRANCH  11  12
ENDBRANCH  10  11
ENDBRANCH   9  10
ENDBRANCH   8   9
ENDBRANCH   7   8
ENDBRANCH   6   7
ENDBRANCH   5   6
ENDBRANCH   4   5
ENDBRANCH   3   4
ENDBRANCH   2   3
ENDBRANCH   1   2
BRANCH   1  14
HETATM   14  C   UNK N   1       1.042   2.222  -0.096  0.00  0.00     0.027 C 
BRANCH  14  15
HETATM   15  C   UNK N   1       1.881   0.962   0.001  0.00  0.00     0.178 C 
BRANCH  15  16
HETATM   16  O   UNK N   1       3.205   1.321   0.036  0.00  0.00    -0.321 OA
BRANCH  16  17
HETATM   17  C   UNK N   1       4.222   0.436   0.062  0.00  0.00     0.258 C 
HETATM   18  O   UNK N   1       4.004  -0.775   0.119  0.00  0.00    -0.265 OA
BRANCH  17  19
HETATM   19  C   UNK N   1       5.617   0.963   0.006  0.00  0.00     0.111 C 
BRANCH  19  20
HETATM   20  C   UNK N   1       6.716  -0.082   0.004  0.00  0.00     0.010 C 
BRANCH  20  21
HETATM   21  C   UNK N   1       8.014   0.692  -0.023  0.00  0.00     0.000 C 
BRANCH  21  22
HETATM   22  C   UNK N   1       9.230  -0.203  -0.010  0.00  0.00     0.000 C 
BRANCH  22  23
HETATM   23  C   UNK N   1      10.439   0.708   0.009  0.00  0.00    -0.000 C 
BRANCH  23  24
HETATM   24  C   UNK N   1      11.722  -0.090  -0.010  0.00  0.00    -0.005 C 
HETATM   25  C   UNK N   1      12.891   0.872   0.003  0.00  0.00     0.005 C 
ENDBRANCH  23  24
ENDBRANCH  22  23
ENDBRANCH  21  22
ENDBRANCH  20  21
ENDBRANCH  19  20
ENDBRANCH  17  19
ENDBRANCH  16  17
ENDBRANCH  15  16
ENDBRANCH  14  15
ENDBRANCH   1  14
TORSDOF 21
