MODEL 1
REMARK VINA RESULT:      -7.5      0.000      0.000
REMARK  15 active torsions:
REMARK  status: ('A' for Active; 'I' for Inactive)
REMARK    1  A    between atoms: C_4  and  C_1 
REMARK    2  A    between atoms: O_27  and  C_1 
REMARK    3  A    between atoms: C_6  and  O_19 
REMARK    4  A    between atoms: C_7  and  O_20 
REMARK    5  A    between atoms: N_11  and  C_8 
REMARK    6  A    between atoms: C_10  and  N_18 
REMARK    7  A    between atoms: P_31  and  O_21 
REMARK    8  A    between atoms: P_31  and  O_22 
REMARK    9  A    between atoms: P_32  and  O_24 
REMARK   10  A    between atoms: P_33  and  O_26 
REMARK   11  A    between atoms: P_33  and  O_27 
REMARK   12  A    between atoms: P_31  and  O_29 
REMARK   13  A    between atoms: P_32  and  O_29 
REMARK   14  A    between atoms: P_32  and  O_30 
REMARK   15  A    between atoms: P_33  and  O_30 
ROOT
HETATM    1  C   UNK N   1      30.595  17.347   7.580  0.00  0.00     0.179 C 
HETATM    2  C   UNK N   1      29.667  17.587   8.759  0.00  0.00     0.182 C 
HETATM    3  C   UNK N   1      28.679  18.475   8.080  0.00  0.00     0.198 C 
HETATM    4  C   UNK N   1      28.489  17.667   6.797  0.00  0.00     0.262 C 
HETATM    5  O   UNK N   1      29.776  17.187   6.432  0.00  0.00    -0.353 OA
ENDROOT
BRANCH   1   6
HETATM    6  C   UNK N   1      31.512  16.152   7.837  0.00  0.00     0.213 C 
BRANCH   6   7
HETATM    7  O   UNK N   1      32.556  16.459   8.719  0.00  0.00    -0.311 OA
BRANCH   7   8
HETATM    8  P   UNK N   1      33.999  16.308   7.751  0.00  0.00     0.335 P 
HETATM    9  S   UNK N   1      33.599  15.577   6.184  0.00  0.00    -0.007 SA
BRANCH   8  10
HETATM   10  O   UNK N   1      34.599  17.896   7.382  0.00  0.00    -0.324 OA
HETATM   11  H   UNK N   1      34.111  18.735   7.376  0.00  0.00     0.220 HD
ENDBRANCH   8  10
BRANCH   8  12
HETATM   12  O   UNK N   1      35.302  15.460   8.562  0.00  0.00    -0.212 OA
BRANCH  12  13
HETATM   13  P   UNK N   1      35.467  16.016  10.214  0.00  0.00     0.409 P 
HETATM   14  O   UNK N   1      34.986  17.490  10.309  0.00  0.00    -0.631 OA
BRANCH  13  15
HETATM   15  O   UNK N   1      37.103  15.947  10.789  0.00  0.00    -0.307 OA
HETATM   16  H   UNK N   1      37.502  16.221  11.630  0.00  0.00     0.222 HD
ENDBRANCH  13  15
BRANCH  13  17
HETATM   17  O   UNK N   1      34.417  15.087  11.252  0.00  0.00    -0.195 OA
BRANCH  17  18
HETATM   18  P   UNK N   1      35.198  13.538  11.429  0.00  0.00     0.399 P 
HETATM   19  O   UNK N   1      34.654  13.791  12.860  0.00  0.00    -0.631 OA
BRANCH  18  20
HETATM   20  O   UNK N   1      34.276  12.104  11.750  0.00  0.00    -0.307 OA
HETATM   21  H   UNK N   1      33.323  12.126  11.937  0.00  0.00     0.222 HD
ENDBRANCH  18  20
BRANCH  18  22
HETATM   22  O   UNK N   1      33.871  13.407  10.317  0.00  0.00    -0.307 OA
HETATM   23  H   UNK N   1      32.975  13.736  10.487  0.00  0.00     0.222 HD
ENDBRANCH  18  22
ENDBRANCH  17  18
ENDBRANCH  13  17
ENDBRANCH  12  13
ENDBRANCH   8  12
ENDBRANCH   7   8
ENDBRANCH   6   7
ENDBRANCH   1   6
BRANCH   2  24
HETATM   24  O   UNK N   1      30.308  18.207   9.835  0.00  0.00    -0.390 OA
HETATM   25  H   UNK N   1      30.007  19.037  10.234  0.00  0.00     0.210 HD
ENDBRANCH   2  24
BRANCH   3  26
HETATM   26  O   UNK N   1      27.500  18.636   8.811  0.00  0.00    -0.388 OA
HETATM   27  H   UNK N   1      26.941  18.218   9.486  0.00  0.00     0.210 HD
ENDBRANCH   3  26
BRANCH   4  28
HETATM   28  N   UNK N   1      27.885  18.420   5.686  0.00  0.00    -0.297 N 
HETATM   29  C   UNK N   1      28.563  19.305   4.909  0.00  0.00     0.188 A 
HETATM   30  N   UNK N   1      27.756  19.864   3.963  0.00  0.00    -0.346 N 
HETATM   31  C   UNK N   1      26.557  19.295   4.171  0.00  0.00     0.122 A 
ATOM     32  HN  UNK N   1      28.006  20.557   3.259  1.00  0.00     0.167 HD
HETATM   33  C   UNK N   1      25.357  19.486   3.501  0.00  0.00     0.131 A 
HETATM   34  C   UNK N   1      26.630  18.427   5.199  0.00  0.00     0.142 A 
HETATM   35  N   UNK N   1      24.272  18.766   3.913  0.00  0.00    -0.337 N 
HETATM   36  C   UNK N   1      24.368  17.881   4.959  0.00  0.00     0.183 A 
ATOM     37  HN  UNK N   1      23.378  18.889   3.437  1.00  0.00     0.168 HD
HETATM   38  N   UNK N   1      25.559  17.707   5.613  0.00  0.00    -0.336 N 
ATOM     39  HN  UNK N   1      25.636  17.053   6.391  1.00  0.00     0.168 HD
BRANCH  33  40
HETATM   40  N   UNK N   1      25.254  20.394   2.428  0.00  0.00    -0.383 N 
HETATM   41  H   UNK N   1      25.895  20.367   1.682  0.00  0.00     0.157 HD
HETATM   42  H   UNK N   1      24.532  21.063   2.425  0.00  0.00     0.157 HD
ENDBRANCH  33  40
ENDBRANCH   4  28
TORSDOF 15
ENDMDL
MODEL 2
REMARK VINA RESULT:      -7.5      3.323      4.969
REMARK  15 active torsions:
REMARK  status: ('A' for Active; 'I' for Inactive)
REMARK    1  A    between atoms: C_4  and  C_1 
REMARK    2  A    between atoms: O_27  and  C_1 
REMARK    3  A    between atoms: C_6  and  O_19 
REMARK    4  A    between atoms: C_7  and  O_20 
REMARK    5  A    between atoms: N_11  and  C_8 
REMARK    6  A    between atoms: C_10  and  N_18 
REMARK    7  A    between atoms: P_31  and  O_21 
REMARK    8  A    between atoms: P_31  and  O_22 
REMARK    9  A    between atoms: P_32  and  O_24 
REMARK   10  A    between atoms: P_33  and  O_26 
REMARK   11  A    between atoms: P_33  and  O_27 
REMARK   12  A    between atoms: P_31  and  O_29 
REMARK   13  A    between atoms: P_32  and  O_29 
REMARK   14  A    between atoms: P_32  and  O_30 
REMARK   15  A    between atoms: P_33  and  O_30 
ROOT
HETATM    1  C   UNK N   1      34.145  14.532   7.611  0.00  0.00     0.179 C 
HETATM    2  C   UNK N   1      35.020  15.681   7.138  0.00  0.00     0.182 C 
HETATM    3  C   UNK N   1      33.950  16.547   6.562  0.00  0.00     0.198 C 
HETATM    4  C   UNK N   1      32.941  16.454   7.706  0.00  0.00     0.262 C 
HETATM    5  O   UNK N   1      32.965  15.105   8.153  0.00  0.00    -0.353 OA
ENDROOT
BRANCH   1   6
HETATM    6  C   UNK N   1      34.894  13.644   8.604  0.00  0.00     0.213 C 
BRANCH   6   7
HETATM    7  O   UNK N   1      36.275  13.623   8.367  0.00  0.00    -0.311 OA
BRANCH   7   8
HETATM    8  P   UNK N   1      36.988  13.754   9.953  0.00  0.00     0.335 P 
HETATM    9  S   UNK N   1      38.698  13.284   9.884  0.00  0.00    -0.007 SA
BRANCH   8  10
HETATM   10  O   UNK N   1      36.986  15.423  10.437  0.00  0.00    -0.324 OA
HETATM   11  H   UNK N   1      36.365  15.874  11.031  0.00  0.00     0.220 HD
ENDBRANCH   8  10
BRANCH   8  12
HETATM   12  O   UNK N   1      36.110  12.876  11.192  0.00  0.00    -0.212 OA
BRANCH  12  13
HETATM   13  P   UNK N   1      35.502  13.972  12.412  0.00  0.00     0.409 P 
HETATM   14  O   UNK N   1      34.497  14.961  11.759  0.00  0.00    -0.631 OA
BRANCH  13  15
HETATM   15  O   UNK N   1      36.756  14.904  13.169  0.00  0.00    -0.307 OA
HETATM   16  H   UNK N   1      36.732  15.745  13.653  0.00  0.00     0.222 HD
ENDBRANCH  13  15
BRANCH  13  17
HETATM   17  O   UNK N   1      34.604  13.076  13.610  0.00  0.00    -0.195 OA
BRANCH  17  18
HETATM   18  P   UNK N   1      35.548  13.187  15.071  0.00  0.00     0.399 P 
HETATM   19  O   UNK N   1      34.177  12.695  15.608  0.00  0.00    -0.631 OA
BRANCH  18  20
HETATM   20  O   UNK N   1      35.973  11.765  15.970  0.00  0.00    -0.307 OA
HETATM   21  H   UNK N   1      36.222  10.930  15.541  0.00  0.00     0.222 HD
ENDBRANCH  18  20
BRANCH  18  22
HETATM   22  O   UNK N   1      36.227  11.983  14.020  0.00  0.00    -0.307 OA
HETATM   23  H   UNK N   1      37.161  11.725  14.009  0.00  0.00     0.222 HD
ENDBRANCH  18  22
ENDBRANCH  17  18
ENDBRANCH  13  17
ENDBRANCH  12  13
ENDBRANCH   8  12
ENDBRANCH   7   8
ENDBRANCH   6   7
ENDBRANCH   1   6
BRANCH   2  24
HETATM   24  O   UNK N   1      35.969  15.285   6.192  0.00  0.00    -0.390 OA
HETATM   25  H   UNK N   1      35.746  14.834   5.363  0.00  0.00     0.210 HD
ENDBRANCH   2  24
BRANCH   3  26
HETATM   26  O   UNK N   1      34.382  17.850   6.310  0.00  0.00    -0.388 OA
HETATM   27  H   UNK N   1      34.509  18.504   5.603  0.00  0.00     0.210 HD
ENDBRANCH   3  26
BRANCH   4  28
HETATM   28  N   UNK N   1      31.572  16.854   7.345  0.00  0.00    -0.297 N 
HETATM   29  C   UNK N   1      31.005  16.620   6.132  0.00  0.00     0.188 A 
HETATM   30  N   UNK N   1      29.734  17.106   6.069  0.00  0.00    -0.346 N 
HETATM   31  C   UNK N   1      29.522  17.642   7.282  0.00  0.00     0.122 A 
ATOM     32  HN  UNK N   1      29.089  17.069   5.280  1.00  0.00     0.167 HD
HETATM   33  C   UNK N   1      28.398  18.279   7.786  0.00  0.00     0.131 A 
HETATM   34  C   UNK N   1      30.619  17.491   8.050  0.00  0.00     0.142 A 
HETATM   35  N   UNK N   1      28.442  18.733   9.073  0.00  0.00    -0.337 N 
HETATM   36  C   UNK N   1      29.567  18.563   9.843  0.00  0.00     0.183 A 
ATOM     37  HN  UNK N   1      27.628  19.205   9.468  1.00  0.00     0.168 HD
HETATM   38  N   UNK N   1      30.670  17.936   9.330  0.00  0.00    -0.336 N 
ATOM     39  HN  UNK N   1      31.508  17.809   9.895  1.00  0.00     0.168 HD
BRANCH  33  40
HETATM   40  N   UNK N   1      27.242  18.456   7.000  0.00  0.00    -0.383 N 
HETATM   41  H   UNK N   1      26.398  18.011   7.238  0.00  0.00     0.157 HD
HETATM   42  H   UNK N   1      27.280  19.032   6.202  0.00  0.00     0.157 HD
ENDBRANCH  33  40
ENDBRANCH   4  28
TORSDOF 15
ENDMDL
MODEL 3
REMARK VINA RESULT:      -7.3      8.559     10.357
REMARK  15 active torsions:
REMARK  status: ('A' for Active; 'I' for Inactive)
REMARK    1  A    between atoms: C_4  and  C_1 
REMARK    2  A    between atoms: O_27  and  C_1 
REMARK    3  A    between atoms: C_6  and  O_19 
REMARK    4  A    between atoms: C_7  and  O_20 
REMARK    5  A    between atoms: N_11  and  C_8 
REMARK    6  A    between atoms: C_10  and  N_18 
REMARK    7  A    between atoms: P_31  and  O_21 
REMARK    8  A    between atoms: P_31  and  O_22 
REMARK    9  A    between atoms: P_32  and  O_24 
REMARK   10  A    between atoms: P_33  and  O_26 
REMARK   11  A    between atoms: P_33  and  O_27 
REMARK   12  A    between atoms: P_31  and  O_29 
REMARK   13  A    between atoms: P_32  and  O_29 
REMARK   14  A    between atoms: P_32  and  O_30 
REMARK   15  A    between atoms: P_33  and  O_30 
ROOT
HETATM    1  C   UNK N   1      21.735  14.883   5.035  0.00  0.00     0.179 C 
HETATM    2  C   UNK N   1      20.496  14.038   4.787  0.00  0.00     0.182 C 
HETATM    3  C   UNK N   1      19.765  14.982   3.893  0.00  0.00     0.198 C 
HETATM    4  C   UNK N   1      20.922  15.368   2.972  0.00  0.00     0.262 C 
HETATM    5  O   UNK N   1      22.066  15.506   3.804  0.00  0.00    -0.353 OA
ENDROOT
BRANCH   1   6
HETATM    6  C   UNK N   1      22.871  14.037   5.607  0.00  0.00     0.213 C 
BRANCH   6   7
HETATM    7  O   UNK N   1      22.497  12.702   5.805  0.00  0.00    -0.311 OA
BRANCH   7   8
HETATM    8  P   UNK N   1      23.882  11.974   6.576  0.00  0.00     0.335 P 
HETATM    9  S   UNK N   1      24.823  11.059   5.382  0.00  0.00    -0.007 SA
BRANCH   8  10
HETATM   10  O   UNK N   1      24.941  13.231   7.137  0.00  0.00    -0.324 OA
HETATM   11  H   UNK N   1      25.105  13.513   8.051  0.00  0.00     0.220 HD
ENDBRANCH   8  10
BRANCH   8  12
HETATM   12  O   UNK N   1      23.473  11.004   7.979  0.00  0.00    -0.212 OA
BRANCH  12  13
HETATM   13  P   UNK N   1      23.348  12.008   9.408  0.00  0.00     0.409 P 
HETATM   14  O   UNK N   1      24.772  12.295   9.959  0.00  0.00    -0.631 OA
BRANCH  13  15
HETATM   15  O   UNK N   1      22.422  11.266  10.675  0.00  0.00    -0.307 OA
HETATM   16  H   UNK N   1      22.083  10.363  10.781  0.00  0.00     0.222 HD
ENDBRANCH  13  15
BRANCH  13  17
HETATM   17  O   UNK N   1      22.663  13.554   8.979  0.00  0.00    -0.195 OA
BRANCH  17  18
HETATM   18  P   UNK N   1      21.129  13.622   9.805  0.00  0.00     0.399 P 
HETATM   19  O   UNK N   1      21.351  15.107   9.411  0.00  0.00    -0.631 OA
BRANCH  18  20
HETATM   20  O   UNK N   1      19.672  14.016   8.949  0.00  0.00    -0.307 OA
HETATM   21  H   UNK N   1      18.879  14.354   9.395  0.00  0.00     0.222 HD
ENDBRANCH  18  20
BRANCH  18  22
HETATM   22  O   UNK N   1      20.985  12.655   8.369  0.00  0.00    -0.307 OA
HETATM   23  H   UNK N   1      21.305  11.744   8.285  0.00  0.00     0.222 HD
ENDBRANCH  18  22
ENDBRANCH  17  18
ENDBRANCH  13  17
ENDBRANCH  12  13
ENDBRANCH   8  12
ENDBRANCH   7   8
ENDBRANCH   6   7
ENDBRANCH   1   6
BRANCH   2  24
HETATM   24  O   UNK N   1      19.796  13.746   5.961  0.00  0.00    -0.390 OA
HETATM   25  H   UNK N   1      19.933  14.213   6.799  0.00  0.00     0.210 HD
ENDBRANCH   2  24
BRANCH   3  26
HETATM   26  O   UNK N   1      18.700  14.379   3.220  0.00  0.00    -0.388 OA
HETATM   27  H   UNK N   1      17.732  14.301   3.208  0.00  0.00     0.210 HD
ENDBRANCH   3  26
BRANCH   4  28
HETATM   28  N   UNK N   1      20.698  16.597   2.194  0.00  0.00    -0.297 N 
HETATM   29  C   UNK N   1      20.253  16.613   0.909  0.00  0.00     0.188 A 
HETATM   30  N   UNK N   1      20.147  17.885   0.431  0.00  0.00    -0.346 N 
HETATM   31  C   UNK N   1      20.531  18.660   1.459  0.00  0.00     0.122 A 
ATOM     32  HN  UNK N   1      19.844  18.181  -0.496  1.00  0.00     0.167 HD
HETATM   33  C   UNK N   1      20.619  20.042   1.543  0.00  0.00     0.131 A 
HETATM   34  C   UNK N   1      20.858  17.894   2.517  0.00  0.00     0.142 A 
HETATM   35  N   UNK N   1      21.037  20.587   2.723  0.00  0.00    -0.337 N 
HETATM   36  C   UNK N   1      21.360  19.788   3.794  0.00  0.00     0.183 A 
ATOM     37  HN  UNK N   1      21.110  21.601   2.811  1.00  0.00     0.168 HD
HETATM   38  N   UNK N   1      21.272  18.426   3.694  0.00  0.00    -0.336 N 
ATOM     39  HN  UNK N   1      21.512  17.828   4.483  1.00  0.00     0.168 HD
BRANCH  33  40
HETATM   40  N   UNK N   1      20.290  20.865   0.447  0.00  0.00    -0.383 N 
HETATM   41  H   UNK N   1      20.789  20.800  -0.399  0.00  0.00     0.157 HD
HETATM   42  H   UNK N   1      19.552  21.512   0.529  0.00  0.00     0.157 HD
ENDBRANCH  33  40
ENDBRANCH   4  28
TORSDOF 15
ENDMDL
MODEL 4
REMARK VINA RESULT:      -7.2      6.692     11.028
REMARK  15 active torsions:
REMARK  status: ('A' for Active; 'I' for Inactive)
REMARK    1  A    between atoms: C_4  and  C_1 
REMARK    2  A    between atoms: O_27  and  C_1 
REMARK    3  A    between atoms: C_6  and  O_19 
REMARK    4  A    between atoms: C_7  and  O_20 
REMARK    5  A    between atoms: N_11  and  C_8 
REMARK    6  A    between atoms: C_10  and  N_18 
REMARK    7  A    between atoms: P_31  and  O_21 
REMARK    8  A    between atoms: P_31  and  O_22 
REMARK    9  A    between atoms: P_32  and  O_24 
REMARK   10  A    between atoms: P_33  and  O_26 
REMARK   11  A    between atoms: P_33  and  O_27 
REMARK   12  A    between atoms: P_31  and  O_29 
REMARK   13  A    between atoms: P_32  and  O_29 
REMARK   14  A    between atoms: P_32  and  O_30 
REMARK   15  A    between atoms: P_33  and  O_30 
ROOT
HETATM    1  C   UNK N   1      27.416  17.414   5.632  0.00  0.00     0.179 C 
HETATM    2  C   UNK N   1      28.196  17.689   4.357  0.00  0.00     0.182 C 
HETATM    3  C   UNK N   1      29.528  17.959   4.971  0.00  0.00     0.198 C 
HETATM    4  C   UNK N   1      29.574  16.783   5.946  0.00  0.00     0.262 C 
HETATM    5  O   UNK N   1      28.264  16.656   6.482  0.00  0.00    -0.353 OA
ENDROOT
BRANCH   1   6
HETATM    6  C   UNK N   1      26.091  16.717   5.326  0.00  0.00     0.213 C 
BRANCH   6   7
HETATM    7  O   UNK N   1      25.272  17.474   4.480  0.00  0.00    -0.311 OA
BRANCH   7   8
HETATM    8  P   UNK N   1      23.649  17.005   4.915  0.00  0.00     0.335 P 
HETATM    9  S   UNK N   1      23.688  15.493   5.843  0.00  0.00    -0.007 SA
BRANCH   8  10
HETATM   10  O   UNK N   1      22.989  18.195   5.995  0.00  0.00    -0.324 OA
HETATM   11  H   UNK N   1      22.643  18.064   6.892  0.00  0.00     0.220 HD
ENDBRANCH   8  10
BRANCH   8  12
HETATM   12  O   UNK N   1      22.555  16.913   3.547  0.00  0.00    -0.212 OA
BRANCH  12  13
HETATM   13  P   UNK N   1      20.971  17.518   3.982  0.00  0.00     0.409 P 
HETATM   14  O   UNK N   1      20.478  16.790   5.263  0.00  0.00    -0.631 OA
BRANCH  13  15
HETATM   15  O   UNK N   1      19.789  17.270   2.735  0.00  0.00    -0.307 OA
HETATM   16  H   UNK N   1      19.860  17.286   1.767  0.00  0.00     0.222 HD
ENDBRANCH  13  15
BRANCH  13  17
HETATM   17  O   UNK N   1      21.082  19.211   4.387  0.00  0.00    -0.195 OA
BRANCH  17  18
HETATM   18  P   UNK N   1      20.997  20.055   2.864  0.00  0.00     0.399 P 
HETATM   19  O   UNK N   1      20.124  20.953   3.781  0.00  0.00    -0.631 OA
BRANCH  18  20
HETATM   20  O   UNK N   1      21.718  21.621   2.670  0.00  0.00    -0.307 OA
HETATM   21  H   UNK N   1      22.672  21.773   2.768  0.00  0.00     0.222 HD
ENDBRANCH  18  20
BRANCH  18  22
HETATM   22  O   UNK N   1      22.633  20.048   3.445  0.00  0.00    -0.307 OA
HETATM   23  H   UNK N   1      23.319  19.429   3.152  0.00  0.00     0.222 HD
ENDBRANCH  18  22
ENDBRANCH  17  18
ENDBRANCH  13  17
ENDBRANCH  12  13
ENDBRANCH   8  12
ENDBRANCH   7   8
ENDBRANCH   6   7
ENDBRANCH   1   6
BRANCH   2  24
HETATM   24  O   UNK N   1      27.694  18.779   3.640  0.00  0.00    -0.390 OA
HETATM   25  H   UNK N   1      28.223  19.556   3.403  0.00  0.00     0.210 HD
ENDBRANCH   2  24
BRANCH   3  26
HETATM   26  O   UNK N   1      30.569  17.946   4.040  0.00  0.00    -0.388 OA
HETATM   27  H   UNK N   1      30.904  18.388   3.243  0.00  0.00     0.210 HD
ENDBRANCH   3  26
BRANCH   4  28
HETATM   28  N   UNK N   1      30.563  16.924   7.026  0.00  0.00    -0.297 N 
HETATM   29  C   UNK N   1      30.243  17.190   8.320  0.00  0.00     0.188 A 
HETATM   30  N   UNK N   1      31.355  17.278   9.104  0.00  0.00    -0.346 N 
HETATM   31  C   UNK N   1      32.375  17.051   8.261  0.00  0.00     0.122 A 
ATOM     32  HN  UNK N   1      31.400  17.472  10.104  1.00  0.00     0.167 HD
HETATM   33  C   UNK N   1      33.739  17.017   8.509  0.00  0.00     0.131 A 
HETATM   34  C   UNK N   1      31.906  16.835   7.016  0.00  0.00     0.142 A 
HETATM   35  N   UNK N   1      34.575  16.753   7.461  0.00  0.00    -0.337 N 
HETATM   36  C   UNK N   1      34.076  16.529   6.201  0.00  0.00     0.183 A 
ATOM     37  HN  UNK N   1      35.583  16.722   7.617  1.00  0.00     0.168 HD
HETATM   38  N   UNK N   1      32.727  16.570   5.971  0.00  0.00    -0.336 N 
ATOM     39  HN  UNK N   1      32.352  16.407   5.038  1.00  0.00     0.168 HD
BRANCH  33  40
HETATM   40  N   UNK N   1      34.255  17.247   9.800  0.00  0.00    -0.383 N 
HETATM   41  H   UNK N   1      34.878  16.607  10.215  0.00  0.00     0.157 HD
HETATM   42  H   UNK N   1      33.989  18.057  10.293  0.00  0.00     0.157 HD
ENDBRANCH  33  40
ENDBRANCH   4  28
TORSDOF 15
ENDMDL
MODEL 5
REMARK VINA RESULT:      -7.1      1.741      2.085
REMARK  15 active torsions:
REMARK  status: ('A' for Active; 'I' for Inactive)
REMARK    1  A    between atoms: C_4  and  C_1 
REMARK    2  A    between atoms: O_27  and  C_1 
REMARK    3  A    between atoms: C_6  and  O_19 
REMARK    4  A    between atoms: C_7  and  O_20 
REMARK    5  A    between atoms: N_11  and  C_8 
REMARK    6  A    between atoms: C_10  and  N_18 
REMARK    7  A    between atoms: P_31  and  O_21 
REMARK    8  A    between atoms: P_31  and  O_22 
REMARK    9  A    between atoms: P_32  and  O_24 
REMARK   10  A    between atoms: P_33  and  O_26 
REMARK   11  A    between atoms: P_33  and  O_27 
REMARK   12  A    between atoms: P_31  and  O_29 
REMARK   13  A    between atoms: P_32  and  O_29 
REMARK   14  A    between atoms: P_32  and  O_30 
REMARK   15  A    between atoms: P_33  and  O_30 
ROOT
HETATM    1  C   UNK N   1      31.707  16.018   7.266  0.00  0.00     0.179 C 
HETATM    2  C   UNK N   1      31.419  16.810   8.531  0.00  0.00     0.182 C 
HETATM    3  C   UNK N   1      30.599  17.899   7.924  0.00  0.00     0.198 C 
HETATM    4  C   UNK N   1      29.691  17.038   7.046  0.00  0.00     0.262 C 
HETATM    5  O   UNK N   1      30.515  16.019   6.496  0.00  0.00    -0.353 OA
ENDROOT
BRANCH   1   6
HETATM    6  C   UNK N   1      32.207  14.613   7.600  0.00  0.00     0.213 C 
BRANCH   6   7
HETATM    7  O   UNK N   1      32.803  14.545   8.865  0.00  0.00    -0.311 OA
BRANCH   7   8
HETATM    8  P   UNK N   1      34.507  14.376   8.532  0.00  0.00     0.335 P 
HETATM    9  S   UNK N   1      34.740  13.394   7.073  0.00  0.00    -0.007 SA
BRANCH   8  10
HETATM   10  O   UNK N   1      35.165  15.938   8.150  0.00  0.00    -0.324 OA
HETATM   11  H   UNK N   1      36.065  16.154   7.860  0.00  0.00     0.220 HD
ENDBRANCH   8  10
BRANCH   8  12
HETATM   12  O   UNK N   1      35.431  13.766   9.893  0.00  0.00    -0.212 OA
BRANCH  12  13
HETATM   13  P   UNK N   1      35.958  15.082  10.920  0.00  0.00     0.409 P 
HETATM   14  O   UNK N   1      34.900  16.220  10.880  0.00  0.00    -0.631 OA
BRANCH  13  15
HETATM   15  O   UNK N   1      37.484  15.749  10.432  0.00  0.00    -0.307 OA
HETATM   16  H   UNK N   1      37.966  15.707   9.591  0.00  0.00     0.222 HD
ENDBRANCH  13  15
BRANCH  13  17
HETATM   17  O   UNK N   1      36.034  14.538  12.576  0.00  0.00    -0.195 OA
BRANCH  17  18
HETATM   18  P   UNK N   1      35.592  12.852  12.527  0.00  0.00     0.399 P 
HETATM   19  O   UNK N   1      36.096  13.012  13.987  0.00  0.00    -0.631 OA
BRANCH  18  20
HETATM   20  O   UNK N   1      34.261  12.250  13.463  0.00  0.00    -0.307 OA
HETATM   21  H   UNK N   1      34.359  11.962  14.385  0.00  0.00     0.222 HD
ENDBRANCH  18  20
BRANCH  18  22
HETATM   22  O   UNK N   1      34.184  13.838  12.287  0.00  0.00    -0.307 OA
HETATM   23  H   UNK N   1      34.095  14.514  11.598  0.00  0.00     0.222 HD
ENDBRANCH  18  22
ENDBRANCH  17  18
ENDBRANCH  13  17
ENDBRANCH  12  13
ENDBRANCH   8  12
ENDBRANCH   7   8
ENDBRANCH   6   7
ENDBRANCH   1   6
BRANCH   2  24
HETATM   24  O   UNK N   1      32.580  17.283   9.150  0.00  0.00    -0.390 OA
HETATM   25  H   UNK N   1      33.243  17.830   8.702  0.00  0.00     0.210 HD
ENDBRANCH   2  24
BRANCH   3  26
HETATM   26  O   UNK N   1      29.901  18.648   8.873  0.00  0.00    -0.388 OA
HETATM   27  H   UNK N   1      29.495  18.601   9.754  0.00  0.00     0.210 HD
ENDBRANCH   3  26
BRANCH   4  28
HETATM   28  N   UNK N   1      28.998  17.776   5.978  0.00  0.00    -0.297 N 
HETATM   29  C   UNK N   1      29.115  17.486   4.654  0.00  0.00     0.188 A 
HETATM   30  N   UNK N   1      28.373  18.335   3.888  0.00  0.00    -0.346 N 
HETATM   31  C   UNK N   1      27.786  19.156   4.773  0.00  0.00     0.122 A 
ATOM     32  HN  UNK N   1      28.285  18.343   2.872  1.00  0.00     0.167 HD
HETATM   33  C   UNK N   1      26.918  20.216   4.559  0.00  0.00     0.131 A 
HETATM   34  C   UNK N   1      28.155  18.823   6.026  0.00  0.00     0.142 A 
HETATM   35  N   UNK N   1      26.453  20.895   5.649  0.00  0.00    -0.337 N 
HETATM   36  C   UNK N   1      26.835  20.535   6.919  0.00  0.00     0.183 A 
ATOM     37  HN  UNK N   1      25.813  21.678   5.518  1.00  0.00     0.168 HD
HETATM   38  N   UNK N   1      27.696  19.489   7.114  0.00  0.00    -0.336 N 
ATOM     39  HN  UNK N   1      27.985  19.219   8.053  1.00  0.00     0.168 HD
BRANCH  33  40
HETATM   40  N   UNK N   1      26.524  20.588   3.258  0.00  0.00    -0.383 N 
HETATM   41  H   UNK N   1      27.164  21.007   2.638  0.00  0.00     0.157 HD
HETATM   42  H   UNK N   1      25.597  20.429   2.966  0.00  0.00     0.157 HD
ENDBRANCH  33  40
ENDBRANCH   4  28
TORSDOF 15
ENDMDL
MODEL 6
REMARK VINA RESULT:      -7.1      2.443      4.067
REMARK  15 active torsions:
REMARK  status: ('A' for Active; 'I' for Inactive)
REMARK    1  A    between atoms: C_4  and  C_1 
REMARK    2  A    between atoms: O_27  and  C_1 
REMARK    3  A    between atoms: C_6  and  O_19 
REMARK    4  A    between atoms: C_7  and  O_20 
REMARK    5  A    between atoms: N_11  and  C_8 
REMARK    6  A    between atoms: C_10  and  N_18 
REMARK    7  A    between atoms: P_31  and  O_21 
REMARK    8  A    between atoms: P_31  and  O_22 
REMARK    9  A    between atoms: P_32  and  O_24 
REMARK   10  A    between atoms: P_33  and  O_26 
REMARK   11  A    between atoms: P_33  and  O_27 
REMARK   12  A    between atoms: P_31  and  O_29 
REMARK   13  A    between atoms: P_32  and  O_29 
REMARK   14  A    between atoms: P_32  and  O_30 
REMARK   15  A    between atoms: P_33  and  O_30 
ROOT
HETATM    1  C   UNK N   1      34.302  15.971   7.761  0.00  0.00     0.179 C 
HETATM    2  C   UNK N   1      33.489  16.043   9.042  0.00  0.00     0.182 C 
HETATM    3  C   UNK N   1      32.331  16.827   8.522  0.00  0.00     0.198 C 
HETATM    4  C   UNK N   1      32.098  16.057   7.223  0.00  0.00     0.262 C 
HETATM    5  O   UNK N   1      33.385  15.757   6.699  0.00  0.00    -0.353 OA
ENDROOT
BRANCH   1   6
HETATM    6  C   UNK N   1      35.379  14.891   7.853  0.00  0.00     0.213 C 
BRANCH   6   7
HETATM    7  O   UNK N   1      35.172  14.021   8.932  0.00  0.00    -0.311 OA
BRANCH   7   8
HETATM    8  P   UNK N   1      36.703  13.999   9.769  0.00  0.00     0.335 P 
HETATM    9  S   UNK N   1      38.025  13.825   8.599  0.00  0.00    -0.007 SA
BRANCH   8  10
HETATM   10  O   UNK N   1      36.954  15.543  10.526  0.00  0.00    -0.324 OA
HETATM   11  H   UNK N   1      36.368  16.009  11.143  0.00  0.00     0.220 HD
ENDBRANCH   8  10
BRANCH   8  12
HETATM   12  O   UNK N   1      36.787  12.799  11.045  0.00  0.00    -0.212 OA
BRANCH  12  13
HETATM   13  P   UNK N   1      35.262  12.698  11.898  0.00  0.00     0.409 P 
HETATM   14  O   UNK N   1      34.493  11.433  11.425  0.00  0.00    -0.631 OA
BRANCH  13  15
HETATM   15  O   UNK N   1      34.244  14.077  11.627  0.00  0.00    -0.307 OA
HETATM   16  H   UNK N   1      33.700  14.338  10.867  0.00  0.00     0.222 HD
ENDBRANCH  13  15
BRANCH  13  17
HETATM   17  O   UNK N   1      35.558  12.486  13.604  0.00  0.00    -0.195 OA
BRANCH  17  18
HETATM   18  P   UNK N   1      36.318  13.966  14.126  0.00  0.00     0.399 P 
HETATM   19  O   UNK N   1      35.554  13.527  15.404  0.00  0.00    -0.631 OA
BRANCH  18  20
HETATM   20  O   UNK N   1      37.563  13.952  15.335  0.00  0.00    -0.307 OA
HETATM   21  H   UNK N   1      37.883  13.133  15.746  0.00  0.00     0.222 HD
ENDBRANCH  18  20
BRANCH  18  22
HETATM   22  O   UNK N   1      37.530  12.784  13.739  0.00  0.00    -0.307 OA
HETATM   23  H   UNK N   1      37.375  11.828  13.701  0.00  0.00     0.222 HD
ENDBRANCH  18  22
ENDBRANCH  17  18
ENDBRANCH  13  17
ENDBRANCH  12  13
ENDBRANCH   8  12
ENDBRANCH   7   8
ENDBRANCH   6   7
ENDBRANCH   1   6
BRANCH   2  24
HETATM   24  O   UNK N   1      34.166  16.693  10.078  0.00  0.00    -0.390 OA
HETATM   25  H   UNK N   1      34.635  17.534   9.969  0.00  0.00     0.210 HD
ENDBRANCH   2  24
BRANCH   3  26
HETATM   26  O   UNK N   1      31.231  16.808   9.381  0.00  0.00    -0.388 OA
HETATM   27  H   UNK N   1      30.945  17.030  10.282  0.00  0.00     0.210 HD
ENDBRANCH   3  26
BRANCH   4  28
HETATM   28  N   UNK N   1      31.288  16.773   6.226  0.00  0.00    -0.297 N 
HETATM   29  C   UNK N   1      31.762  17.203   5.027  0.00  0.00     0.188 A 
HETATM   30  N   UNK N   1      30.799  17.845   4.307  0.00  0.00    -0.346 N 
HETATM   31  C   UNK N   1      29.709  17.795   5.090  0.00  0.00     0.122 A 
ATOM     32  HN  UNK N   1      30.887  18.267   3.383  1.00  0.00     0.167 HD
HETATM   33  C   UNK N   1      28.433  18.290   4.866  0.00  0.00     0.131 A 
HETATM   34  C   UNK N   1      29.996  17.151   6.239  0.00  0.00     0.142 A 
HETATM   35  N   UNK N   1      27.492  18.096   5.836  0.00  0.00    -0.337 N 
HETATM   36  C   UNK N   1      27.801  17.431   6.997  0.00  0.00     0.183 A 
ATOM     37  HN  UNK N   1      26.545  18.450   5.695  1.00  0.00     0.168 HD
HETATM   38  N   UNK N   1      29.067  16.952   7.206  0.00  0.00    -0.336 N 
ATOM     39  HN  UNK N   1      29.304  16.460   8.066  1.00  0.00     0.168 HD
BRANCH  33  40
HETATM   40  N   UNK N   1      28.111  18.973   3.677  0.00  0.00    -0.383 N 
HETATM   41  H   UNK N   1      28.540  18.730   2.824  0.00  0.00     0.157 HD
HETATM   42  H   UNK N   1      27.450  19.703   3.698  0.00  0.00     0.157 HD
ENDBRANCH  33  40
ENDBRANCH   4  28
TORSDOF 15
ENDMDL
MODEL 7
REMARK VINA RESULT:      -7.1      7.854     11.567
REMARK  15 active torsions:
REMARK  status: ('A' for Active; 'I' for Inactive)
REMARK    1  A    between atoms: C_4  and  C_1 
REMARK    2  A    between atoms: O_27  and  C_1 
REMARK    3  A    between atoms: C_6  and  O_19 
REMARK    4  A    between atoms: C_7  and  O_20 
REMARK    5  A    between atoms: N_11  and  C_8 
REMARK    6  A    between atoms: C_10  and  N_18 
REMARK    7  A    between atoms: P_31  and  O_21 
REMARK    8  A    between atoms: P_31  and  O_22 
REMARK    9  A    between atoms: P_32  and  O_24 
REMARK   10  A    between atoms: P_33  and  O_26 
REMARK   11  A    between atoms: P_33  and  O_27 
REMARK   12  A    between atoms: P_31  and  O_29 
REMARK   13  A    between atoms: P_32  and  O_29 
REMARK   14  A    between atoms: P_32  and  O_30 
REMARK   15  A    between atoms: P_33  and  O_30 
ROOT
HETATM    1  C   UNK N   1      25.250  18.142   4.771  0.00  0.00     0.179 C 
HETATM    2  C   UNK N   1      25.765  19.249   3.866  0.00  0.00     0.182 C 
HETATM    3  C   UNK N   1      27.112  19.425   4.484  0.00  0.00     0.198 C 
HETATM    4  C   UNK N   1      27.505  17.953   4.599  0.00  0.00     0.262 C 
HETATM    5  O   UNK N   1      26.334  17.256   5.002  0.00  0.00    -0.353 OA
ENDROOT
BRANCH   1   6
HETATM    6  C   UNK N   1      24.030  17.454   4.158  0.00  0.00     0.213 C 
BRANCH   6   7
HETATM    7  O   UNK N   1      23.220  16.843   5.122  0.00  0.00    -0.311 OA
BRANCH   7   8
HETATM    8  P   UNK N   1      21.591  17.210   4.616  0.00  0.00     0.335 P 
HETATM    9  S   UNK N   1      20.434  16.557   5.792  0.00  0.00    -0.007 SA
BRANCH   8  10
HETATM   10  O   UNK N   1      21.365  18.932   4.650  0.00  0.00    -0.324 OA
HETATM   11  H   UNK N   1      20.538  19.426   4.770  0.00  0.00     0.220 HD
ENDBRANCH   8  10
BRANCH   8  12
HETATM   12  O   UNK N   1      21.233  16.693   2.979  0.00  0.00    -0.212 OA
BRANCH  12  13
HETATM   13  P   UNK N   1      20.368  17.944   2.112  0.00  0.00     0.409 P 
HETATM   14  O   UNK N   1      19.159  18.418   2.965  0.00  0.00    -0.631 OA
BRANCH  13  15
HETATM   15  O   UNK N   1      19.764  17.407   0.577  0.00  0.00    -0.307 OA
HETATM   16  H   UNK N   1      19.346  16.574   0.303  0.00  0.00     0.222 HD
ENDBRANCH  13  15
BRANCH  13  17
HETATM   17  O   UNK N   1      21.401  19.335   1.906  0.00  0.00    -0.195 OA
BRANCH  17  18
HETATM   18  P   UNK N   1      20.324  20.705   1.853  0.00  0.00     0.399 P 
HETATM   19  O   UNK N   1      21.572  21.301   2.558  0.00  0.00    -0.631 OA
BRANCH  18  20
HETATM   20  O   UNK N   1      20.692  22.092   0.878  0.00  0.00    -0.307 OA
HETATM   21  H   UNK N   1      20.049  22.801   0.715  0.00  0.00     0.222 HD
ENDBRANCH  18  20
BRANCH  18  22
HETATM   22  O   UNK N   1      20.744  20.221   0.239  0.00  0.00    -0.307 OA
HETATM   23  H   UNK N   1      20.330  19.488  -0.242  0.00  0.00     0.222 HD
ENDBRANCH  18  22
ENDBRANCH  17  18
ENDBRANCH  13  17
ENDBRANCH  12  13
ENDBRANCH   8  12
ENDBRANCH   7   8
ENDBRANCH   6   7
ENDBRANCH   1   6
BRANCH   2  24
HETATM   24  O   UNK N   1      24.982  20.405   3.926  0.00  0.00    -0.390 OA
HETATM   25  H   UNK N   1      24.671  20.884   3.143  0.00  0.00     0.210 HD
ENDBRANCH   2  24
BRANCH   3  26
HETATM   26  O   UNK N   1      27.982  20.170   3.686  0.00  0.00    -0.388 OA
HETATM   27  H   UNK N   1      28.270  21.075   3.485  0.00  0.00     0.210 HD
ENDBRANCH   3  26
BRANCH   4  28
HETATM   28  N   UNK N   1      28.611  17.688   5.532  0.00  0.00    -0.297 N 
HETATM   29  C   UNK N   1      29.869  17.350   5.145  0.00  0.00     0.188 A 
HETATM   30  N   UNK N   1      30.688  17.153   6.216  0.00  0.00    -0.346 N 
HETATM   31  C   UNK N   1      29.904  17.385   7.282  0.00  0.00     0.122 A 
ATOM     32  HN  UNK N   1      31.673  16.888   6.209  1.00  0.00     0.167 HD
HETATM   33  C   UNK N   1      30.208  17.333   8.634  0.00  0.00     0.131 A 
HETATM   34  C   UNK N   1      28.661  17.709   6.877  0.00  0.00     0.142 A 
HETATM   35  N   UNK N   1      29.215  17.624   9.526  0.00  0.00    -0.337 N 
HETATM   36  C   UNK N   1      27.955  17.960   9.093  0.00  0.00     0.183 A 
ATOM     37  HN  UNK N   1      29.413  17.593  10.526  1.00  0.00     0.168 HD
HETATM   38  N   UNK N   1      27.670  18.003   7.755  0.00  0.00    -0.336 N 
ATOM     39  HN  UNK N   1      26.737  18.249   7.428  1.00  0.00     0.168 HD
BRANCH  33  40
HETATM   40  N   UNK N   1      31.499  16.988   9.082  0.00  0.00    -0.383 N 
HETATM   41  H   UNK N   1      32.032  17.621   9.616  0.00  0.00     0.157 HD
HETATM   42  H   UNK N   1      31.872  16.105   8.858  0.00  0.00     0.157 HD
ENDBRANCH  33  40
ENDBRANCH   4  28
TORSDOF 15
ENDMDL
MODEL 8
REMARK VINA RESULT:      -7.1      3.011      4.920
REMARK  15 active torsions:
REMARK  status: ('A' for Active; 'I' for Inactive)
REMARK    1  A    between atoms: C_4  and  C_1 
REMARK    2  A    between atoms: O_27  and  C_1 
REMARK    3  A    between atoms: C_6  and  O_19 
REMARK    4  A    between atoms: C_7  and  O_20 
REMARK    5  A    between atoms: N_11  and  C_8 
REMARK    6  A    between atoms: C_10  and  N_18 
REMARK    7  A    between atoms: P_31  and  O_21 
REMARK    8  A    between atoms: P_31  and  O_22 
REMARK    9  A    between atoms: P_32  and  O_24 
REMARK   10  A    between atoms: P_33  and  O_26 
REMARK   11  A    between atoms: P_33  and  O_27 
REMARK   12  A    between atoms: P_31  and  O_29 
REMARK   13  A    between atoms: P_32  and  O_29 
REMARK   14  A    between atoms: P_32  and  O_30 
REMARK   15  A    between atoms: P_33  and  O_30 
ROOT
HETATM    1  C   UNK N   1      33.761  14.513   7.832  0.00  0.00     0.179 C 
HETATM    2  C   UNK N   1      34.751  15.523   7.277  0.00  0.00     0.182 C 
HETATM    3  C   UNK N   1      33.781  16.426   6.592  0.00  0.00     0.198 C 
HETATM    4  C   UNK N   1      32.747  16.540   7.712  0.00  0.00     0.262 C 
HETATM    5  O   UNK N   1      32.632  15.245   8.285  0.00  0.00    -0.353 OA
ENDROOT
BRANCH   1   6
HETATM    6  C   UNK N   1      34.402  13.658   8.924  0.00  0.00     0.213 C 
BRANCH   6   7
HETATM    7  O   UNK N   1      35.673  14.121   9.289  0.00  0.00    -0.311 OA
BRANCH   7   8
HETATM    8  P   UNK N   1      35.431  14.871  10.845  0.00  0.00     0.335 P 
HETATM    9  S   UNK N   1      35.326  16.632  10.654  0.00  0.00    -0.007 SA
BRANCH   8  10
HETATM   10  O   UNK N   1      33.887  14.380  11.473  0.00  0.00    -0.324 OA
HETATM   11  H   UNK N   1      33.542  13.479  11.580  0.00  0.00     0.220 HD
ENDBRANCH   8  10
BRANCH   8  12
HETATM   12  O   UNK N   1      36.626  14.405  12.041  0.00  0.00    -0.212 OA
BRANCH  12  13
HETATM   13  P   UNK N   1      36.563  12.681  12.337  0.00  0.00     0.409 P 
HETATM   14  O   UNK N   1      37.840  12.014  11.754  0.00  0.00    -0.631 OA
BRANCH  13  15
HETATM   15  O   UNK N   1      35.181  11.922  11.612  0.00  0.00    -0.307 OA
HETATM   16  H   UNK N   1      35.052  11.032  11.247  0.00  0.00     0.222 HD
ENDBRANCH  13  15
BRANCH  13  17
HETATM   17  O   UNK N   1      36.591  12.381  14.055  0.00  0.00    -0.195 OA
BRANCH  17  18
HETATM   18  P   UNK N   1      34.963  11.913  14.467  0.00  0.00     0.399 P 
HETATM   19  O   UNK N   1      35.721  11.647  15.795  0.00  0.00    -0.631 OA
BRANCH  18  20
HETATM   20  O   UNK N   1      34.040  12.816  15.625  0.00  0.00    -0.307 OA
HETATM   21  H   UNK N   1      33.167  13.189  15.422  0.00  0.00     0.222 HD
ENDBRANCH  18  20
BRANCH  18  22
HETATM   22  O   UNK N   1      35.014  13.609  14.097  0.00  0.00    -0.307 OA
HETATM   23  H   UNK N   1      35.034  14.317  14.759  0.00  0.00     0.222 HD
ENDBRANCH  18  22
ENDBRANCH  17  18
ENDBRANCH  13  17
ENDBRANCH  12  13
ENDBRANCH   8  12
ENDBRANCH   7   8
ENDBRANCH   6   7
ENDBRANCH   1   6
BRANCH   2  24
HETATM   24  O   UNK N   1      35.674  14.949   6.398  0.00  0.00    -0.390 OA
HETATM   25  H   UNK N   1      35.550  14.910   5.437  0.00  0.00     0.210 HD
ENDBRANCH   2  24
BRANCH   3  26
HETATM   26  O   UNK N   1      34.341  17.652   6.230  0.00  0.00    -0.388 OA
HETATM   27  H   UNK N   1      34.828  18.417   6.578  0.00  0.00     0.210 HD
ENDBRANCH   3  26
BRANCH   4  28
HETATM   28  N   UNK N   1      31.429  17.031   7.277  0.00  0.00    -0.297 N 
HETATM   29  C   UNK N   1      31.012  17.047   5.984  0.00  0.00     0.188 A 
HETATM   30  N   UNK N   1      29.756  17.563   5.868  0.00  0.00    -0.346 N 
HETATM   31  C   UNK N   1      29.401  17.861   7.129  0.00  0.00     0.122 A 
ATOM     32  HN  UNK N   1      29.210  17.693   5.016  1.00  0.00     0.167 HD
HETATM   33  C   UNK N   1      28.223  18.413   7.611  0.00  0.00     0.131 A 
HETATM   34  C   UNK N   1      30.398  17.541   7.976  0.00  0.00     0.142 A 
HETATM   35  N   UNK N   1      28.113  18.610   8.958  0.00  0.00    -0.337 N 
HETATM   36  C   UNK N   1      29.138  18.271   9.807  0.00  0.00     0.183 A 
ATOM     37  HN  UNK N   1      27.257  19.014   9.338  1.00  0.00     0.168 HD
HETATM   38  N   UNK N   1      30.296  17.731   9.314  0.00  0.00    -0.336 N 
ATOM     39  HN  UNK N   1      31.062  17.479   9.939  1.00  0.00     0.168 HD
BRANCH  33  40
HETATM   40  N   UNK N   1      27.169  18.763   6.744  0.00  0.00    -0.383 N 
HETATM   41  H   UNK N   1      26.718  19.634   6.826  0.00  0.00     0.157 HD
HETATM   42  H   UNK N   1      26.880  18.129   6.049  0.00  0.00     0.157 HD
ENDBRANCH  33  40
ENDBRANCH   4  28
TORSDOF 15
ENDMDL
MODEL 9
REMARK VINA RESULT:      -7.0     15.325     17.717
REMARK  15 active torsions:
REMARK  status: ('A' for Active; 'I' for Inactive)
REMARK    1  A    between atoms: C_4  and  C_1 
REMARK    2  A    between atoms: O_27  and  C_1 
REMARK    3  A    between atoms: C_6  and  O_19 
REMARK    4  A    between atoms: C_7  and  O_20 
REMARK    5  A    between atoms: N_11  and  C_8 
REMARK    6  A    between atoms: C_10  and  N_18 
REMARK    7  A    between atoms: P_31  and  O_21 
REMARK    8  A    between atoms: P_31  and  O_22 
REMARK    9  A    between atoms: P_32  and  O_24 
REMARK   10  A    between atoms: P_33  and  O_26 
REMARK   11  A    between atoms: P_33  and  O_27 
REMARK   12  A    between atoms: P_31  and  O_29 
REMARK   13  A    between atoms: P_32  and  O_29 
REMARK   14  A    between atoms: P_32  and  O_30 
REMARK   15  A    between atoms: P_33  and  O_30 
ROOT
HETATM    1  C   UNK N   1      42.570  22.226   2.840  0.00  0.00     0.179 C 
HETATM    2  C   UNK N   1      43.747  23.012   3.393  0.00  0.00     0.182 C 
HETATM    3  C   UNK N   1      44.556  21.866   3.900  0.00  0.00     0.198 C 
HETATM    4  C   UNK N   1      44.440  20.948   2.684  0.00  0.00     0.262 C 
HETATM    5  O   UNK N   1      43.101  21.064   2.221  0.00  0.00    -0.353 OA
ENDROOT
BRANCH   1   6
HETATM    6  C   UNK N   1      41.732  23.084   1.894  0.00  0.00     0.213 C 
BRANCH   6   7
HETATM    7  O   UNK N   1      41.594  22.503   0.627  0.00  0.00    -0.311 OA
BRANCH   7   8
HETATM    8  P   UNK N   1      41.944  23.802  -0.485  0.00  0.00     0.335 P 
HETATM    9  S   UNK N   1      40.769  23.788  -1.815  0.00  0.00    -0.007 SA
BRANCH   8  10
HETATM   10  O   UNK N   1      41.707  25.319   0.327  0.00  0.00    -0.324 OA
HETATM   11  H   UNK N   1      41.677  26.208  -0.060  0.00  0.00     0.220 HD
ENDBRANCH   8  10
BRANCH   8  12
HETATM   12  O   UNK N   1      43.599  23.800  -1.065  0.00  0.00    -0.212 OA
BRANCH  12  13
HETATM   13  P   UNK N   1      44.393  25.309  -0.669  0.00  0.00     0.409 P 
HETATM   14  O   UNK N   1      43.613  26.485  -1.318  0.00  0.00    -0.631 OA
BRANCH  13  15
HETATM   15  O   UNK N   1      46.033  25.377  -1.232  0.00  0.00    -0.307 OA
HETATM   16  H   UNK N   1      46.753  24.726  -1.202  0.00  0.00     0.222 HD
ENDBRANCH  13  15
BRANCH  13  17
HETATM   17  O   UNK N   1      44.331  25.569   1.055  0.00  0.00    -0.195 OA
BRANCH  17  18
HETATM   18  P   UNK N   1      45.993  25.719   1.559  0.00  0.00     0.399 P 
HETATM   19  O   UNK N   1      45.228  26.066   2.864  0.00  0.00    -0.631 OA
BRANCH  18  20
HETATM   20  O   UNK N   1      46.680  24.620   2.712  0.00  0.00    -0.307 OA
HETATM   21  H   UNK N   1      46.417  23.687   2.767  0.00  0.00     0.222 HD
ENDBRANCH  18  20
BRANCH  18  22
HETATM   22  O   UNK N   1      45.659  24.075   1.108  0.00  0.00    -0.307 OA
HETATM   23  H   UNK N   1      44.770  23.699   1.016  0.00  0.00     0.222 HD
ENDBRANCH  18  22
ENDBRANCH  17  18
ENDBRANCH  13  17
ENDBRANCH  12  13
ENDBRANCH   8  12
ENDBRANCH   7   8
ENDBRANCH   6   7
ENDBRANCH   1   6
BRANCH   2  24
HETATM   24  O   UNK N   1      43.376  23.906   4.401  0.00  0.00    -0.390 OA
HETATM   25  H   UNK N   1      43.460  24.868   4.325  0.00  0.00     0.210 HD
ENDBRANCH   2  24
BRANCH   3  26
HETATM   26  O   UNK N   1      45.872  22.220   4.201  0.00  0.00    -0.388 OA
HETATM   27  H   UNK N   1      46.499  22.330   4.935  0.00  0.00     0.210 HD
ENDBRANCH   3  26
BRANCH   4  28
HETATM   28  N   UNK N   1      44.774  19.540   2.948  0.00  0.00    -0.297 N 
HETATM   29  C   UNK N   1      43.887  18.515   2.845  0.00  0.00     0.188 A 
HETATM   30  N   UNK N   1      44.463  17.319   3.157  0.00  0.00    -0.346 N 
HETATM   31  C   UNK N   1      45.737  17.630   3.449  0.00  0.00     0.122 A 
ATOM     32  HN  UNK N   1      44.025  16.399   3.166  1.00  0.00     0.167 HD
HETATM   33  C   UNK N   1      46.784  16.806   3.832  0.00  0.00     0.131 A 
HETATM   34  C   UNK N   1      45.929  18.957   3.322  0.00  0.00     0.142 A 
HETATM   35  N   UNK N   1      48.000  17.382   4.066  0.00  0.00    -0.337 N 
HETATM   36  C   UNK N   1      48.178  18.737   3.924  0.00  0.00     0.183 A 
ATOM     37  HN  UNK N   1      48.787  16.797   4.350  1.00  0.00     0.168 HD
HETATM   38  N   UNK N   1      47.132  19.537   3.549  0.00  0.00    -0.336 N 
ATOM     39  HN  UNK N   1      47.257  20.544   3.444  1.00  0.00     0.168 HD
BRANCH  33  40
HETATM   40  N   UNK N   1      46.607  15.416   3.980  0.00  0.00    -0.383 N 
HETATM   41  H   UNK N   1      47.170  14.899   4.601  0.00  0.00     0.157 HD
HETATM   42  H   UNK N   1      45.912  14.955   3.455  0.00  0.00     0.157 HD
ENDBRANCH  33  40
ENDBRANCH   4  28
TORSDOF 15
ENDMDL
